REMARK  Name = ZINC67013737
REMARK  2 active torsions:
REMARK  status: ('A' for Active; 'I' for Inactive)
REMARK    1  A    between atoms: C_5  and  C_7
REMARK    2  A    between atoms: N_16  and  C_17
REMARK                            x       y       z     vdW  Elec       q    Type
REMARK                         _______ _______ _______ _____ _____    ______ ____
ROOT
ATOM      1  C   UNL     1       1.415  -2.850  -1.036  0.00  0.00    +0.168 C 
ATOM      2  C   UNL     1       1.904  -3.002   0.409  0.00  0.00    +0.145 C 
ATOM      3  N   UNL     1       1.456  -4.309   0.916  0.00  0.00    -0.280 N 
ATOM      4  C   UNL     1       0.037  -4.662   0.759  0.00  0.00    +0.137 C 
ATOM      5  C   UNL     1      -0.362  -4.430  -0.703  0.00  0.00    +0.179 C 
ATOM      6  O   UNL     1       0.008  -3.103  -1.087  0.00  0.00    -0.369 OA
ATOM      7  C   UNL     1       2.322  -5.158   1.505  0.00  0.00    +0.307 C 
ATOM      8  O   UNL     1       3.507  -4.890   1.540  0.00  0.00    -0.252 OA
ATOM      9  N   UNL     1       1.873  -6.303   2.055  0.00  0.00    -0.269 N 
ATOM     10  H   UNL     1       0.941  -6.554   1.961  0.00  0.00    +0.156 HD
ENDROOT
BRANCH   9  11
ATOM     11  C   UNL     1       2.753  -7.132   2.764  0.00  0.00    +0.038 A 
ATOM     12  C   UNL     1       3.796  -6.575   3.493  0.00  0.00    +0.027 A 
ATOM     13  C   UNL     1       4.665  -7.392   4.191  0.00  0.00    +0.051 A 
ATOM     14  C   UNL     1       4.498  -8.769   4.167  0.00  0.00    +0.162 A 
ATOM     15  C   UNL     1       3.454  -9.328   3.440  0.00  0.00    +0.164 A 
ATOM     16  C   UNL     1       2.580  -8.508   2.743  0.00  0.00    +0.072 A 
ATOM     17  O   UNL     1       3.270 -10.677   3.411  0.00  0.00    -0.485 OA
ATOM     18  C   UNL     1       4.377 -11.487   3.819  0.00  0.00    +0.270 C 
ATOM     19  C   UNL     1       4.948 -10.902   5.118  0.00  0.00    +0.270 C 
ATOM     20  O   UNL     1       5.367  -9.558   4.858  0.00  0.00    -0.485 OA
ENDBRANCH   9  11
BRANCH   1  25
ATOM     21  C   UNL     1       0.961   0.804  -1.870  0.00  0.00    +0.001 A 
ATOM     22  C   UNL     1       2.198   1.124  -2.399  0.00  0.00    +0.003 A 
ATOM     23  C   UNL     1       3.183   0.158  -2.486  0.00  0.00    +0.039 A 
ATOM     24  C   UNL     1       2.930  -1.130  -2.045  0.00  0.00    +0.129 A 
ATOM     25  C   UNL     1       1.691  -1.448  -1.516  0.00  0.00    +0.018 A 
ATOM     26  C   UNL     1       0.708  -0.481  -1.429  0.00  0.00    +0.009 A 
ATOM     27  F   UNL     1       3.892  -2.075  -2.131  0.00  0.00    -0.205 F 
ENDBRANCH   1  25
TORSDOF 2
