REMARK  Name = ZINC08587281
REMARK  10 active torsions:
REMARK  status: ('A' for Active; 'I' for Inactive)
REMARK    1  A    between atoms: C_1  and  C_2
REMARK    2  A    between atoms: C_2  and  O_3
REMARK    3  A    between atoms: O_3  and  C_4
REMARK    4  A    between atoms: C_4  and  C_6
REMARK    5  A    between atoms: C_7  and  C_27
REMARK    6  A    between atoms: C_10  and  N_11
REMARK    7  A    between atoms: C_12  and  C_14
REMARK    8  A    between atoms: C_16  and  C_19
REMARK    9  A    between atoms: C_22  and  C_26
REMARK   10  A    between atoms: C_30  and  C_33
REMARK                            x       y       z     vdW  Elec       q    Type
REMARK                         _______ _______ _______ _____ _____    ______ ____
ROOT
ATOM      1  C   UNL     1       1.448  -2.344  -2.515  0.00  0.00    +0.095 A 
ATOM      2  C   UNL     1       2.874  -2.622  -2.522  0.00  0.00    +0.005 A 
ATOM      3  C   UNL     1       3.364  -3.124  -3.684  0.00  0.00    +0.056 A 
ATOM      4  S   UNL     1       1.927  -3.214  -4.730  0.00  0.00    -0.080 S 
ATOM      5  C   UNL     1       0.756  -2.626  -3.683  0.00  0.00    +0.087 A 
ENDROOT
BRANCH   2   6
ATOM      6  C   UNL     1       3.735  -2.373  -1.341  0.00  0.00    -0.017 A 
ATOM      7  C   UNL     1       3.687  -1.143  -0.687  0.00  0.00    +0.009 A 
ATOM      8  C   UNL     1       4.490  -0.917   0.412  0.00  0.00    +0.004 A 
ATOM      9  C   UNL     1       5.342  -1.909   0.865  0.00  0.00    -0.050 A 
ATOM     10  C   UNL     1       5.393  -3.131   0.220  0.00  0.00    +0.004 A 
ATOM     11  C   UNL     1       4.591  -3.370  -0.877  0.00  0.00    +0.009 A 
ATOM     12  C   UNL     1       6.217  -1.656   2.065  0.00  0.00    +0.044 C 
ENDBRANCH   2   6
BRANCH   5  13
ATOM     13  N   UNL     1      -0.595  -2.458  -3.930  0.00  0.00    -0.274 N 
ATOM     14  C   UNL     1      -1.107  -2.786  -5.133  0.00  0.00    +0.270 C 
ATOM     15  O   UNL     1      -0.381  -3.230  -6.001  0.00  0.00    -0.268 OA
ATOM     16  H   UNL     1      -1.175  -2.103  -3.237  0.00  0.00    +0.156 HD
BRANCH  14  17
ATOM     17  C   UNL     1      -2.554  -2.606  -5.397  0.00  0.00    +0.169 A 
ATOM     18  C   UNL     1      -3.222  -2.913  -6.603  0.00  0.00    +0.086 A 
ATOM     19  C   UNL     1      -4.537  -2.605  -6.443  0.00  0.00    +0.168 A 
ATOM     20  O   UNL     1      -4.701  -2.126  -5.196  0.00  0.00    -0.354 OA
ATOM     21  N   UNL     1      -3.441  -2.140  -4.550  0.00  0.00    -0.073 NA
BRANCH  19  22
ATOM     22  C   UNL     1      -5.598  -2.768  -7.459  0.00  0.00    +0.023 A 
ATOM     23  C   UNL     1      -5.290  -3.286  -8.718  0.00  0.00    +0.012 A 
ATOM     24  C   UNL     1      -6.284  -3.436  -9.662  0.00  0.00    +0.007 A 
ATOM     25  C   UNL     1      -7.586  -3.075  -9.365  0.00  0.00    -0.015 A 
ATOM     26  C   UNL     1      -7.900  -2.561  -8.117  0.00  0.00    +0.127 A 
ATOM     27  C   UNL     1      -6.914  -2.412  -7.161  0.00  0.00    +0.050 A 
ATOM     28  F   UNL     1      -9.174  -2.210  -7.834  0.00  0.00    -0.205 F 
ATOM     29  C   UNL     1      -8.666  -3.243 -10.402  0.00  0.00    +0.047 C 
ENDBRANCH  19  22
ENDBRANCH  14  17
ENDBRANCH   5  13
BRANCH   1  30
ATOM     30  C   UNL     1       0.776  -1.800  -1.335  0.00  0.00    +0.342 C 
ATOM     31  O   UNL     1       0.312  -2.552  -0.499  0.00  0.00    -0.245 OA
BRANCH  30  32
ATOM     32  O   UNL     1       0.671  -0.465  -1.174  0.00  0.00    -0.461 OA
BRANCH  32  34
ATOM     33  C   UNL     1      -0.019   1.526   0.010  0.00  0.00    +0.048 C 
ATOM     34  C   UNL     1       0.002  -0.004   0.002  0.00  0.00    +0.229 C 
ENDBRANCH  32  34
ENDBRANCH  30  32
ENDBRANCH   1  30
TORSDOF 7
