REMARK  Name = ZINC12364046
REMARK  10 active torsions:
REMARK  status: ('A' for Active; 'I' for Inactive)
REMARK    1  A    between atoms: C_1  and  C_2
REMARK    2  A    between atoms: C_2  and  O_3
REMARK    3  A    between atoms: O_3  and  C_4
REMARK    4  A    between atoms: C_4  and  C_6
REMARK    5  A    between atoms: C_10  and  N_11
REMARK    6  A    between atoms: C_12  and  C_13
REMARK    7  A    between atoms: C_14  and  C_25
REMARK    8  A    between atoms: N_16  and  C_19
REMARK    9  A    between atoms: C_17  and  O_18
REMARK   10  A    between atoms: N_27  and  C_30
REMARK                            x       y       z     vdW  Elec       q    Type
REMARK                         _______ _______ _______ _____ _____    ______ ____
ROOT
ATOM      1  C   UNL     1      -2.841  -2.416   0.016  0.00  0.00    +0.095 A 
ATOM      2  C   UNL     1      -3.542  -2.711  -1.217  0.00  0.00    -0.025 A 
ATOM      3  C   UNL     1      -4.782  -3.244  -1.095  0.00  0.00    -0.021 A 
ATOM      4  S   UNL     1      -5.054  -3.371   0.649  0.00  0.00    -0.075 S 
ATOM      5  C   UNL     1      -3.498  -2.710   1.219  0.00  0.00    +0.115 A 
ATOM      6  C   UNL     1      -5.699  -3.628  -2.214  0.00  0.00    -0.036 C 
ATOM      7  N   UNL     1      -5.210  -2.997  -3.453  0.00  0.00    +0.381 N 
ATOM      8  C   UNL     1      -3.778  -3.279  -3.614  0.00  0.00    -0.074 C 
ATOM      9  C   UNL     1      -2.963  -2.461  -2.608  0.00  0.00    +0.018 C 
ATOM     10  C   UNL     1      -5.948  -3.539  -4.602  0.00  0.00    -0.096 C 
ATOM     11  H   UNL     1      -5.353  -1.999  -3.402  0.00  0.00    -0.082 HD
ENDROOT
BRANCH   1  12
ATOM     12  C   UNL     1      -1.497  -1.839   0.006  0.00  0.00    +0.342 C 
ATOM     13  O   UNL     1      -0.522  -2.566  -0.007  0.00  0.00    -0.245 OA
BRANCH  12  14
ATOM     14  O   UNL     1      -1.339  -0.499   0.012  0.00  0.00    -0.461 OA
BRANCH  14  16
ATOM     15  C   UNL     1      -0.019   1.526   0.010  0.00  0.00    +0.048 C 
ATOM     16  C   UNL     1       0.002  -0.004   0.002  0.00  0.00    +0.229 C 
ENDBRANCH  14  16
ENDBRANCH  12  14
ENDBRANCH   1  12
BRANCH   5  17
ATOM     17  N   UNL     1      -3.064  -2.536   2.485  0.00  0.00    -0.247 NA
ATOM     18  C   UNL     1      -3.830  -2.875   3.493  0.00  0.00    +0.127 C 
BRANCH  18  19
ATOM     19  C   UNL     1      -3.360  -2.686   4.866  0.00  0.00    +0.077 A 
ATOM     20  C   UNL     1      -4.066  -3.008   6.051  0.00  0.00    +0.073 A 
ATOM     21  N   UNL     1      -3.317  -2.693   7.069  0.00  0.00    -0.168 NA
ATOM     22  N   UNL     1      -2.109  -2.161   6.606  0.00  0.00    -0.200 N 
ATOM     23  C   UNL     1      -2.130  -2.161   5.256  0.00  0.00    +0.225 A 
ATOM     24  C   UNL     1      -5.446  -3.610   6.121  0.00  0.00    +0.068 C 
BRANCH  22  25
ATOM     25  C   UNL     1      -1.052  -1.710   7.408  0.00  0.00    +0.069 A 
ATOM     26  C   UNL     1       0.261  -1.879   6.989  0.00  0.00    +0.028 A 
ATOM     27  C   UNL     1       1.300  -1.433   7.782  0.00  0.00    +0.002 A 
ATOM     28  C   UNL     1       1.035  -0.818   8.992  0.00  0.00    +0.000 A 
ATOM     29  C   UNL     1      -0.272  -0.648   9.412  0.00  0.00    +0.002 A 
ATOM     30  C   UNL     1      -1.316  -1.087   8.621  0.00  0.00    +0.028 A 
ENDBRANCH  22  25
BRANCH  23  31
ATOM     31  O   UNL     1      -1.143  -1.730   4.436  0.00  0.00    -0.492 OA
ATOM     32  H   UNL     1      -1.205  -0.793   4.206  0.00  0.00    +0.294 HD
ENDBRANCH  23  31
ENDBRANCH  18  19
ENDBRANCH   5  17
TORSDOF 7
