REMARK  Name = ZINC22824482
REMARK  6 active torsions:
REMARK  status: ('A' for Active; 'I' for Inactive)
REMARK    1  A    between atoms: C_1  and  O_2
REMARK    2  A    between atoms: O_2  and  C_3
REMARK    3  A    between atoms: C_6  and  C_11
REMARK    4  A    between atoms: C_7  and  O_9
REMARK    5  A    between atoms: O_9  and  C_10
REMARK    6  A    between atoms: C_16  and  C_28
REMARK                            x       y       z     vdW  Elec       q    Type
REMARK                         _______ _______ _______ _____ _____    ______ ____
ROOT
ATOM      1  C   UNL     1       4.165   7.500  -3.299  0.00  0.00    +0.035 C 
ATOM      2  C   UNL     1       5.135   6.990  -2.231  0.00  0.00    +0.060 C 
ATOM      3  C   UNL     1       4.358   6.505  -1.029  0.00  0.00    +0.020 C 
ATOM      4  C   UNL     1       3.131   5.963  -1.171  0.00  0.00    +0.039 C 
ATOM      5  C   UNL     1       2.337   5.445   0.007  0.00  0.00    +0.156 C 
ATOM      6  N   UNL     1       2.918   5.931   1.256  0.00  0.00    -0.301 N 
ATOM      7  C   UNL     1       2.402   5.939   2.519  0.00  0.00    +0.069 A 
ATOM      8  C   UNL     1       1.188   5.515   3.047  0.00  0.00    +0.028 A 
ATOM      9  C   UNL     1       1.000   5.680   4.410  0.00  0.00    +0.002 A 
ATOM     10  C   UNL     1       1.971   6.240   5.222  0.00  0.00    +0.002 A 
ATOM     11  C   UNL     1       3.187   6.670   4.722  0.00  0.00    +0.028 A 
ATOM     12  C   UNL     1       3.398   6.515   3.347  0.00  0.00    +0.066 A 
ATOM     13  N   UNL     1       4.439   6.825   2.563  0.00  0.00    -0.327 N 
ATOM     14  C   UNL     1       4.170   6.492   1.331  0.00  0.00    +0.179 A 
ATOM     15  N   UNL     1       4.957   6.636   0.201  0.00  0.00    -0.290 N 
ATOM     16  C   UNL     1       2.531   5.858  -2.440  0.00  0.00    +0.164 C 
ATOM     17  O   UNL     1       1.430   5.354  -2.536  0.00  0.00    -0.292 OA
ATOM     18  C   UNL     1       3.222   6.354  -3.679  0.00  0.00    +0.088 C 
ATOM     19  H   UNL     1       6.033   6.851   0.269  0.00  0.00    +0.155 HD
ATOM     20  H   UNL     1       5.337   7.289   2.999  0.00  0.00    +0.169 HD
ENDROOT
BRANCH   5  21
ATOM     21  C   UNL     1       2.358   3.939  -0.000  0.00  0.00    -0.012 A 
ATOM     22  C   UNL     1       3.544   3.271   0.022  0.00  0.00    +0.006 A 
ATOM     23  C   UNL     1       3.583   1.878   0.015  0.00  0.00    +0.001 A 
ATOM     24  C   UNL     1       2.436   1.145  -0.014  0.00  0.00    +0.008 A 
ATOM     25  C   UNL     1       1.193   1.799  -0.037  0.00  0.00    -0.018 A 
ATOM     26  C   UNL     1       1.153   3.216  -0.031  0.00  0.00    -0.012 A 
ATOM     27  C   UNL     1      -0.090   3.870  -0.055  0.00  0.00    +0.009 A 
ATOM     28  C   UNL     1      -1.236   3.138  -0.084  0.00  0.00    +0.001 A 
ATOM     29  C   UNL     1      -1.197   1.744  -0.096  0.00  0.00    +0.001 A 
ATOM     30  C   UNL     1      -0.012   1.076  -0.068  0.00  0.00    +0.008 A 
ENDBRANCH   5  21
BRANCH   1  34
ATOM     31  C   UNL     1       6.356   8.769  -6.746  0.00  0.00    +0.124 A 
ATOM     32  C   UNL     1       6.444   7.455  -6.308  0.00  0.00    +0.046 A 
ATOM     33  C   UNL     1       5.735   7.048  -5.194  0.00  0.00    +0.011 A 
ATOM     34  C   UNL     1       4.937   7.947  -4.514  0.00  0.00    -0.002 A 
ATOM     35  C   UNL     1       4.841   9.261  -4.951  0.00  0.00    +0.127 A 
ATOM     36  C   UNL     1       5.556   9.673  -6.065  0.00  0.00    +0.091 A 
BRANCH  31  38
ATOM     37  C   UNL     1       7.856   8.184  -8.495  0.00  0.00    +0.277 C 
ATOM     38  O   UNL     1       7.053   9.169  -7.842  0.00  0.00    -0.495 OA
ENDBRANCH  31  38
BRANCH  35  39
ATOM     39  O   UNL     1       4.051  10.143  -4.285  0.00  0.00    -0.495 OA
ATOM     40  C   UNL     1       4.000  11.479  -4.791  0.00  0.00    +0.277 C 
ENDBRANCH  35  39
ENDBRANCH   1  34
TORSDOF 4
