REMARK  Name = ZINC11198448
REMARK  13 active torsions:
REMARK  status: ('A' for Active; 'I' for Inactive)
REMARK    1  A    between atoms: C_1  and  C_2
REMARK    2  A    between atoms: C_7  and  N_8
REMARK    3  A    between atoms: C_9  and  C_27
REMARK    4  A    between atoms: C_12  and  S_13
REMARK    5  A    between atoms: S_13  and  C_14
REMARK    6  A    between atoms: C_14  and  C_16
REMARK    7  A    between atoms: C_14  and  C_17
REMARK    8  A    between atoms: N_19  and  C_20
REMARK    9  A    between atoms: C_20  and  C_21
REMARK   10  A    between atoms: C_20  and  C_22
REMARK   11  A    between atoms: C_20  and  C_24
REMARK   12  A    between atoms: C_24  and  C_25
REMARK   13  A    between atoms: C_24  and  C_26
REMARK                            x       y       z     vdW  Elec       q    Type
REMARK                         _______ _______ _______ _____ _____    ______ ____
ROOT
ATOM      1  N   UNL     1       5.173   1.910  -1.225  0.00  0.00    -0.270 N 
ATOM      2  C   UNL     1       5.846   3.098  -1.039  0.00  0.00    +0.169 A 
ATOM      3  N   UNL     1       4.997   3.940  -0.498  0.00  0.00    -0.128 NA
ATOM      4  N   UNL     1       3.855   3.373  -0.339  0.00  0.00    -0.122 NA
ATOM      5  C   UNL     1       3.905   2.129  -0.760  0.00  0.00    +0.197 A 
ENDROOT
BRANCH   1  12
ATOM      6  C   UNL     1       6.377   0.021   0.532  0.00  0.00    +0.046 C 
ATOM      7  C   UNL     1       6.277  -0.223  -0.952  0.00  0.00    -0.026 A 
ATOM      8  C   UNL     1       6.772  -1.393  -1.495  0.00  0.00    +0.005 A 
ATOM      9  C   UNL     1       6.686  -1.615  -2.857  0.00  0.00    +0.000 A 
ATOM     10  C   UNL     1       6.098  -0.671  -3.679  0.00  0.00    +0.002 A 
ATOM     11  C   UNL     1       5.596   0.498  -3.141  0.00  0.00    +0.026 A 
ATOM     12  C   UNL     1       5.681   0.724  -1.774  0.00  0.00    +0.053 A 
ENDBRANCH   1  12
BRANCH   2  13
ATOM     13  C   UNL     1       7.257   3.372  -1.384  0.00  0.00    +0.020 A 
ATOM     14  C   UNL     1       8.130   2.316  -1.653  0.00  0.00    +0.013 A 
ATOM     15  C   UNL     1       9.444   2.579  -1.979  0.00  0.00    +0.021 A 
ATOM     16  C   UNL     1       9.901   3.885  -2.028  0.00  0.00    +0.041 A 
ATOM     17  C   UNL     1       9.041   4.936  -1.757  0.00  0.00    +0.021 A 
ATOM     18  C   UNL     1       7.723   4.686  -1.436  0.00  0.00    +0.013 A 
ATOM     19 CL   UNL     1      11.559   4.207  -2.431  0.00  0.00    -0.084 Cl
ENDBRANCH   2  13
BRANCH   5  20
ATOM     20  S   UNL     1       2.583   0.964  -0.739  0.00  0.00    -0.073 S 
BRANCH  20  21
ATOM     21  C   UNL     1       1.280   1.980   0.001  0.00  0.00    +0.137 C 
ATOM     22  C   UNL     1       1.668   2.341   1.436  0.00  0.00    +0.029 C 
BRANCH  21  23
ATOM     23  C   UNL     1      -0.014   1.209   0.009  0.00  0.00    +0.227 C 
ATOM     24  O   UNL     1       0.002  -0.004   0.002  0.00  0.00    -0.275 OA
ATOM     25  N   UNL     1      -1.191   1.867   0.018  0.00  0.00    -0.296 N 
ATOM     26  H   UNL     1      -1.206   2.966   0.024  0.00  0.00    +0.150 HD
BRANCH  25  27
ATOM     27  C   UNL     1      -2.449   1.117   0.020  0.00  0.00    +0.121 C 
ATOM     28  C   UNL     1      -2.524   0.243  -1.234  0.00  0.00    +0.048 C 
BRANCH  27  29
ATOM     29  C   UNL     1      -3.626   2.095   0.031  0.00  0.00    +0.020 C 
ATOM     30  C   UNL     1      -4.937   1.317  -0.093  0.00  0.00    +0.010 C 
ATOM     31  C   UNL     1      -3.622   2.883   1.342  0.00  0.00    +0.010 C 
ENDBRANCH  27  29
BRANCH  27  32
ATOM     32  C   UNL     1      -2.510   0.263   1.217  0.00  0.00    +0.088 C 
ATOM     33  N   UNL     1      -2.557  -0.396   2.142  0.00  0.00    -0.194 NA
ENDBRANCH  27  32
ENDBRANCH  25  27
ENDBRANCH  21  23
ENDBRANCH  20  21
ENDBRANCH   5  20
TORSDOF 8
