REMARK  Name = ZINC63374849
REMARK  11 active torsions:
REMARK  status: ('A' for Active; 'I' for Inactive)
REMARK    1  A    between atoms: C_1  and  C_2
REMARK    2  A    between atoms: C_2  and  C_4
REMARK    3  A    between atoms: C_2  and  C_34
REMARK    4  A    between atoms: C_4  and  N_5
REMARK    5  A    between atoms: C_6  and  C_8
REMARK    6  A    between atoms: C_8  and  C_10
REMARK    7  A    between atoms: C_8  and  N_14
REMARK    8  A    between atoms: C_10  and  C_11
REMARK    9  A    between atoms: C_11  and  C_12
REMARK   10  A    between atoms: C_11  and  C_13
REMARK   11  A    between atoms: C_17  and  C_33
REMARK                            x       y       z     vdW  Elec       q    Type
REMARK                         _______ _______ _______ _____ _____    ______ ____
ROOT
ATOM      1  N   UNL     1      -5.489  -0.760   2.974  0.00  0.00    -0.212 N 
ATOM      2  C   UNL     1      -6.587   0.024   2.992  0.00  0.00    +0.249 C 
ATOM      3  O   UNL     1      -6.626   1.233   2.910  0.00  0.00    -0.273 OA
ATOM      4  C   UNL     1      -7.760  -0.921   3.136  0.00  0.00    +0.136 C 
ATOM      5  C   UNL     1      -8.557  -0.602   4.400  0.00  0.00    +0.139 C 
ATOM      6  C   UNL     1      -8.342  -1.752   5.374  0.00  0.00    -0.034 C 
ATOM      7  C   UNL     1      -7.875  -1.207   6.494  0.00  0.00    -0.001 A 
ATOM      8  C   UNL     1      -7.542  -1.795   7.801  0.00  0.00    +0.010 A 
ATOM      9  C   UNL     1      -7.069  -0.935   8.742  0.00  0.00    +0.001 A 
ATOM     10  C   UNL     1      -6.896   0.434   8.515  0.00  0.00    +0.002 A 
ATOM     11  C   UNL     1      -7.181   1.060   7.345  0.00  0.00    +0.026 A 
ATOM     12  C   UNL     1      -7.689   0.260   6.281  0.00  0.00    +0.043 A 
ATOM     13  N   UNL     1      -8.064   0.604   5.068  0.00  0.00    -0.375 N 
ATOM     14  C   UNL     1      -8.571  -3.201   5.021  0.00  0.00    +0.052 C 
ATOM     15  C   UNL     1      -7.806  -3.471   3.710  0.00  0.00    +0.115 C 
ATOM     16  N   UNL     1      -7.115  -2.236   3.328  0.00  0.00    -0.269 N 
ATOM     17  C   UNL     1      -5.803  -2.054   3.126  0.00  0.00    +0.313 C 
ATOM     18  O   UNL     1      -4.990  -2.957   3.089  0.00  0.00    -0.252 OA
ATOM     19  C   UNL     1      -8.642  -0.908   1.886  0.00  0.00    +0.044 C 
ATOM     20  H   UNL     1      -8.020   1.491   4.678  0.00  0.00    +0.160 HD
ENDROOT
BRANCH   1  21
ATOM     21  C   UNL     1      -4.123  -0.258   2.804  0.00  0.00    +0.171 C 
BRANCH  21  23
ATOM     22  N   UNL     1      -2.309  -0.431   1.132  0.00  0.00    -0.313 N 
ATOM     23  C   UNL     1      -3.561  -0.766   1.501  0.00  0.00    +0.234 C 
ATOM     24  O   UNL     1      -4.234  -1.477   0.786  0.00  0.00    -0.274 OA
ATOM     25  H   UNL     1      -1.770   0.138   1.704  0.00  0.00    +0.149 HD
BRANCH  22  26
ATOM     26  C   UNL     1      -1.762  -0.924  -0.135  0.00  0.00    +0.112 C 
BRANCH  26  28
ATOM     27  C   UNL     1      -0.364   1.123  -0.451  0.00  0.00    +0.014 C 
ATOM     28  C   UNL     1      -0.335  -0.401  -0.313  0.00  0.00    +0.033 C 
BRANCH  28  29
ATOM     29  C   UNL     1       0.271  -1.006  -1.552  0.00  0.00    -0.043 A 
ATOM     30  C   UNL     1      -0.316  -0.789  -2.785  0.00  0.00    +0.004 A 
ATOM     31  C   UNL     1       0.240  -1.344  -3.923  0.00  0.00    +0.000 A 
ATOM     32  C   UNL     1       1.383  -2.116  -3.827  0.00  0.00    +0.000 A 
ATOM     33  C   UNL     1       1.970  -2.332  -2.595  0.00  0.00    +0.000 A 
ATOM     34  C   UNL     1       1.417  -1.774  -1.458  0.00  0.00    +0.004 A 
ENDBRANCH  28  29
ENDBRANCH  26  28
ENDBRANCH  22  26
ENDBRANCH  21  23
BRANCH  21  35
ATOM     35  C   UNL     1      -3.252  -0.749   3.962  0.00  0.00    +0.035 C 
BRANCH  35  36
ATOM     36  C   UNL     1      -3.780  -0.174   5.277  0.00  0.00    -0.015 C 
ATOM     37  C   UNL     1      -3.002  -0.780   6.448  0.00  0.00    +0.007 C 
ATOM     38  C   UNL     1      -3.600   1.346   5.278  0.00  0.00    +0.007 C 
ENDBRANCH  35  36
ENDBRANCH  21  35
ENDBRANCH   1  21
TORSDOF 7
