REMARK  Name = ZINC34315786
REMARK  6 active torsions:
REMARK  status: ('A' for Active; 'I' for Inactive)
REMARK    1  A    between atoms: C_1  and  C_2
REMARK    2  A    between atoms: C_13  and  C_15
REMARK    3  A    between atoms: C_15  and  S_17
REMARK    4  A    between atoms: S_17  and  C_18
REMARK    5  A    between atoms: C_28  and  C_35
REMARK    6  A    between atoms: N_33  and  C_34
REMARK                            x       y       z     vdW  Elec       q    Type
REMARK                         _______ _______ _______ _____ _____    ______ ____
ROOT
ATOM      1  C   UNL     1      -0.280   1.680   0.085  0.00  0.00    +0.012 C 
ATOM      2  C   UNL     1      -0.082   0.166  -0.001  0.00  0.00    -0.019 C 
ATOM      3  C   UNL     1       0.544  -0.246  -1.336  0.00  0.00    +0.008 C 
ATOM      4  C   UNL     1       2.017   0.153  -1.393  0.00  0.00    +0.005 C 
ATOM      5  C   UNL     1       2.765  -0.594  -0.284  0.00  0.00    +0.004 C 
ATOM      6  C   UNL     1       2.215  -0.128   1.064  0.00  0.00    -0.003 C 
ATOM      7  C   UNL     1       0.749  -0.367   1.179  0.00  0.00    -0.001 C 
ATOM      8  C   UNL     1       0.415  -1.870   1.206  0.00  0.00    +0.005 C 
ATOM      9  C   UNL     1      -1.098  -1.908   0.888  0.00  0.00    +0.013 C 
ATOM     10  C   UNL     1      -1.424  -0.600   0.143  0.00  0.00    +0.073 C 
ATOM     11  C   UNL     1       2.977  -0.814   2.200  0.00  0.00    +0.006 C 
ATOM     12  C   UNL     1       4.461  -0.440   2.120  0.00  0.00    +0.023 C 
ATOM     13  C   UNL     1       4.680   0.465   0.910  0.00  0.00    +0.086 C 
ATOM     14  C   UNL     1       4.258  -0.287  -0.369  0.00  0.00    +0.008 C 
ATOM     15  C   UNL     1       4.560   0.563  -1.575  0.00  0.00    -0.013 C 
ATOM     16  C   UNL     1       5.682   1.287  -1.585  0.00  0.00    +0.064 C 
ATOM     17  C   UNL     1       6.587   1.220  -0.424  0.00  0.00    +0.239 C 
ATOM     18  O   UNL     1       7.763   1.506  -0.545  0.00  0.00    -0.271 OA
ATOM     19  N   UNL     1       6.088   0.842   0.790  0.00  0.00    -0.297 N 
ATOM     20  C   UNL     1       6.966   0.799   1.961  0.00  0.00    +0.132 C 
ATOM     21  C   UNL     1       5.039  -1.597  -0.481  0.00  0.00    +0.017 C 
ENDROOT
BRANCH  10  22
ATOM     22  C   UNL     1      -1.993  -0.908  -1.218  0.00  0.00    +0.199 C 
ATOM     23  O   UNL     1      -1.738  -1.965  -1.757  0.00  0.00    -0.285 OA
BRANCH  22  24
ATOM     24  S   UNL     1      -2.969   0.198  -1.979  0.00  0.00    -0.032 S 
BRANCH  24  25
ATOM     25  C   UNL     1      -3.385  -0.580  -3.505  0.00  0.00    +0.104 A 
ATOM     26  C   UNL     1      -4.204   0.081  -4.414  0.00  0.00    +0.035 A 
ATOM     27  C   UNL     1      -4.522  -0.540  -5.608  0.00  0.00    +0.004 A 
ATOM     28  C   UNL     1      -4.008  -1.807  -5.854  0.00  0.00    +0.020 A 
ATOM     29  C   UNL     1      -3.201  -2.404  -4.906  0.00  0.00    +0.112 A 
ATOM     30  N   UNL     1      -2.910  -1.785  -3.778  0.00  0.00    -0.248 NA
ENDBRANCH  24  25
ENDBRANCH  22  24
ENDBRANCH  10  22
TORSDOF 3
