REMARK  Name = ZINC36516902
REMARK  19 active torsions:
REMARK  status: ('A' for Active; 'I' for Inactive)
REMARK    1  A    between atoms: C_1  and  C_2
REMARK    2  A    between atoms: C_2  and  C_3
REMARK    3  A    between atoms: C_3  and  C_4
REMARK    4  A    between atoms: C_4  and  C_5
REMARK    5  A    between atoms: C_5  and  C_6
REMARK    6  A    between atoms: C_6  and  N_7
REMARK    7  A    between atoms: N_7  and  C_8
REMARK    8  A    between atoms: C_8  and  C_10
REMARK    9  A    between atoms: C_8  and  C_19
REMARK   10  A    between atoms: C_13  and  N_16
REMARK   11  A    between atoms: N_16  and  C_17
REMARK   12  A    between atoms: N_16  and  C_18
REMARK   13  A    between atoms: N_21  and  C_22
REMARK   14  A    between atoms: C_22  and  S_23
REMARK   15  A    between atoms: S_23  and  C_26
REMARK   16  A    between atoms: C_29  and  C_32
REMARK   17  A    between atoms: C_33  and  C_35
REMARK   18  A    between atoms: C_36  and  C_37
REMARK   19  A    between atoms: C_36  and  C_38
REMARK                            x       y       z     vdW  Elec       q    Type
REMARK                         _______ _______ _______ _____ _____    ______ ____
ROOT
ATOM      1  C   UNL     1       2.200  -3.509   5.305  0.00  0.00    +0.192 C 
ENDROOT
BRANCH   1   2
ATOM      2  C   UNL     1       1.969  -4.848   5.955  0.00  0.00    -0.018 A 
ATOM      3  C   UNL     1       2.916  -5.368   6.819  0.00  0.00    +0.008 A 
ATOM      4  C   UNL     1       2.708  -6.596   7.417  0.00  0.00    +0.023 A 
ATOM      5  C   UNL     1       1.545  -7.308   7.150  0.00  0.00    +0.029 A 
ATOM      6  C   UNL     1       0.597  -6.783   6.282  0.00  0.00    +0.023 A 
ATOM      7  C   UNL     1       0.809  -5.553   5.692  0.00  0.00    +0.008 A 
BRANCH   5   8
ATOM      8  N   UNL     1       1.332  -8.550   7.753  0.00  0.00    -0.336 N 
ATOM      9  C   UNL     1       2.334  -9.102   8.668  0.00  0.00    +0.129 C 
ATOM     10  C   UNL     1       0.105  -9.300   7.470  0.00  0.00    +0.129 C 
ENDBRANCH   5   8
ENDBRANCH   1   2
BRANCH   1  11
ATOM     11  C   UNL     1       3.116  -2.682   6.170  0.00  0.00    +0.239 C 
ATOM     12  O   UNL     1       4.178  -2.294   5.730  0.00  0.00    -0.273 OA
ATOM     13  N   UNL     1       2.756  -2.373   7.431  0.00  0.00    -0.294 N 
ATOM     14  H   UNL     1       1.906  -2.684   7.782  0.00  0.00    +0.150 HD
BRANCH  13  15
ATOM     15  C   UNL     1       3.646  -1.569   8.272  0.00  0.00    +0.278 C 
BRANCH  15  16
ATOM     16  S   UNL     1       3.163   0.176   8.168  0.00  0.00    +0.013 S 
ATOM     17  O   UNL     1       3.978   0.962   9.027  0.00  0.00    -0.168 OA
ATOM     18  O   UNL     1       2.970   0.551   6.810  0.00  0.00    -0.168 OA
BRANCH  16  19
ATOM     19  C   UNL     1       1.555   0.245   8.886  0.00  0.00    +0.090 A 
ATOM     20  C   UNL     1       0.436   0.067   8.094  0.00  0.00    +0.027 A 
ATOM     21  C   UNL     1      -0.825   0.120   8.657  0.00  0.00    +0.005 A 
ATOM     22  C   UNL     1      -0.967   0.352  10.012  0.00  0.00    -0.050 A 
ATOM     23  C   UNL     1       0.152   0.529  10.805  0.00  0.00    +0.005 A 
ATOM     24  C   UNL     1       1.413   0.471  10.242  0.00  0.00    +0.027 A 
ATOM     25  C   UNL     1      -2.342   0.411  10.627  0.00  0.00    +0.044 C 
ENDBRANCH  16  19
ENDBRANCH  15  16
ENDBRANCH  13  15
ENDBRANCH   1  11
BRANCH   1  26
ATOM     26  N   UNL     1       2.815  -3.704   3.990  0.00  0.00    -0.282 N 
ATOM     27  C   UNL     1       2.248  -3.162   2.893  0.00  0.00    +0.240 C 
ATOM     28  O   UNL     1       1.281  -2.433   3.006  0.00  0.00    -0.271 OA
BRANCH  27  29
ATOM     29  C   UNL     1       2.798  -3.453   1.561  0.00  0.00    +0.066 C 
ATOM     30  C   UNL     1       2.163  -3.029   0.472  0.00  0.00    -0.071 C 
ATOM     31  C   UNL     1       0.801  -2.396   0.593  0.00  0.00    +0.039 C 
ATOM     32  C   UNL     1       2.804  -3.183  -0.883  0.00  0.00    +0.039 C 
ENDBRANCH  27  29
BRANCH  26  33
ATOM     33  C   UNL     1       4.046  -4.489   3.865  0.00  0.00    +0.109 C 
BRANCH  33  34
ATOM     34  C   UNL     1       3.692  -5.960   3.635  0.00  0.00    +0.019 C 
BRANCH  34  35
ATOM     35  C   UNL     1       4.977  -6.779   3.505  0.00  0.00    +0.002 C 
BRANCH  35  36
ATOM     36  C   UNL     1       4.624  -8.250   3.274  0.00  0.00    -0.000 C 
BRANCH  36  38
ATOM     37  C   UNL     1       5.555 -10.540   2.914  0.00  0.00    +0.004 C 
ATOM     38  C   UNL     1       5.909  -9.069   3.145  0.00  0.00    -0.003 C 
ENDBRANCH  36  38
ENDBRANCH  35  36
ENDBRANCH  34  35
ENDBRANCH  33  34
ENDBRANCH  26  33
ENDBRANCH   1  26
TORSDOF 13
