REMARK  Name = ZINC35632075
REMARK  6 active torsions:
REMARK  status: ('A' for Active; 'I' for Inactive)
REMARK    1  A    between atoms: C_1  and  C_2
REMARK    2  A    between atoms: C_2  and  C_4
REMARK    3  A    between atoms: C_2  and  O_22
REMARK    4  A    between atoms: C_7  and  O_13
REMARK    5  A    between atoms: C_8  and  N_10
REMARK    6  A    between atoms: O_13  and  C_14
REMARK                            x       y       z     vdW  Elec       q    Type
REMARK                         _______ _______ _______ _____ _____    ______ ____
ROOT
ATOM      1  C   UNL     1      -1.510  -0.284  -0.014  0.00  0.00    -0.017 A 
ATOM      2  C   UNL     1      -2.138  -0.530   1.194  0.00  0.00    +0.010 A 
ATOM      3  C   UNL     1      -3.401  -1.089   1.215  0.00  0.00    +0.049 A 
ATOM      4  C   UNL     1      -4.040  -1.403   0.024  0.00  0.00    +0.159 A 
ATOM      5  C   UNL     1      -3.408  -1.155  -1.186  0.00  0.00    +0.168 A 
ATOM      6  C   UNL     1      -2.146  -0.591  -1.202  0.00  0.00    +0.042 A 
ENDROOT
BRANCH   5   7
ATOM      7  N   UNL     1      -4.086  -1.489  -2.459  0.00  0.00    +0.060 N 
ATOM      8  O   UNL     1      -3.534  -1.272  -3.513  0.00  0.00    -0.126 OA
ATOM      9  O   UNL     1      -5.191  -1.978  -2.444  0.00  0.00    -0.126 OA
ENDBRANCH   5   7
BRANCH   1  11
ATOM     10  C   UNL     1      -0.240   1.837   0.182  0.00  0.00    +0.043 C 
ATOM     11  C   UNL     1      -0.132   0.326  -0.034  0.00  0.00    +0.141 C 
BRANCH  11  12
ATOM     12  O   UNL     1       0.659  -0.249   1.008  0.00  0.00    -0.387 OA
ATOM     13  H   UNL     1       1.560   0.098   1.055  0.00  0.00    +0.210 HD
ENDBRANCH  11  12
ENDBRANCH   1  11
BRANCH   4  14
ATOM     14  O   UNL     1      -5.282  -1.954   0.042  0.00  0.00    -0.452 OA
BRANCH  14  15
ATOM     15  C   UNL     1      -5.907  -2.078   1.242  0.00  0.00    +0.148 A 
ATOM     16  C   UNL     1      -5.811  -3.264   1.956  0.00  0.00    +0.067 A 
ATOM     17  C   UNL     1      -6.448  -3.388   3.177  0.00  0.00    +0.045 A 
ATOM     18  C   UNL     1      -7.180  -2.330   3.687  0.00  0.00    +0.021 A 
ATOM     19  C   UNL     1      -7.277  -1.148   2.978  0.00  0.00    +0.025 A 
ATOM     20  C   UNL     1      -6.638  -1.017   1.759  0.00  0.00    +0.083 A 
ATOM     21 CL   UNL     1      -6.754   0.471   0.873  0.00  0.00    -0.080 Cl
ATOM     22 CL   UNL     1      -6.328  -4.872   4.070  0.00  0.00    -0.083 Cl
ENDBRANCH  14  15
ENDBRANCH   4  14
TORSDOF 5
