REMARK  Name = ZINC39665971
REMARK  10 active torsions:
REMARK  status: ('A' for Active; 'I' for Inactive)
REMARK    1  A    between atoms: C_1  and  C_2
REMARK    2  A    between atoms: C_5  and  O_8
REMARK    3  A    between atoms: O_8  and  C_9
REMARK    4  A    between atoms: C_9  and  C_11
REMARK    5  A    between atoms: C_9  and  C_12
REMARK    6  A    between atoms: C_12  and  N_13
REMARK    7  A    between atoms: C_14  and  C_16
REMARK    8  A    between atoms: C_27  and  C_29
REMARK    9  A    between atoms: C_34  and  O_35
REMARK   10  A    between atoms: O_35  and  C_36
REMARK                            x       y       z     vdW  Elec       q    Type
REMARK                         _______ _______ _______ _____ _____    ______ ____
ROOT
ATOM      1  C   UNL     1      -3.605  -6.974  -0.037  0.00  0.00    +0.100 C 
ATOM      2  C   UNL     1      -3.725  -6.452  -1.486  0.00  0.00    +0.121 C 
ATOM      3  N   UNL     1      -3.810  -7.674  -2.320  0.00  0.00    -0.296 N 
ATOM      4  C   UNL     1      -4.664  -8.597  -1.534  0.00  0.00    +0.115 C 
ATOM      5  C   UNL     1      -4.226  -8.381  -0.072  0.00  0.00    -0.004 C 
ATOM      6  C   UNL     1      -5.434  -8.449   0.857  0.00  0.00    -0.010 C 
ATOM      7  C   UNL     1      -5.998  -9.872   0.851  0.00  0.00    -0.082 C 
ATOM      8  N   UNL     1      -4.962 -10.814   1.292  0.00  0.00    +0.379 N 
ATOM      9  C   UNL     1      -3.844 -10.810   0.342  0.00  0.00    -0.082 C 
ATOM     10  C   UNL     1      -3.188  -9.426   0.327  0.00  0.00    -0.010 C 
ATOM     11  C   UNL     1      -3.240  -7.897  -3.520  0.00  0.00    +0.250 C 
ATOM     12  O   UNL     1      -2.635  -7.004  -4.081  0.00  0.00    -0.270 OA
ATOM     13  H   UNL     1      -4.627 -10.540   2.204  0.00  0.00    -0.086 HD
ATOM     14  H   UNL     1      -5.354 -11.742   1.346  0.00  0.00    -0.086 HD
ENDROOT
BRANCH  11  15
ATOM     15  C   UNL     1      -3.350  -9.224  -4.155  0.00  0.00    +0.078 A 
ATOM     16  C   UNL     1      -4.556  -9.928  -4.106  0.00  0.00    +0.017 A 
ATOM     17  C   UNL     1      -4.653 -11.167  -4.701  0.00  0.00    +0.001 A 
ATOM     18  C   UNL     1      -3.559 -11.719  -5.348  0.00  0.00    +0.004 A 
ATOM     19  C   UNL     1      -2.362 -11.034  -5.404  0.00  0.00    +0.046 A 
ATOM     20  C   UNL     1      -2.248  -9.784  -4.815  0.00  0.00    +0.132 A 
BRANCH  20  21
ATOM     21  O   UNL     1      -1.074  -9.107  -4.874  0.00  0.00    -0.494 OA
ATOM     22  C   UNL     1       0.006  -9.740  -5.563  0.00  0.00    +0.277 C 
ENDBRANCH  20  21
ENDBRANCH  11  15
BRANCH   1  24
ATOM     23  N   UNL     1      -1.826  -7.020   1.681  0.00  0.00    -0.312 N 
ATOM     24  C   UNL     1      -2.157  -7.050   0.375  0.00  0.00    +0.218 C 
ATOM     25  O   UNL     1      -1.290  -7.137  -0.469  0.00  0.00    -0.275 OA
ATOM     26  H   UNL     1      -2.519  -6.950   2.356  0.00  0.00    +0.149 HD
BRANCH  23  27
ATOM     27  C   UNL     1      -0.419  -7.093   2.082  0.00  0.00    +0.148 C 
BRANCH  27  28
ATOM     28  C   UNL     1      -0.320  -7.040   3.607  0.00  0.00    +0.187 C 
ATOM     29  C   UNL     1       1.150  -7.117   4.026  0.00  0.00    +0.053 C 
BRANCH  28  30
ATOM     30  O   UNL     1      -0.886  -5.816   4.080  0.00  0.00    -0.488 OA
BRANCH  30  35
ATOM     31  C   UNL     1      -2.784  -5.756   9.382  0.00  0.00    +0.044 C 
ATOM     32  C   UNL     1      -2.277  -5.772   7.963  0.00  0.00    -0.050 A 
ATOM     33  C   UNL     1      -1.748  -6.934   7.433  0.00  0.00    +0.007 A 
ATOM     34  C   UNL     1      -1.282  -6.952   6.132  0.00  0.00    +0.046 A 
ATOM     35  C   UNL     1      -1.345  -5.802   5.359  0.00  0.00    +0.121 A 
ATOM     36  C   UNL     1      -1.875  -4.637   5.894  0.00  0.00    +0.046 A 
ATOM     37  C   UNL     1      -2.345  -4.626   7.193  0.00  0.00    +0.007 A 
ENDBRANCH  30  35
ENDBRANCH  28  30
ENDBRANCH  27  28
ENDBRANCH  23  27
ENDBRANCH   1  24
TORSDOF 7
