REMARK  Name = ZINC36370444
REMARK  10 active torsions:
REMARK  status: ('A' for Active; 'I' for Inactive)
REMARK    1  A    between atoms: C_1  and  C_2
REMARK    2  A    between atoms: C_2  and  C_3
REMARK    3  A    between atoms: C_9  and  C_11
REMARK    4  A    between atoms: C_11  and  C_13
REMARK    5  A    between atoms: C_11  and  N_20
REMARK    6  A    between atoms: C_16  and  C_19
REMARK    7  A    between atoms: C_24  and  C_27
REMARK    8  A    between atoms: C_27  and  O_29
REMARK    9  A    between atoms: O_29  and  C_30
REMARK   10  A    between atoms: C_30  and  C_31
REMARK                            x       y       z     vdW  Elec       q    Type
REMARK                         _______ _______ _______ _____ _____    ______ ____
ROOT
ATOM      1  C   UNL     1       2.896  -2.477   6.417  0.00  0.00    +0.006 C 
ENDROOT
BRANCH   1   8
ATOM      2  C   UNL     1       0.731  -0.503   1.223  0.00  0.00    +0.152 A 
ATOM      3  N   UNL     1       2.039  -0.738   1.297  0.00  0.00    -0.205 NA
ATOM      4  C   UNL     1       2.334  -1.160   2.497  0.00  0.00    +0.199 A 
ATOM      5  N   UNL     1       1.204  -1.214   3.253  0.00  0.00    -0.170 N 
ATOM      6  N   UNL     1       0.180  -0.769   2.377  0.00  0.00    -0.146 NA
ATOM      7  C   UNL     1       1.335  -1.642   4.552  0.00  0.00    +0.282 A 
ATOM      8  C   UNL     1       2.533  -1.988   5.038  0.00  0.00    +0.050 A 
ATOM      9  S   UNL     1       3.590  -1.715   3.624  0.00  0.00    -0.050 S 
ATOM     10  O   UNL     1       0.237  -1.716   5.352  0.00  0.00    -0.265 OA
BRANCH   2  12
ATOM     11  C   UNL     1      -0.019   1.526   0.010  0.00  0.00    +0.012 C 
ATOM     12  C   UNL     1       0.002  -0.004   0.002  0.00  0.00    +0.075 C 
ENDBRANCH   2  12
ENDBRANCH   1   8
BRANCH   1  13
ATOM     13  C   UNL     1       3.396  -3.896   6.331  0.00  0.00    -0.056 A 
ATOM     14  C   UNL     1       4.699  -4.147   5.943  0.00  0.00    +0.002 A 
ATOM     15  C   UNL     1       5.157  -5.449   5.864  0.00  0.00    +0.003 A 
ATOM     16  C   UNL     1       4.314  -6.499   6.175  0.00  0.00    -0.050 A 
ATOM     17  C   UNL     1       3.011  -6.247   6.564  0.00  0.00    +0.003 A 
ATOM     18  C   UNL     1       2.554  -4.945   6.646  0.00  0.00    +0.002 A 
ATOM     19  C   UNL     1       4.814  -7.918   6.088  0.00  0.00    +0.044 C 
ENDBRANCH   1  13
BRANCH   1  20
ATOM     20  N   UNL     1       3.948  -1.619   6.979  0.00  0.00    +0.388 N 
ATOM     21  C   UNL     1       4.306  -2.102   8.318  0.00  0.00    -0.077 C 
ATOM     22  C   UNL     1       5.458  -1.263   8.876  0.00  0.00    -0.018 C 
ATOM     23  C   UNL     1       5.020   0.202   8.960  0.00  0.00    +0.011 C 
ATOM     24  C   UNL     1       4.578   0.673   7.571  0.00  0.00    +0.081 C 
ATOM     25  C   UNL     1       3.459  -0.238   7.062  0.00  0.00    -0.063 C 
ATOM     26  H   UNL     1       4.761  -1.652   6.383  0.00  0.00    -0.080 HD
BRANCH  24  27
ATOM     27  C   UNL     1       4.074   2.091   7.657  0.00  0.00    +0.308 C 
ATOM     28  O   UNL     1       2.937   2.348   7.340  0.00  0.00    -0.251 OA
BRANCH  27  29
ATOM     29  O   UNL     1       4.889   3.068   8.086  0.00  0.00    -0.465 OA
BRANCH  29  30
ATOM     30  C   UNL     1       4.345   4.388   8.143  0.00  0.00    +0.229 C 
ATOM     31  C   UNL     1       5.413   5.358   8.651  0.00  0.00    +0.048 C 
ENDBRANCH  29  30
ENDBRANCH  27  29
ENDBRANCH  24  27
ENDBRANCH   1  20
TORSDOF 7
