REMARK  Name = ZINC09793405
REMARK  8 active torsions:
REMARK  status: ('A' for Active; 'I' for Inactive)
REMARK    1  A    between atoms: C_1  and  C_2
REMARK    2  A    between atoms: C_2  and  C_3
REMARK    3  A    between atoms: C_10  and  C_12
REMARK    4  A    between atoms: C_15  and  S_18
REMARK    5  A    between atoms: N_16  and  C_17
REMARK    6  A    between atoms: S_18  and  C_19
REMARK    7  A    between atoms: C_19  and  C_20
REMARK    8  A    between atoms: C_20  and  C_22
REMARK                            x       y       z     vdW  Elec       q    Type
REMARK                         _______ _______ _______ _____ _____    ______ ____
ROOT
ATOM      1  C   UNL     1       0.962   0.411  -4.657  0.00  0.00    +0.171 A 
ATOM      2  N   UNL     1       1.690  -0.088  -3.682  0.00  0.00    -0.128 NA
ATOM      3  N   UNL     1       1.198   0.258  -2.546  0.00  0.00    -0.122 NA
ATOM      4  C   UNL     1       0.122   0.990  -2.724  0.00  0.00    +0.192 A 
ATOM      5  N   UNL     1      -0.065   1.117  -4.072  0.00  0.00    -0.305 N 
ATOM      6  C   UNL     1      -1.135   1.851  -4.752  0.00  0.00    +0.153 C 
ENDROOT
BRANCH   1  13
ATOM      7  C   UNL     1       3.090  -1.163 -10.327  0.00  0.00    -0.007 C 
ATOM      8  C   UNL     1       2.298  -0.021 -10.971  0.00  0.00    +0.009 C 
ATOM      9  C   UNL     1       0.947   0.108 -10.251  0.00  0.00    +0.043 C 
ATOM     10  C   UNL     1       1.197   0.099  -8.777  0.00  0.00    -0.006 A 
ATOM     11  C   UNL     1       2.338  -0.276  -8.132  0.00  0.00    -0.036 A 
ATOM     12  C   UNL     1       2.326  -0.194  -6.744  0.00  0.00    +0.023 A 
ATOM     13  C   UNL     1       1.201   0.246  -6.100  0.00  0.00    +0.057 A 
ATOM     14  S   UNL     1       0.095   0.560  -7.468  0.00  0.00    -0.090 S 
ATOM     15  C   UNL     1       3.549  -0.756  -8.926  0.00  0.00    +0.039 C 
BRANCH   7  17
ATOM     16  C   UNL     1       5.038  -2.700 -10.615  0.00  0.00    +0.004 C 
ATOM     17  C   UNL     1       4.314  -1.480 -11.188  0.00  0.00    +0.000 C 
ENDBRANCH   7  17
ENDBRANCH   1  13
BRANCH   4  18
ATOM     18  S   UNL     1      -0.888   1.685  -1.458  0.00  0.00    -0.078 S 
BRANCH  18  19
ATOM     19  C   UNL     1      -0.013   1.086   0.008  0.00  0.00    +0.157 C 
BRANCH  19  20
ATOM     20  C   UNL     1      -0.718   1.572   1.248  0.00  0.00    +0.173 C 
ATOM     21  O   UNL     1      -1.715   2.256   1.150  0.00  0.00    -0.291 OA
BRANCH  20  22
ATOM     22  C   UNL     1      -0.199   1.217   2.575  0.00  0.00    +0.020 A 
ATOM     23  C   UNL     1       0.948   0.422   2.690  0.00  0.00    +0.015 A 
ATOM     24  C   UNL     1       1.439   0.094   3.935  0.00  0.00    +0.048 A 
ATOM     25  C   UNL     1       0.791   0.540   5.078  0.00  0.00    +0.142 A 
ATOM     26  C   UNL     1      -0.358   1.329   4.971  0.00  0.00    +0.076 A 
ATOM     27  C   UNL     1      -0.853   1.667   3.729  0.00  0.00    +0.038 A 
ATOM     28  N   UNL     1      -0.998   1.769   6.139  0.00  0.00    -0.280 N 
ATOM     29  C   UNL     1      -0.335   1.699   7.314  0.00  0.00    +0.255 C 
ATOM     30  O   UNL     1      -0.879   2.046   8.342  0.00  0.00    -0.272 OA
ATOM     31  C   UNL     1       1.083   1.188   7.343  0.00  0.00    +0.325 C 
ATOM     32  O   UNL     1       1.265   0.218   6.309  0.00  0.00    -0.481 OA
ATOM     33  H   UNL     1      -1.903   2.117   6.104  0.00  0.00    +0.155 HD
ENDBRANCH  20  22
ENDBRANCH  19  20
ENDBRANCH  18  19
ENDBRANCH   4  18
TORSDOF 6
