REMARK  Name = ZINC18200282
REMARK  4 active torsions:
REMARK  status: ('A' for Active; 'I' for Inactive)
REMARK    1  A    between atoms: C_3  and  C_6
REMARK    2  A    between atoms: C_11  and  C_24
REMARK    3  A    between atoms: C_27  and  O_30
REMARK    4  A    between atoms: O_30  and  C_31
REMARK                            x       y       z     vdW  Elec       q    Type
REMARK                         _______ _______ _______ _____ _____    ______ ____
ROOT
ATOM      1  C   UNL     1       1.070   3.325  -0.676  0.00  0.00    +0.039 C 
ATOM      2  C   UNL     1      -0.046   4.063   0.067  0.00  0.00    +0.060 C 
ATOM      3  C   UNL     1      -1.306   3.232   0.045  0.00  0.00    +0.017 C 
ATOM      4  C   UNL     1      -1.249   1.884   0.018  0.00  0.00    +0.024 C 
ATOM      5  C   UNL     1      -2.509   1.056   0.020  0.00  0.00    +0.092 C 
ATOM      6  C   UNL     1      -3.695   1.874  -0.398  0.00  0.00    +0.067 A 
ATOM      7  C   UNL     1      -3.653   3.235  -0.365  0.00  0.00    +0.113 A 
ATOM      8  N   UNL     1      -4.758   3.958  -0.743  0.00  0.00    -0.295 N 
ATOM      9  H   UNL     1      -4.732   4.957  -0.718  0.00  0.00    +0.172 HD
ATOM     10  C   UNL     1      -5.877   3.328  -1.147  0.00  0.00    +0.328 A 
ATOM     11  O   UNL     1      -6.847   3.981  -1.477  0.00  0.00    -0.247 OA
ATOM     12  N   UNL     1      -5.936   1.984  -1.191  0.00  0.00    -0.275 N 
ATOM     13  H   UNL     1      -6.776   1.535  -1.496  0.00  0.00    +0.173 HD
ATOM     14  C   UNL     1      -4.875   1.238  -0.827  0.00  0.00    +0.260 A 
ATOM     15  O   UNL     1      -4.936   0.022  -0.869  0.00  0.00    -0.267 OA
ATOM     16  N   UNL     1      -2.512   3.880   0.044  0.00  0.00    -0.303 N 
ATOM     17  C   UNL     1      -0.014   1.211   0.009  0.00  0.00    +0.162 C 
ATOM     18  O   UNL     1       0.002  -0.004   0.002  0.00  0.00    -0.292 OA
ATOM     19  C   UNL     1       1.286   1.967   0.000  0.00  0.00    +0.088 C 
ATOM     20  H   UNL     1      -2.561   4.803   0.336  0.00  0.00    +0.153 HD
ENDROOT
BRANCH   5  21
ATOM     21  C   UNL     1      -2.747   0.512   1.405  0.00  0.00    -0.035 A 
ATOM     22  C   UNL     1      -2.944   1.380   2.463  0.00  0.00    +0.008 A 
ATOM     23  C   UNL     1      -3.169   0.884   3.733  0.00  0.00    +0.046 A 
ATOM     24  C   UNL     1      -3.184  -0.486   3.948  0.00  0.00    +0.130 A 
ATOM     25  C   UNL     1      -2.980  -1.355   2.886  0.00  0.00    +0.046 A 
ATOM     26  C   UNL     1      -2.762  -0.854   1.617  0.00  0.00    +0.008 A 
BRANCH  24  27
ATOM     27  O   UNL     1      -3.398  -0.977   5.197  0.00  0.00    -0.406 OA
BRANCH  27  28
ATOM     28  C   UNL     1      -3.600  -0.024   6.243  0.00  0.00    +0.575 C 
ATOM     29  F   UNL     1      -4.722   0.759   5.949  0.00  0.00    -0.133 F 
ATOM     30  F   UNL     1      -3.804  -0.695   7.453  0.00  0.00    -0.133 F 
ATOM     31  F   UNL     1      -2.473   0.798   6.349  0.00  0.00    -0.133 F 
ENDBRANCH  27  28
ENDBRANCH  24  27
ENDBRANCH   5  21
BRANCH   1  34
ATOM     32  C   UNL     1       4.232   5.343  -1.339  0.00  0.00    +0.008 A 
ATOM     33  C   UNL     1       3.088   4.624  -1.633  0.00  0.00    +0.011 A 
ATOM     34  C   UNL     1       2.342   4.129  -0.616  0.00  0.00    -0.006 A 
ATOM     35  S   UNL     1       3.255   4.683   0.815  0.00  0.00    -0.101 S 
ATOM     36  C   UNL     1       4.574   5.530  -0.041  0.00  0.00    +0.045 A 
ENDBRANCH   1  34
TORSDOF 4
