REMARK  Name = ZINC17123782
REMARK  8 active torsions:
REMARK  status: ('A' for Active; 'I' for Inactive)
REMARK    1  A    between atoms: C_1  and  C_2
REMARK    2  A    between atoms: C_3  and  C_14
REMARK    3  A    between atoms: N_5  and  C_7
REMARK    4  A    between atoms: C_14  and  C_16
REMARK    5  A    between atoms: C_14  and  C_25
REMARK    6  A    between atoms: C_20  and  N_22
REMARK    7  A    between atoms: C_27  and  C_38
REMARK    8  A    between atoms: N_29  and  C_32
REMARK                            x       y       z     vdW  Elec       q    Type
REMARK                         _______ _______ _______ _____ _____    ______ ____
ROOT
ATOM      1  C   UNL     1      -0.489   4.072  -0.737  0.00  0.00    +0.074 C 
ENDROOT
BRANCH   1   4
ATOM      2  C   UNL     1      -0.149   1.378   0.788  0.00  0.00    +0.065 C 
ATOM      3  C   UNL     1      -0.830   1.558  -0.544  0.00  0.00    +0.039 A 
ATOM      4  C   UNL     1      -0.976   2.725  -1.204  0.00  0.00    +0.047 A 
ATOM      5  C   UNL     1      -1.667   2.464  -2.410  0.00  0.00    +0.276 A 
ATOM      6  N   UNL     1      -1.925   1.141  -2.455  0.00  0.00    -0.219 N 
ATOM      7  N   UNL     1      -1.399   0.565  -1.291  0.00  0.00    -0.294 N 
ATOM      8  O   UNL     1      -1.974   3.285  -3.255  0.00  0.00    -0.266 OA
ATOM      9  H   UNL     1      -1.434  -0.375  -1.055  0.00  0.00    +0.187 HD
BRANCH   6  10
ATOM     10  C   UNL     1      -2.592   0.464  -3.481  0.00  0.00    +0.067 A 
ATOM     11  C   UNL     1      -3.054   1.163  -4.590  0.00  0.00    +0.028 A 
ATOM     12  C   UNL     1      -3.712   0.492  -5.601  0.00  0.00    +0.002 A 
ATOM     13  C   UNL     1      -3.912  -0.874  -5.512  0.00  0.00    +0.000 A 
ATOM     14  C   UNL     1      -3.454  -1.572  -4.410  0.00  0.00    +0.002 A 
ATOM     15  C   UNL     1      -2.789  -0.908  -3.397  0.00  0.00    +0.028 A 
ENDBRANCH   6  10
ENDBRANCH   1   4
BRANCH   1  16
ATOM     16  C   UNL     1       0.359   4.716  -1.835  0.00  0.00    +0.135 C 
ATOM     17  C   UNL     1       1.584   3.874  -2.126  0.00  0.00    +0.047 C 
ATOM     18  N   UNL     1       2.605   4.591  -1.860  0.00  0.00    -0.181 NA
ATOM     19  N   UNL     1       2.277   5.865  -1.407  0.00  0.00    -0.160 N 
ATOM     20  C   UNL     1       0.936   6.036  -1.360  0.00  0.00    +0.249 C 
ATOM     21  O   UNL     1       0.326   7.026  -1.013  0.00  0.00    -0.273 OA
ATOM     22  C   UNL     1       1.595   2.455  -2.633  0.00  0.00    +0.063 C 
BRANCH  19  23
ATOM     23  C   UNL     1       3.212   6.843  -1.048  0.00  0.00    +0.060 A 
ATOM     24  C   UNL     1       2.783   8.086  -0.601  0.00  0.00    +0.025 A 
ATOM     25  C   UNL     1       3.708   9.049  -0.247  0.00  0.00    +0.002 A 
ATOM     26  C   UNL     1       5.061   8.777  -0.340  0.00  0.00    +0.000 A 
ATOM     27  C   UNL     1       5.492   7.540  -0.785  0.00  0.00    +0.002 A 
ATOM     28  C   UNL     1       4.572   6.571  -1.134  0.00  0.00    +0.025 A 
ENDBRANCH  19  23
ENDBRANCH   1  16
BRANCH   1  29
ATOM     29  C   UNL     1      -1.671   4.956  -0.432  0.00  0.00    -0.036 A 
ATOM     30  C   UNL     1      -2.472   5.418  -1.459  0.00  0.00    +0.004 A 
ATOM     31  C   UNL     1      -3.556   6.228  -1.179  0.00  0.00    +0.003 A 
ATOM     32  C   UNL     1      -3.839   6.576   0.129  0.00  0.00    +0.033 A 
ATOM     33  C   UNL     1      -3.039   6.114   1.156  0.00  0.00    +0.126 A 
ATOM     34  C   UNL     1      -1.957   5.300   0.876  0.00  0.00    +0.037 A 
BRANCH  33  35
ATOM     35  N   UNL     1      -3.342   6.487   2.556  0.00  0.00    +0.056 N 
ATOM     36  O   UNL     1      -4.290   7.197   2.801  0.00  0.00    -0.126 OA
ATOM     37  O   UNL     1      -2.642   6.082   3.454  0.00  0.00    -0.126 OA
ENDBRANCH  33  35
ENDBRANCH   1  29
TORSDOF 6
