REMARK  Name = ZINC39652650
REMARK  10 active torsions:
REMARK  status: ('A' for Active; 'I' for Inactive)
REMARK    1  A    between atoms: C_1  and  C_2
REMARK    2  A    between atoms: C_2  and  O_3
REMARK    3  A    between atoms: O_3  and  C_4
REMARK    4  A    between atoms: C_9  and  C_10
REMARK    5  A    between atoms: C_10  and  C_11
REMARK    6  A    between atoms: C_11  and  N_12
REMARK    7  A    between atoms: C_13  and  C_15
REMARK    8  A    between atoms: C_26  and  C_28
REMARK    9  A    between atoms: C_31  and  O_34
REMARK   10  A    between atoms: O_34  and  C_35
REMARK                            x       y       z     vdW  Elec       q    Type
REMARK                         _______ _______ _______ _____ _____    ______ ____
ROOT
ATOM      1  C   UNL     1      -7.270   0.517  -2.715  0.00  0.00    +0.100 C 
ATOM      2  C   UNL     1      -8.606   0.031  -2.111  0.00  0.00    +0.121 C 
ATOM      3  N   UNL     1      -9.649   0.664  -2.953  0.00  0.00    -0.296 N 
ATOM      4  C   UNL     1      -9.108   0.585  -4.331  0.00  0.00    +0.115 C 
ATOM      5  C   UNL     1      -7.603   0.879  -4.172  0.00  0.00    -0.004 C 
ATOM      6  C   UNL     1      -6.793   0.011  -5.131  0.00  0.00    -0.010 C 
ATOM      7  C   UNL     1      -7.098   0.429  -6.572  0.00  0.00    -0.082 C 
ATOM      8  N   UNL     1      -6.757   1.845  -6.756  0.00  0.00    +0.379 N 
ATOM      9  C   UNL     1      -7.606   2.679  -5.897  0.00  0.00    -0.082 C 
ATOM     10  C   UNL     1      -7.323   2.357  -4.427  0.00  0.00    -0.010 C 
ATOM     11  C   UNL     1     -10.824   1.191  -2.556  0.00  0.00    +0.247 C 
ATOM     12  O   UNL     1     -11.073   1.298  -1.370  0.00  0.00    -0.270 OA
ATOM     13  H   UNL     1      -5.789   1.991  -6.512  0.00  0.00    -0.086 HD
ATOM     14  H   UNL     1      -6.901   2.102  -7.721  0.00  0.00    -0.086 HD
ENDROOT
BRANCH  11  15
ATOM     15  C   UNL     1     -11.809   1.640  -3.560  0.00  0.00    +0.037 A 
ATOM     16  C   UNL     1     -11.751   1.147  -4.866  0.00  0.00    +0.016 A 
ATOM     17  C   UNL     1     -12.672   1.567  -5.800  0.00  0.00    +0.047 A 
ATOM     18  C   UNL     1     -13.658   2.481  -5.444  0.00  0.00    +0.130 A 
ATOM     19  C   UNL     1     -13.718   2.973  -4.146  0.00  0.00    +0.047 A 
ATOM     20  C   UNL     1     -12.805   2.553  -3.205  0.00  0.00    +0.016 A 
BRANCH  18  21
ATOM     21  O   UNL     1     -14.563   2.893  -6.367  0.00  0.00    -0.406 OA
BRANCH  21  22
ATOM     22  C   UNL     1     -15.549   3.833  -5.934  0.00  0.00    +0.575 C 
ATOM     23  F   UNL     1     -14.917   4.996  -5.481  0.00  0.00    -0.133 F 
ATOM     24  F   UNL     1     -16.394   4.148  -7.003  0.00  0.00    -0.133 F 
ATOM     25  F   UNL     1     -16.300   3.275  -4.894  0.00  0.00    -0.133 F 
ENDBRANCH  21  22
ENDBRANCH  18  21
ENDBRANCH  11  15
BRANCH   1  27
ATOM     26  N   UNL     1      -4.934  -0.282  -2.555  0.00  0.00    -0.315 N 
ATOM     27  C   UNL     1      -6.242  -0.585  -2.670  0.00  0.00    +0.218 C 
ATOM     28  O   UNL     1      -6.593  -1.744  -2.736  0.00  0.00    -0.275 OA
ATOM     29  H   UNL     1      -4.654   0.645  -2.502  0.00  0.00    +0.149 HD
BRANCH  26  30
ATOM     30  C   UNL     1      -3.936  -1.353  -2.511  0.00  0.00    +0.109 C 
BRANCH  30  31
ATOM     31  C   UNL     1      -2.539  -0.743  -2.380  0.00  0.00    +0.057 C 
BRANCH  31  37
ATOM     32  C   UNL     1      -1.019  -2.384  -3.514  0.00  0.00    +0.124 A 
ATOM     33  C   UNL     1      -0.070  -3.395  -3.469  0.00  0.00    +0.046 A 
ATOM     34  C   UNL     1       0.379  -3.865  -2.250  0.00  0.00    +0.004 A 
ATOM     35  C   UNL     1      -0.117  -3.329  -1.075  0.00  0.00    +0.000 A 
ATOM     36  C   UNL     1      -1.063  -2.322  -1.118  0.00  0.00    +0.007 A 
ATOM     37  C   UNL     1      -1.512  -1.845  -2.334  0.00  0.00    -0.004 A 
BRANCH  32  38
ATOM     38  O   UNL     1      -1.462  -1.919  -4.711  0.00  0.00    -0.492 OA
BRANCH  38  40
ATOM     39  C   UNL     1      -1.526  -1.873  -7.127  0.00  0.00    +0.048 C 
ATOM     40  C   UNL     1      -0.912  -2.521  -5.885  0.00  0.00    +0.225 C 
ENDBRANCH  38  40
ENDBRANCH  32  38
ENDBRANCH  31  37
ENDBRANCH  30  31
ENDBRANCH  26  30
ENDBRANCH   1  27
TORSDOF 9
