REMARK  Name = ZINC09292489
REMARK  6 active torsions:
REMARK  status: ('A' for Active; 'I' for Inactive)
REMARK    1  A    between atoms: C_1  and  O_2
REMARK    2  A    between atoms: O_2  and  C_3
REMARK    3  A    between atoms: C_6  and  C_11
REMARK    4  A    between atoms: C_8  and  O_9
REMARK    5  A    between atoms: O_9  and  C_10
REMARK    6  A    between atoms: C_14  and  C_26
REMARK                            x       y       z     vdW  Elec       q    Type
REMARK                         _______ _______ _______ _____ _____    ______ ____
ROOT
ATOM      1  C   UNL     1       2.507  -2.501  -4.386  0.00  0.00    +0.122 C 
ATOM      2  C   UNL     1       3.977  -2.069  -4.451  0.00  0.00    +0.057 C 
ATOM      3  C   UNL     1       4.592  -2.526  -5.778  0.00  0.00    +0.106 C 
ATOM      4  N   UNL     1       3.889  -1.846  -6.881  0.00  0.00    -0.309 N 
ATOM      5  C   UNL     1       2.506  -1.790  -6.790  0.00  0.00    +0.175 A 
ATOM      6  N   UNL     1       1.837  -2.099  -5.626  0.00  0.00    -0.306 N 
ATOM      7  C   UNL     1       0.500  -1.954  -5.876  0.00  0.00    +0.069 A 
ATOM      8  C   UNL     1      -0.631  -2.128  -5.090  0.00  0.00    +0.028 A 
ATOM      9  C   UNL     1      -1.858  -1.885  -5.686  0.00  0.00    +0.002 A 
ATOM     10  C   UNL     1      -1.965  -1.485  -7.007  0.00  0.00    +0.002 A 
ATOM     11  C   UNL     1      -0.854  -1.305  -7.811  0.00  0.00    +0.028 A 
ATOM     12  C   UNL     1       0.396  -1.545  -7.229  0.00  0.00    +0.065 A 
ATOM     13  N   UNL     1       1.652  -1.462  -7.723  0.00  0.00    -0.327 N 
ATOM     14  H   UNL     1       4.367  -1.457  -7.630  0.00  0.00    +0.149 HD
ATOM     15  H   UNL     1       1.883  -1.203  -8.629  0.00  0.00    +0.169 HD
ENDROOT
BRANCH   3  16
ATOM     16  C   UNL     1       6.055  -2.166  -5.808  0.00  0.00    -0.027 A 
ATOM     17  C   UNL     1       6.443  -0.873  -6.109  0.00  0.00    +0.006 A 
ATOM     18  C   UNL     1       7.784  -0.542  -6.136  0.00  0.00    +0.015 A 
ATOM     19  C   UNL     1       8.740  -1.505  -5.862  0.00  0.00    +0.018 A 
ATOM     20  C   UNL     1       8.351  -2.798  -5.561  0.00  0.00    +0.015 A 
ATOM     21  C   UNL     1       7.009  -3.127  -5.529  0.00  0.00    +0.006 A 
ATOM     22 BR   UNL     1      10.575  -1.053  -5.899  0.00  0.00    -0.050 Br
ENDBRANCH   3  16
BRANCH   1  26
ATOM     23  C   UNL     1       0.606  -0.608  -1.056  0.00  0.00    +0.162 A 
ATOM     24  C   UNL     1       1.173   0.159  -2.062  0.00  0.00    +0.050 A 
ATOM     25  C   UNL     1       1.787  -0.456  -3.137  0.00  0.00    +0.009 A 
ATOM     26  C   UNL     1       1.837  -1.836  -3.212  0.00  0.00    -0.021 A 
ATOM     27  C   UNL     1       1.273  -2.606  -2.212  0.00  0.00    +0.055 A 
ATOM     28  C   UNL     1       0.662  -1.996  -1.129  0.00  0.00    +0.162 A 
BRANCH  23  30
ATOM     29  C   UNL     1      -0.017   1.425   0.010  0.00  0.00    +0.277 C 
ATOM     30  O   UNL     1       0.002  -0.004   0.002  0.00  0.00    -0.491 OA
ENDBRANCH  23  30
BRANCH  28  31
ATOM     31  O   UNL     1       0.112  -2.753  -0.142  0.00  0.00    -0.491 OA
ATOM     32  C   UNL     1       0.206  -4.171  -0.283  0.00  0.00    +0.277 C 
ENDBRANCH  28  31
ENDBRANCH   1  26
TORSDOF 4
