REMARK  Name = ZINC40123950
REMARK  7 active torsions:
REMARK  status: ('A' for Active; 'I' for Inactive)
REMARK    1  A    between atoms: C_1  and  C_2
REMARK    2  A    between atoms: C_4  and  C_12
REMARK    3  A    between atoms: C_7  and  O_8
REMARK    4  A    between atoms: O_8  and  C_9
REMARK    5  A    between atoms: C_9  and  C_10
REMARK    6  A    between atoms: C_12  and  C_14
REMARK    7  A    between atoms: C_19  and  C_21
REMARK                            x       y       z     vdW  Elec       q    Type
REMARK                         _______ _______ _______ _____ _____    ______ ____
ROOT
ATOM      1  C   UNL     1       0.346  -4.491  -2.581  0.00  0.00    +0.076 C 
ATOM      2  C   UNL     1       1.300  -5.388  -2.243  0.00  0.00    +0.249 C 
ATOM      3  C   UNL     1       0.723  -6.748  -2.279  0.00  0.00    +0.285 C 
ATOM      4  O   UNL     1       1.329  -7.770  -2.025  0.00  0.00    -0.267 OA
ATOM      5  N   UNL     1      -0.573  -6.688  -2.636  0.00  0.00    -0.298 N 
ATOM      6  C   UNL     1      -0.917  -5.277  -2.847  0.00  0.00    +0.143 C 
ATOM      7  O   UNL     1       2.580  -5.088  -1.922  0.00  0.00    -0.282 OA
ATOM      8  H   UNL     1      -1.174  -7.442  -2.732  0.00  0.00    +0.150 HD
ENDROOT
BRANCH   6   9
ATOM      9  C   UNL     1      -1.370  -5.064  -4.268  0.00  0.00    -0.004 A 
ATOM     10  C   UNL     1      -0.974  -5.943  -5.258  0.00  0.00    +0.008 A 
ATOM     11  C   UNL     1      -1.389  -5.749  -6.562  0.00  0.00    +0.020 A 
ATOM     12  C   UNL     1      -2.201  -4.674  -6.877  0.00  0.00    +0.042 A 
ATOM     13  C   UNL     1      -2.598  -3.794  -5.887  0.00  0.00    +0.040 A 
ATOM     14  C   UNL     1      -2.187  -3.992  -4.581  0.00  0.00    +0.048 A 
ATOM     15 CL   UNL     1      -2.689  -2.891  -3.336  0.00  0.00    -0.083 Cl
ATOM     16 CL   UNL     1      -2.722  -4.430  -8.515  0.00  0.00    -0.083 Cl
ENDBRANCH   6   9
BRANCH   1  17
ATOM     17  C   UNL     1       0.504  -3.035  -2.666  0.00  0.00    +0.195 C 
ATOM     18  O   UNL     1       0.601  -2.497  -3.753  0.00  0.00    -0.287 OA
BRANCH  17  22
ATOM     19  C   UNL     1       1.144   1.376  -0.430  0.00  0.00    +0.047 C 
ATOM     20  C   UNL     1       0.855  -0.101  -0.354  0.00  0.00    -0.008 A 
ATOM     21  C   UNL     1       0.816  -0.854  -1.506  0.00  0.00    +0.018 A 
ATOM     22  C   UNL     1       0.547  -2.224  -1.434  0.00  0.00    +0.023 A 
ATOM     23  C   UNL     1       0.318  -2.824  -0.191  0.00  0.00    +0.015 A 
ATOM     24  C   UNL     1       0.359  -2.063   0.955  0.00  0.00    +0.046 A 
ATOM     25  C   UNL     1       0.632  -0.702   0.880  0.00  0.00    +0.124 A 
BRANCH  25  26
ATOM     26  O   UNL     1       0.676   0.043   2.013  0.00  0.00    -0.488 OA
BRANCH  26  27
ATOM     27  C   UNL     1       0.439  -0.637   3.247  0.00  0.00    +0.256 C 
BRANCH  27  28
ATOM     28  C   UNL     1       0.527   0.344   4.387  0.00  0.00    +0.006 C 
ATOM     29  C   UNL     1      -0.377   0.330   5.335  0.00  0.00    +0.007 C 
ENDBRANCH  27  28
ENDBRANCH  26  27
ENDBRANCH  25  26
ENDBRANCH  17  22
ENDBRANCH   1  17
TORSDOF 6
