REMARK  Name = ZINC43365486
REMARK  8 active torsions:
REMARK  status: ('A' for Active; 'I' for Inactive)
REMARK    1  A    between atoms: C_1  and  C_2
REMARK    2  A    between atoms: C_5  and  C_7
REMARK    3  A    between atoms: C_7  and  C_9
REMARK    4  A    between atoms: C_7  and  N_13
REMARK    5  A    between atoms: C_9  and  C_11
REMARK    6  A    between atoms: C_9  and  N_12
REMARK    7  A    between atoms: C_19  and  C_23
REMARK    8  A    between atoms: C_20  and  C_22
REMARK                            x       y       z     vdW  Elec       q    Type
REMARK                         _______ _______ _______ _____ _____    ______ ____
ROOT
ATOM      1  C   UNL     1       1.642  -3.330  -0.112  0.00  0.00    +0.140 C 
ENDROOT
BRANCH   1   2
ATOM      2  N   UNL     1       2.511  -3.329   1.068  0.00  0.00    -0.321 N 
ATOM      3  C   UNL     1       3.282  -2.295   1.500  0.00  0.00    +0.201 A 
ATOM      4  N   UNL     1       3.925  -2.636   2.578  0.00  0.00    -0.236 NA
ATOM      5  C   UNL     1       3.610  -3.914   2.912  0.00  0.00    +0.089 A 
ATOM      6  C   UNL     1       2.694  -4.374   1.950  0.00  0.00    +0.069 A 
ATOM      7  C   UNL     1       2.187  -5.663   2.041  0.00  0.00    +0.031 A 
ATOM      8  C   UNL     1       2.584  -6.483   3.076  0.00  0.00    -0.045 A 
ATOM      9  C   UNL     1       3.486  -6.027   4.027  0.00  0.00    -0.045 A 
ATOM     10  C   UNL     1       4.000  -4.763   3.951  0.00  0.00    +0.033 A 
ATOM     11  C   UNL     1       3.907  -6.937   5.152  0.00  0.00    +0.044 C 
ATOM     12  C   UNL     1       2.035  -7.882   3.176  0.00  0.00    +0.044 C 
ENDBRANCH   1   2
BRANCH   1  17
ATOM     13  C   UNL     1      -0.770   1.035   0.646  0.00  0.00    +0.086 C 
ATOM     14  C   UNL     1      -0.518  -0.432   0.411  0.00  0.00    +0.102 A 
ATOM     15  C   UNL     1      -1.461  -1.385   0.299  0.00  0.00    +0.045 A 
ATOM     16  C   UNL     1      -0.785  -2.608   0.087  0.00  0.00    +0.047 A 
ATOM     17  C   UNL     1       0.531  -2.330   0.082  0.00  0.00    +0.126 A 
ATOM     18  O   UNL     1       0.687  -1.010   0.273  0.00  0.00    -0.463 OA
ENDBRANCH   1  17
BRANCH   1  19
ATOM     19  C   UNL     1       2.460  -2.951  -1.348  0.00  0.00    -0.047 C 
ATOM     20  C   UNL     1       3.631  -3.923  -1.502  0.00  0.00    -0.012 C 
BRANCH  19  21
ATOM     21  N   UNL     1       1.605  -3.021  -2.541  0.00  0.00    +0.381 N 
ATOM     22  H   UNL     1       0.833  -2.380  -2.439  0.00  0.00    -0.090 HD
ATOM     23  H   UNL     1       2.145  -2.771  -3.356  0.00  0.00    -0.090 HD
ATOM     24  H   UNL     1       1.251  -3.960  -2.646  0.00  0.00    -0.090 HD
ENDBRANCH  19  21
ENDBRANCH   1  19
TORSDOF 4
