REMARK  Name = ZINC49031364
REMARK  8 active torsions:
REMARK  status: ('A' for Active; 'I' for Inactive)
REMARK    1  A    between atoms: C_1  and  C_2
REMARK    2  A    between atoms: C_2  and  S_3
REMARK    3  A    between atoms: S_3  and  C_4
REMARK    4  A    between atoms: C_9  and  C_10
REMARK    5  A    between atoms: N_15  and  C_18
REMARK    6  A    between atoms: C_18  and  C_19
REMARK    7  A    between atoms: C_19  and  C_21
REMARK    8  A    between atoms: C_19  and  O_26
REMARK                            x       y       z     vdW  Elec       q    Type
REMARK                         _______ _______ _______ _____ _____    ______ ____
ROOT
ATOM      1  C   UNL     1      -3.991  -2.633   0.026  0.00  0.00    +0.248 C 
ATOM      2  O   UNL     1      -2.881  -3.115  -0.093  0.00  0.00    -0.270 OA
ATOM      3  N   UNL     1      -5.067  -3.438   0.134  0.00  0.00    -0.295 N 
ATOM      4  C   UNL     1      -4.911  -4.896   0.242  0.00  0.00    +0.123 C 
ATOM      5  C   UNL     1      -5.811  -5.561  -0.805  0.00  0.00    +0.103 C 
ATOM      6  N   UNL     1      -7.186  -5.070  -0.647  0.00  0.00    -0.297 NA
ATOM      7  C   UNL     1      -7.268  -3.625  -0.898  0.00  0.00    +0.103 C 
ATOM      8  C   UNL     1      -6.428  -2.880   0.152  0.00  0.00    +0.123 C 
ENDROOT
BRANCH   1  14
ATOM      9  C   UNL     1      -3.628  -0.378  -0.978  0.00  0.00    +0.020 A 
ATOM     10  C   UNL     1      -3.799   1.002  -0.943  0.00  0.00    +0.015 A 
ATOM     11  C   UNL     1      -4.483   1.587   0.102  0.00  0.00    +0.001 A 
ATOM     12  C   UNL     1      -5.004   0.808   1.125  0.00  0.00    +0.001 A 
ATOM     13  C   UNL     1      -4.844  -0.560   1.108  0.00  0.00    +0.014 A 
ATOM     14  C   UNL     1      -4.160  -1.169   0.053  0.00  0.00    +0.050 A 
BRANCH   9  15
ATOM     15  S   UNL     1      -2.755  -1.128  -2.311  0.00  0.00    -0.125 S 
BRANCH  15  17
ATOM     16  C   UNL     1      -1.498  -0.249  -4.575  0.00  0.00    +0.015 C 
ATOM     17  C   UNL     1      -2.274   0.269  -3.363  0.00  0.00    +0.071 C 
ENDBRANCH  15  17
ENDBRANCH   9  15
ENDBRANCH   1  14
BRANCH   6  18
ATOM     18  C   UNL     1      -8.112  -5.808  -1.516  0.00  0.00    +0.121 C 
BRANCH  18  19
ATOM     19  C   UNL     1      -9.553  -5.449  -1.149  0.00  0.00    +0.165 C 
BRANCH  19  20
ATOM     20  C   UNL     1     -10.502  -6.206  -2.041  0.00  0.00    +0.019 A 
ATOM     21  C   UNL     1     -11.087  -5.809  -3.198  0.00  0.00    +0.014 A 
ATOM     22  C   UNL     1     -11.933  -6.682  -3.855  0.00  0.00    +0.008 A 
ATOM     23  C   UNL     1     -12.154  -7.909  -3.324  0.00  0.00    +0.045 A 
ATOM     24  S   UNL     1     -11.144  -7.861  -1.852  0.00  0.00    -0.099 S 
ENDBRANCH  19  20
BRANCH  19  25
ATOM     25  O   UNL     1      -9.799  -5.798   0.214  0.00  0.00    -0.385 OA
ATOM     26  H   UNL     1      -9.681  -6.739   0.406  0.00  0.00    +0.210 HD
ENDBRANCH  19  25
ENDBRANCH  18  19
ENDBRANCH   6  18
TORSDOF 7
