REMARK  Name = ZINC09446230
REMARK  4 active torsions:
REMARK  status: ('A' for Active; 'I' for Inactive)
REMARK    1  A    between atoms: C_3  and  C_6
REMARK    2  A    between atoms: C_13  and  C_14
REMARK    3  A    between atoms: C_13  and  N_50
REMARK    4  A    between atoms: C_20  and  C_25
REMARK                            x       y       z     vdW  Elec       q    Type
REMARK                         _______ _______ _______ _____ _____    ______ ____
ROOT
ATOM      1  C   UNL     1      -1.405   3.165   0.130  0.00  0.00    +0.094 A 
ATOM      2  N   UNL     1      -1.419   1.808   0.132  0.00  0.00    -0.312 N 
ATOM      3  H   UNL     1      -2.268   1.341   0.117  0.00  0.00    +0.170 HD
ATOM      4  C   UNL     1      -0.276   1.097   0.159  0.00  0.00    +0.260 A 
ATOM      5  O   UNL     1      -0.304  -0.121   0.164  0.00  0.00    -0.267 OA
ATOM      6  C   UNL     1       0.974   1.795   0.175  0.00  0.00    +0.080 A 
ATOM      7  C   UNL     1       2.330   1.258   0.198  0.00  0.00    +0.004 A 
ATOM      8  C   UNL     1       3.373   2.123   0.210  0.00  0.00    +0.056 A 
ATOM      9  S   UNL     1       2.583   3.722   0.190  0.00  0.00    -0.076 S 
ATOM     10  C   UNL     1       0.889   3.197   0.166  0.00  0.00    +0.116 A 
ATOM     11  N   UNL     1      -0.281   3.830   0.144  0.00  0.00    -0.229 NA
ENDROOT
BRANCH   7  12
ATOM     12  C   UNL     1       2.563  -0.205   0.210  0.00  0.00    -0.017 A 
ATOM     13  C   UNL     1       1.897  -1.012   1.132  0.00  0.00    +0.009 A 
ATOM     14  C   UNL     1       2.114  -2.375   1.135  0.00  0.00    +0.016 A 
ATOM     15  C   UNL     1       2.999  -2.940   0.233  0.00  0.00    +0.018 A 
ATOM     16  C   UNL     1       3.666  -2.143  -0.682  0.00  0.00    +0.016 A 
ATOM     17  C   UNL     1       3.452  -0.779  -0.697  0.00  0.00    +0.009 A 
ATOM     18 BR   UNL     1       3.297  -4.807   0.248  0.00  0.00    -0.050 Br
ENDBRANCH   7  12
BRANCH   1  19
ATOM     19  C   UNL     1      -2.711   3.919   0.106  0.00  0.00    -0.003 C 
BRANCH  19  27
ATOM     20  C   UNL     1      -2.910   9.151   1.527  0.00  0.00    +0.282 C 
ATOM     21  O   UNL     1      -3.837   9.836   1.137  0.00  0.00    -0.267 OA
ATOM     22  N   UNL     1      -2.552   8.048   0.841  0.00  0.00    -0.299 N 
ATOM     23  C   UNL     1      -3.320   7.607  -0.334  0.00  0.00    +0.089 C 
ATOM     24  C   UNL     1      -3.670   6.126  -0.159  0.00  0.00    -0.059 C 
ATOM     25  C   UNL     1      -1.811   5.784   1.360  0.00  0.00    -0.059 C 
ATOM     26  C   UNL     1      -1.384   7.251   1.248  0.00  0.00    +0.089 C 
ATOM     27  N   UNL     1      -2.423   5.368   0.080  0.00  0.00    +0.386 N 
ATOM     28  H   UNL     1      -1.764   5.563  -0.683  0.00  0.00    -0.081 HD
BRANCH  20  31
ATOM     29  C   UNL     1      -1.552  10.537   4.620  0.00  0.00    +0.042 A 
ATOM     30  C   UNL     1      -2.517  10.535   3.600  0.00  0.00    +0.054 A 
ATOM     31  C   UNL     1      -2.182   9.526   2.744  0.00  0.00    +0.189 A 
ATOM     32  O   UNL     1      -1.067   8.931   3.216  0.00  0.00    -0.458 OA
ATOM     33  C   UNL     1      -0.681   9.541   4.344  0.00  0.00    +0.196 A 
ENDBRANCH  20  31
ENDBRANCH  19  27
ENDBRANCH   1  19
TORSDOF 4
