REMARK  Name = ZINC19419216
REMARK  5 active torsions:
REMARK  status: ('A' for Active; 'I' for Inactive)
REMARK    1  A    between atoms: C_3  and  N_25
REMARK    2  A    between atoms: C_6  and  C_7
REMARK    3  A    between atoms: C_11  and  C_12
REMARK    4  A    between atoms: C_16  and  N_18
REMARK    5  A    between atoms: C_26  and  C_28
REMARK                            x       y       z     vdW  Elec       q    Type
REMARK                         _______ _______ _______ _____ _____    ______ ____
ROOT
ATOM      1  C   UNL     1      -1.121  -0.656   0.233  0.00  0.00    +0.296 C 
ATOM      2  N   UNL     1      -1.042  -2.015  -0.316  0.00  0.00    -0.300 N 
ATOM      3  C   UNL     1      -1.413  -2.884   0.717  0.00  0.00    +0.116 C 
ATOM      4  C   UNL     1      -1.477  -4.234   0.642  0.00  0.00    +0.038 C 
ATOM      5  C   UNL     1      -1.719  -2.066   1.897  0.00  0.00    +0.355 C 
ATOM      6  O   UNL     1      -2.075  -2.494   2.978  0.00  0.00    -0.243 OA
ATOM      7  O   UNL     1      -1.543  -0.764   1.593  0.00  0.00    -0.434 OA
ATOM      8  H   UNL     1      -0.784  -2.262  -1.218  0.00  0.00    +0.150 HD
ENDROOT
BRANCH   4   9
ATOM      9  C   UNL     1      -2.045  -5.006   1.758  0.00  0.00    -0.021 A 
ATOM     10  C   UNL     1      -3.196  -4.554   2.412  0.00  0.00    +0.009 A 
ATOM     11  C   UNL     1      -3.722  -5.284   3.456  0.00  0.00    +0.018 A 
ATOM     12  C   UNL     1      -3.114  -6.462   3.858  0.00  0.00    +0.048 A 
ATOM     13  C   UNL     1      -1.974  -6.915   3.216  0.00  0.00    +0.141 A 
ATOM     14  C   UNL     1      -1.439  -6.199   2.166  0.00  0.00    +0.041 A 
ATOM     15 BR   UNL     1      -3.844  -7.455   5.293  0.00  0.00    -0.048 Br
BRANCH  13  16
ATOM     16  N   UNL     1      -1.332  -8.175   3.653  0.00  0.00    +0.058 N 
ATOM     17  O   UNL     1      -0.337  -8.573   3.093  0.00  0.00    -0.126 OA
ATOM     18  O   UNL     1      -1.803  -8.807   4.570  0.00  0.00    -0.126 OA
ENDBRANCH  13  16
ENDBRANCH   4   9
BRANCH   1  24
ATOM     19  C   UNL     1       0.329   1.373   0.027  0.00  0.00    +0.011 A 
ATOM     20  C   UNL     1       1.569   1.979  -0.032  0.00  0.00    +0.024 A 
ATOM     21  C   UNL     1       2.721   1.208   0.050  0.00  0.00    +0.034 A 
ATOM     22  C   UNL     1       2.622  -0.170   0.192  0.00  0.00    +0.024 A 
ATOM     23  C   UNL     1       1.379  -0.769   0.251  0.00  0.00    +0.011 A 
ATOM     24  C   UNL     1       0.234   0.001   0.168  0.00  0.00    +0.011 A 
BRANCH  21  25
ATOM     25  N   UNL     1       3.978   1.818  -0.009  0.00  0.00    -0.279 N 
ATOM     26  C   UNL     1       4.162   3.037   0.534  0.00  0.00    +0.287 C 
ATOM     27  O   UNL     1       3.217   3.644   1.000  0.00  0.00    -0.266 OA
ATOM     28  H   UNL     1       4.717   1.363  -0.442  0.00  0.00    +0.155 HD
BRANCH  26  29
ATOM     29  C   UNL     1       5.512   3.636   0.564  0.00  0.00    +0.239 A 
ATOM     30  N   UNL     1       5.836   4.817   1.063  0.00  0.00    -0.209 NA
ATOM     31  C   UNL     1       7.145   4.973   0.891  0.00  0.00    +0.247 A 
ATOM     32  N   UNL     1       7.616   3.905   0.297  0.00  0.00    -0.136 NA
ATOM     33  N   UNL     1       6.649   3.078   0.092  0.00  0.00    -0.123 NA
ENDBRANCH  26  29
ENDBRANCH  21  25
ENDBRANCH   1  24
TORSDOF 5
