REMARK  Name = ZINC15859990
REMARK  7 active torsions:
REMARK  status: ('A' for Active; 'I' for Inactive)
REMARK    1  A    between atoms: C_1  and  C_2
REMARK    2  A    between atoms: C_7  and  C_9
REMARK    3  A    between atoms: C_7  and  C_25
REMARK    4  A    between atoms: C_7  and  N_53
REMARK    5  A    between atoms: C_9  and  N_10
REMARK    6  A    between atoms: C_11  and  C_13
REMARK    7  A    between atoms: C_15  and  C_18
REMARK                            x       y       z     vdW  Elec       q    Type
REMARK                         _______ _______ _______ _____ _____    ______ ____
ROOT
ATOM      1  N   UNL     1       5.660  -0.457   1.255  0.00  0.00    -0.311 N 
ATOM      2  C   UNL     1       5.382   0.841   1.490  0.00  0.00    +0.266 C 
ATOM      3  O   UNL     1       4.972   1.546   0.590  0.00  0.00    -0.268 OA
ATOM      4  H   UNL     1       5.988  -1.020   1.974  0.00  0.00    +0.149 HD
ENDROOT
BRANCH   2   5
ATOM      5  C   UNL     1       5.577   1.407   2.847  0.00  0.00    +0.168 A 
ATOM      6  C   UNL     1       5.331   2.745   3.253  0.00  0.00    +0.086 A 
ATOM      7  C   UNL     1       5.665   2.749   4.580  0.00  0.00    +0.168 A 
ATOM      8  O   UNL     1       6.064   1.499   4.874  0.00  0.00    -0.354 OA
ATOM      9  N   UNL     1       6.010   0.773   3.909  0.00  0.00    -0.073 NA
BRANCH   7  10
ATOM     10  C   UNL     1       5.595   3.898   5.507  0.00  0.00    +0.020 A 
ATOM     11  C   UNL     1       5.162   5.143   5.048  0.00  0.00    +0.013 A 
ATOM     12  C   UNL     1       5.093   6.210   5.920  0.00  0.00    +0.021 A 
ATOM     13  C   UNL     1       5.463   6.051   7.244  0.00  0.00    +0.041 A 
ATOM     14  C   UNL     1       5.899   4.819   7.704  0.00  0.00    +0.021 A 
ATOM     15  C   UNL     1       5.966   3.744   6.843  0.00  0.00    +0.013 A 
ATOM     16 CL   UNL     1       5.382   7.400   8.333  0.00  0.00    -0.084 Cl
ENDBRANCH   7  10
ENDBRANCH   2   5
BRANCH   1  17
ATOM     17  C   UNL     1       5.468  -1.017  -0.085  0.00  0.00    +0.094 C 
BRANCH  17  18
ATOM     18  C   UNL     1       5.976  -2.460  -0.112  0.00  0.00    -0.013 C 
BRANCH  18  25
ATOM     19  C   UNL     1       3.071  -5.957   3.353  0.00  0.00    +0.007 C 
ATOM     20  C   UNL     1       3.652  -5.278   2.111  0.00  0.00    -0.018 C 
ATOM     21  C   UNL     1       5.181  -5.364   2.149  0.00  0.00    -0.015 C 
ATOM     22  C   UNL     1       5.758  -4.631   0.936  0.00  0.00    -0.078 C 
ATOM     23  C   UNL     1       3.866  -3.119   0.876  0.00  0.00    -0.078 C 
ATOM     24  C   UNL     1       3.232  -3.806   2.088  0.00  0.00    -0.015 C 
ATOM     25  N   UNL     1       5.338  -3.215   0.986  0.00  0.00    +0.386 N 
ATOM     26  H   UNL     1       5.632  -2.812   1.883  0.00  0.00    -0.081 HD
ENDBRANCH  18  25
BRANCH  18  27
ATOM     27  C   UNL     1       7.468  -2.471   0.093  0.00  0.00    -0.022 A 
ATOM     28  C   UNL     1       8.456  -2.591  -0.828  0.00  0.00    +0.009 A 
ATOM     29  C   UNL     1       9.772  -2.574  -0.406  0.00  0.00    +0.008 A 
ATOM     30  C   UNL     1      10.036  -2.439   0.916  0.00  0.00    +0.045 A 
ATOM     31  S   UNL     1       8.396  -2.323   1.611  0.00  0.00    -0.103 S 
ENDBRANCH  18  27
ENDBRANCH  17  18
ENDBRANCH   1  17
TORSDOF 6
