REMARK  Name = ZINC32810066
REMARK  6 active torsions:
REMARK  status: ('A' for Active; 'I' for Inactive)
REMARK    1  A    between atoms: C_4  and  O_28
REMARK    2  A    between atoms: C_5  and  C_7
REMARK    3  A    between atoms: C_10  and  S_13
REMARK    4  A    between atoms: S_13  and  C_14
REMARK    5  A    between atoms: C_14  and  C_15
REMARK    6  A    between atoms: N_17  and  C_18
REMARK                            x       y       z     vdW  Elec       q    Type
REMARK                         _______ _______ _______ _____ _____    ______ ____
ROOT
ATOM      1  S   UNL     1      -0.860   1.669   1.497  0.00  0.00    -0.077 S 
ENDROOT
BRANCH   1   5
ATOM      2  C   UNL     1       1.050   0.360   4.645  0.00  0.00    +0.186 A 
ATOM      3  N   UNL     1       0.013   1.073   4.087  0.00  0.00    -0.201 NA
ATOM      4  H   UNL     1       1.706  -0.100   1.587  0.00  0.00    +0.191 HD
ATOM      5  C   UNL     1       0.174   0.961   2.735  0.00  0.00    +0.185 A 
ATOM      6  N   UNL     1       1.244   0.226   2.530  0.00  0.00    -0.253 N 
ATOM      7  N   UNL     1       1.764  -0.120   3.653  0.00  0.00    -0.151 NA
BRANCH   2  12
ATOM      8  C   UNL     1       0.716   0.575   8.379  0.00  0.00    +0.001 A 
ATOM      9  C   UNL     1       1.799  -0.181   8.794  0.00  0.00    +0.004 A 
ATOM     10  C   UNL     1       2.641  -0.763   7.865  0.00  0.00    +0.046 A 
ATOM     11  C   UNL     1       2.401  -0.597   6.510  0.00  0.00    +0.128 A 
ATOM     12  C   UNL     1       1.311   0.172   6.087  0.00  0.00    +0.062 A 
ATOM     13  C   UNL     1       0.467   0.754   7.034  0.00  0.00    +0.015 A 
BRANCH  11  14
ATOM     14  O   UNL     1       3.225  -1.173   5.597  0.00  0.00    -0.506 OA
ATOM     15  H   UNL     1       3.033  -1.040   4.522  0.00  0.00    +0.292 HD
ENDBRANCH  11  14
ENDBRANCH   2  12
ENDBRANCH   1   5
BRANCH   1  16
ATOM     16  C   UNL     1      -0.013   1.086   0.008  0.00  0.00    +0.173 C 
BRANCH  16  17
ATOM     17  C   UNL     1      -0.742   1.585  -1.213  0.00  0.00    +0.224 C 
ATOM     18  O   UNL     1      -1.736   2.268  -1.088  0.00  0.00    -0.275 OA
ATOM     19  N   UNL     1      -0.288   1.272  -2.443  0.00  0.00    -0.309 N 
ATOM     20  H   UNL     1       0.614   0.653  -2.556  0.00  0.00    +0.149 HD
BRANCH  19  21
ATOM     21  C   UNL     1      -0.997   1.758  -3.630  0.00  0.00    +0.035 C 
ATOM     22  C   UNL     1      -2.432   1.228  -3.619  0.00  0.00    +0.029 C 
ATOM     23  C   UNL     1      -3.172   1.735  -4.859  0.00  0.00    -0.008 C 
ATOM     24  C   UNL     1      -2.456   1.242  -6.117  0.00  0.00    +0.007 C 
ATOM     25  C   UNL     1      -1.021   1.771  -6.128  0.00  0.00    -0.008 C 
ATOM     26  C   UNL     1      -0.281   1.264  -4.889  0.00  0.00    +0.029 C 
ATOM     27  C   UNL     1      -1.042   3.301  -6.120  0.00  0.00    +0.007 C 
ATOM     28  C   UNL     1      -1.758   3.794  -4.861  0.00  0.00    -0.008 C 
ATOM     29  C   UNL     1      -3.193   3.265  -4.850  0.00  0.00    +0.007 C 
ATOM     30  C   UNL     1      -1.018   3.288  -3.622  0.00  0.00    +0.029 C 
ENDBRANCH  19  21
ENDBRANCH  16  17
ENDBRANCH   1  16
TORSDOF 6
