REMARK  Name = ZINC25881415
REMARK  4 active torsions:
REMARK  status: ('A' for Active; 'I' for Inactive)
REMARK    1  A    between atoms: C_1  and  C_2
REMARK    2  A    between atoms: C_7  and  C_12
REMARK    3  A    between atoms: N_14  and  C_15
REMARK    4  A    between atoms: C_18  and  N_21
REMARK                            x       y       z     vdW  Elec       q    Type
REMARK                         _______ _______ _______ _____ _____    ______ ____
ROOT
ATOM      1  C   UNL     1      -1.404  -5.069   0.467  0.00  0.00    +0.249 C 
ATOM      2  O   UNL     1      -2.234  -4.647  -0.315  0.00  0.00    -0.270 OA
ATOM      3  N   UNL     1      -1.378  -6.379   0.781  0.00  0.00    -0.281 N 
ATOM      4  H   UNL     1      -0.675  -6.728   1.351  0.00  0.00    +0.155 HD
ENDROOT
BRANCH   1  10
ATOM      5  C   UNL     1       0.028   1.499   0.053  0.00  0.00    +0.008 C 
ATOM      6  C   UNL     1       0.042  -0.031   0.035  0.00  0.00    -0.009 C 
ATOM      7  C   UNL     1      -1.396  -0.557   0.063  0.00  0.00    +0.008 C 
ATOM      8  C   UNL     1      -1.405  -2.064  -0.203  0.00  0.00    +0.037 C 
ATOM      9  C   UNL     1      -0.430  -2.733   0.753  0.00  0.00    -0.025 A 
ATOM     10  C   UNL     1      -0.427  -4.148   1.071  0.00  0.00    +0.047 A 
ATOM     11  C   UNL     1       0.523  -4.598   1.959  0.00  0.00    +0.058 A 
ATOM     12  S   UNL     1       1.390  -3.219   2.369  0.00  0.00    -0.101 S 
ATOM     13  C   UNL     1       0.530  -2.023   1.389  0.00  0.00    -0.006 A 
ATOM     14  C   UNL     1       0.790  -0.553   1.270  0.00  0.00    +0.046 C 
ENDBRANCH   1  10
BRANCH   3  15
ATOM     15  C   UNL     1      -2.366  -7.238   0.283  0.00  0.00    +0.034 A 
ATOM     16  C   UNL     1      -2.885  -7.036  -0.989  0.00  0.00    +0.025 A 
ATOM     17  C   UNL     1      -3.859  -7.883  -1.479  0.00  0.00    +0.025 A 
ATOM     18  C   UNL     1      -4.320  -8.936  -0.700  0.00  0.00    +0.035 A 
ATOM     19  C   UNL     1      -3.801  -9.138   0.572  0.00  0.00    +0.025 A 
ATOM     20  C   UNL     1      -2.823  -8.295   1.060  0.00  0.00    +0.025 A 
BRANCH  18  21
ATOM     21  N   UNL     1      -5.309  -9.795  -1.198  0.00  0.00    -0.270 N 
ATOM     22  C   UNL     1      -6.237 -10.308  -0.366  0.00  0.00    +0.301 C 
ATOM     23  O   UNL     1      -6.166 -10.094   0.829  0.00  0.00    -0.253 OA
ATOM     24  N   UNL     1      -7.242 -11.058  -0.858  0.00  0.00    -0.313 N 
ATOM     25  H   UNL     1      -5.326 -10.020  -2.142  0.00  0.00    +0.156 HD
ATOM     26  H   UNL     1      -7.298 -11.229  -1.812  0.00  0.00    +0.146 HD
ATOM     27  H   UNL     1      -7.910 -11.428  -0.260  0.00  0.00    +0.146 HD
ENDBRANCH  18  21
ENDBRANCH   3  15
TORSDOF 3
