REMARK  Name = ZINC04620592
REMARK  8 active torsions:
REMARK  status: ('A' for Active; 'I' for Inactive)
REMARK    1  A    between atoms: C_1  and  C_2
REMARK    2  A    between atoms: C_2  and  C_3
REMARK    3  A    between atoms: C_2  and  C_4
REMARK    4  A    between atoms: C_7  and  C_10
REMARK    5  A    between atoms: C_15  and  N_24
REMARK    6  A    between atoms: C_19  and  N_23
REMARK    7  A    between atoms: C_20  and  C_21
REMARK    8  A    between atoms: N_24  and  C_25
REMARK                            x       y       z     vdW  Elec       q    Type
REMARK                         _______ _______ _______ _____ _____    ______ ____
ROOT
ATOM      1  C   UNL     1       0.102   1.234   0.322  0.00  0.00    +0.098 C 
ATOM      2  C   UNL     1       1.484   1.824   0.228  0.00  0.00    +0.008 A 
ATOM      3  C   UNL     1       2.164   1.776  -0.976  0.00  0.00    +0.010 A 
ATOM      4  C   UNL     1       3.432   2.312  -1.082  0.00  0.00    +0.024 A 
ATOM      5  C   UNL     1       4.030   2.902   0.025  0.00  0.00    +0.035 A 
ATOM      6  C   UNL     1       3.351   2.951   1.234  0.00  0.00    +0.069 A 
ATOM      7  C   UNL     1       2.076   2.411   1.336  0.00  0.00    +0.136 A 
ATOM      8  O   UNL     1       1.425   2.466   2.525  0.00  0.00    -0.441 OA
ATOM      9  C   UNL     1       0.091   2.318   2.566  0.00  0.00    +0.199 C 
ATOM     10  C   UNL     1      -0.597   1.741   1.552  0.00  0.00    +0.098 C 
ENDROOT
BRANCH   1  14
ATOM     11  C   UNL     1       0.391  -3.024   0.512  0.00  0.00    -0.045 A 
ATOM     12  C   UNL     1      -0.301  -2.423  -0.523  0.00  0.00    +0.004 A 
ATOM     13  C   UNL     1      -0.395  -1.046  -0.585  0.00  0.00    +0.005 A 
ATOM     14  C   UNL     1       0.204  -0.268   0.389  0.00  0.00    -0.035 A 
ATOM     15  C   UNL     1       0.901  -0.868   1.421  0.00  0.00    +0.005 A 
ATOM     16  C   UNL     1       0.990  -2.246   1.485  0.00  0.00    +0.004 A 
BRANCH  11  18
ATOM     17  C   UNL     1       1.965  -4.940   0.529  0.00  0.00    +0.012 C 
ATOM     18  C   UNL     1       0.493  -4.526   0.579  0.00  0.00    +0.013 C 
ATOM     19  C   UNL     1      -0.133  -5.021   1.884  0.00  0.00    +0.012 C 
ENDBRANCH  11  18
ENDBRANCH   1  14
BRANCH   9  20
ATOM     20  N   UNL     1      -0.595   2.763   3.668  0.00  0.00    -0.328 N 
ATOM     21  H   UNL     1      -0.117   3.178   4.402  0.00  0.00    +0.145 HD
ATOM     22  H   UNL     1      -1.559   2.663   3.712  0.00  0.00    +0.145 HD
ENDBRANCH   9  20
BRANCH  10  23
ATOM     23  C   UNL     1      -2.020   1.611   1.654  0.00  0.00    +0.101 C 
ATOM     24  N   UNL     1      -3.148   1.508   1.734  0.00  0.00    -0.191 NA
ENDBRANCH  10  23
BRANCH   5  25
ATOM     25  N   UNL     1       5.314   3.444  -0.079  0.00  0.00    -0.314 N 
ATOM     26  H   UNL     1       5.952   3.064  -0.703  0.00  0.00    +0.152 HD
BRANCH  25  27
ATOM     27  C   UNL     1       5.679   4.533   0.717  0.00  0.00    +0.031 A 
ATOM     28  C   UNL     1       4.720   5.458   1.113  0.00  0.00    +0.023 A 
ATOM     29  C   UNL     1       5.083   6.530   1.904  0.00  0.00    +0.002 A 
ATOM     30  C   UNL     1       6.401   6.691   2.292  0.00  0.00    +0.000 A 
ATOM     31  C   UNL     1       7.359   5.776   1.894  0.00  0.00    +0.002 A 
ATOM     32  C   UNL     1       7.002   4.698   1.108  0.00  0.00    +0.023 A 
ENDBRANCH  25  27
ENDBRANCH   5  25
TORSDOF 6
