REMARK  Name = ZINC35743788
REMARK  15 active torsions:
REMARK  status: ('A' for Active; 'I' for Inactive)
REMARK    1  A    between atoms: C_1  and  C_2
REMARK    2  A    between atoms: C_2  and  C_4
REMARK    3  A    between atoms: C_2  and  N_19
REMARK    4  A    between atoms: N_14  and  C_15
REMARK    5  A    between atoms: C_15  and  C_16
REMARK    6  A    between atoms: C_16  and  O_17
REMARK    7  A    between atoms: O_17  and  C_18
REMARK    8  A    between atoms: N_19  and  C_20
REMARK    9  A    between atoms: C_20  and  C_21
REMARK   10  A    between atoms: C_21  and  C_22
REMARK   11  A    between atoms: C_22  and  C_23
REMARK   12  A    between atoms: C_23  and  C_24
REMARK   13  A    between atoms: C_24  and  C_25
REMARK   14  A    between atoms: C_25  and  N_26
REMARK   15  A    between atoms: C_27  and  C_29
REMARK                            x       y       z     vdW  Elec       q    Type
REMARK                         _______ _______ _______ _____ _____    ______ ____
ROOT
ATOM      1  N   UNL     1       0.615  -0.018   1.325  0.00  0.00    -0.291 N 
ATOM      2  C   UNL     1      -0.329  -0.397   2.209  0.00  0.00    +0.222 C 
ATOM      3  O   UNL     1      -1.404   0.164   2.226  0.00  0.00    -0.275 OA
ENDROOT
BRANCH   2   4
ATOM      4  C   UNL     1      -0.049  -1.518   3.176  0.00  0.00    +0.048 C 
ATOM      5  C   UNL     1       1.173  -1.165   4.026  0.00  0.00    +0.019 C 
ATOM      6  C   UNL     1       1.458  -2.304   5.008  0.00  0.00    -0.009 C 
ATOM      7  C   UNL     1       0.245  -2.507   5.918  0.00  0.00    +0.007 C 
ATOM      8  C   UNL     1      -0.977  -2.861   5.068  0.00  0.00    -0.009 C 
ATOM      9  C   UNL     1      -1.262  -1.722   4.086  0.00  0.00    +0.019 C 
ATOM     10  C   UNL     1      -0.702  -4.149   4.289  0.00  0.00    +0.007 C 
ATOM     11  C   UNL     1       0.511  -3.945   3.379  0.00  0.00    -0.009 C 
ATOM     12  C   UNL     1       1.733  -3.592   4.230  0.00  0.00    +0.007 C 
ATOM     13  C   UNL     1       0.227  -2.807   2.397  0.00  0.00    +0.019 C 
ENDBRANCH   2   4
BRANCH   1  15
ATOM     14  C   UNL     1      -0.030   2.340   1.270  0.00  0.00    +0.036 C 
ATOM     15  C   UNL     1       0.372   1.121   0.437  0.00  0.00    +0.139 C 
BRANCH  15  16
ATOM     16  C   UNL     1      -0.738   0.781  -0.524  0.00  0.00    +0.133 A 
ATOM     17  N   UNL     1      -1.702   0.018  -0.107  0.00  0.00    -0.232 NA
ATOM     18  C   UNL     1      -2.734  -0.331  -0.915  0.00  0.00    +0.078 A 
ATOM     19  C   UNL     1      -3.771  -1.152  -0.466  0.00  0.00    +0.028 A 
ATOM     20  C   UNL     1      -4.799  -1.480  -1.321  0.00  0.00    +0.002 A 
ATOM     21  C   UNL     1      -4.819  -1.004  -2.626  0.00  0.00    +0.001 A 
ATOM     22  C   UNL     1      -3.807  -0.193  -3.091  0.00  0.00    +0.015 A 
ATOM     23  C   UNL     1      -2.757   0.151  -2.242  0.00  0.00    +0.065 A 
ATOM     24  C   UNL     1      -1.651   1.014  -2.683  0.00  0.00    +0.262 A 
ATOM     25  O   UNL     1      -1.611   1.462  -3.814  0.00  0.00    -0.267 OA
ATOM     26  N   UNL     1      -0.682   1.294  -1.781  0.00  0.00    -0.292 N 
BRANCH  26  27
ATOM     27  C   UNL     1       0.441   2.153  -2.165  0.00  0.00    +0.154 C 
BRANCH  27  28
ATOM     28  C   UNL     1       1.612   1.285  -2.630  0.00  0.00    +0.181 C 
BRANCH  28  29
ATOM     29  O   UNL     1       1.244   0.588  -3.822  0.00  0.00    -0.381 OA
ATOM     30  C   UNL     1       2.273  -0.257  -4.342  0.00  0.00    +0.194 C 
ENDBRANCH  28  29
ENDBRANCH  27  28
ENDBRANCH  26  27
ENDBRANCH  15  16
ENDBRANCH   1  15
BRANCH   1  31
ATOM     31  C   UNL     1       1.885  -0.745   1.252  0.00  0.00    +0.108 C 
BRANCH  31  32
ATOM     32  C   UNL     1       3.044   0.231   1.463  0.00  0.00    +0.019 C 
BRANCH  32  33
ATOM     33  C   UNL     1       4.370  -0.532   1.405  0.00  0.00    +0.001 C 
BRANCH  33  34
ATOM     34  C   UNL     1       5.529   0.444   1.615  0.00  0.00    -0.002 C 
BRANCH  34  35
ATOM     35  C   UNL     1       6.854  -0.319   1.558  0.00  0.00    -0.020 C 
BRANCH  35  36
ATOM     36  C   UNL     1       8.014   0.657   1.768  0.00  0.00    -0.086 C 
BRANCH  36  37
ATOM     37  N   UNL     1       9.286  -0.075   1.713  0.00  0.00    +0.378 N 
ATOM     38  H   UNL     1       9.302  -0.777   2.437  0.00  0.00    -0.090 HD
ATOM     39  H   UNL     1       9.380  -0.519   0.812  0.00  0.00    -0.090 HD
ATOM     40  H   UNL     1      10.051   0.568   1.852  0.00  0.00    -0.090 HD
ENDBRANCH  36  37
ENDBRANCH  35  36
ENDBRANCH  34  35
ENDBRANCH  33  34
ENDBRANCH  32  33
ENDBRANCH  31  32
ENDBRANCH   1  31
TORSDOF 13
