REMARK  Name = ZINC05102111
REMARK  10 active torsions:
REMARK  status: ('A' for Active; 'I' for Inactive)
REMARK    1  A    between atoms: C_1  and  C_2
REMARK    2  A    between atoms: C_2  and  O_3
REMARK    3  A    between atoms: O_3  and  C_4
REMARK    4  A    between atoms: C_8  and  C_11
REMARK    5  A    between atoms: C_9  and  O_10
REMARK    6  A    between atoms: C_11  and  C_13
REMARK    7  A    between atoms: C_11  and  N_25
REMARK    8  A    between atoms: C_19  and  C_24
REMARK    9  A    between atoms: C_22  and  O_23
REMARK   10  A    between atoms: N_25  and  C_26
REMARK                            x       y       z     vdW  Elec       q    Type
REMARK                         _______ _______ _______ _____ _____    ______ ____
ROOT
ATOM      1  C   UNL     1      -1.090   1.740   5.928  0.00  0.00    +0.139 C 
ENDROOT
BRANCH   1   2
ATOM      2  C   UNL     1      -2.056   0.732   6.496  0.00  0.00    +0.021 A 
ATOM      3  C   UNL     1      -1.998  -0.591   6.067  0.00  0.00    +0.010 A 
ATOM      4  C   UNL     1      -2.854  -1.526   6.564  0.00  0.00    +0.010 A 
ATOM      5  C   UNL     1      -3.817  -1.154   7.516  0.00  0.00    +0.004 A 
ATOM      6  C   UNL     1      -4.721  -2.091   8.049  0.00  0.00    +0.012 A 
ATOM      7  C   UNL     1      -5.631  -1.657   8.970  0.00  0.00    +0.023 A 
ATOM      8  C   UNL     1      -5.644  -0.319   9.357  0.00  0.00    +0.039 A 
ATOM      9  N   UNL     1      -4.800   0.551   8.858  0.00  0.00    -0.248 NA
ATOM     10  C   UNL     1      -3.885   0.192   7.953  0.00  0.00    +0.113 A 
ATOM     11  C   UNL     1      -2.979   1.132   7.420  0.00  0.00    +0.148 A 
ATOM     12  C   UNL     1      -6.655   0.141  10.375  0.00  0.00    +0.065 C 
BRANCH  11  13
ATOM     13  O   UNL     1      -3.023   2.429   7.823  0.00  0.00    -0.504 OA
ATOM     14  H   UNL     1      -3.547   3.002   7.247  0.00  0.00    +0.292 HD
ENDBRANCH  11  13
ENDBRANCH   1   2
BRANCH   1  19
ATOM     15  C   UNL     1      -0.512   0.040   2.595  0.00  0.00    +0.162 A 
ATOM     16  C   UNL     1       0.871   0.072   2.511  0.00  0.00    +0.049 A 
ATOM     17  C   UNL     1       1.612   0.642   3.529  0.00  0.00    +0.004 A 
ATOM     18  C   UNL     1       0.978   1.181   4.633  0.00  0.00    +0.009 A 
ATOM     19  C   UNL     1      -0.401   1.152   4.723  0.00  0.00    +0.022 A 
ATOM     20  C   UNL     1      -1.151   0.587   3.704  0.00  0.00    +0.164 A 
BRANCH  20  21
ATOM     21  O   UNL     1      -2.508   0.563   3.789  0.00  0.00    -0.503 OA
ATOM     22  H   UNL     1      -2.861  -0.230   4.215  0.00  0.00    +0.292 HD
ENDBRANCH  20  21
BRANCH  15  23
ATOM     23  O   UNL     1      -1.243  -0.520   1.595  0.00  0.00    -0.489 OA
BRANCH  23  25
ATOM     24  C   UNL     1      -1.505  -1.639  -0.531  0.00  0.00    +0.048 C 
ATOM     25  C   UNL     1      -0.520  -1.057   0.485  0.00  0.00    +0.226 C 
ENDBRANCH  23  25
ENDBRANCH  15  23
ENDBRANCH   1  19
BRANCH   1  26
ATOM     26  N   UNL     1      -0.090   2.083   6.942  0.00  0.00    -0.319 N 
ATOM     27  H   UNL     1       0.016   3.005   7.226  0.00  0.00    +0.148 HD
BRANCH  26  28
ATOM     28  C   UNL     1       0.707   1.089   7.498  0.00  0.00    +0.097 A 
ATOM     29  C   UNL     1       0.699  -0.189   6.947  0.00  0.00    +0.041 A 
ATOM     30  C   UNL     1       1.501  -1.167   7.506  0.00  0.00    +0.005 A 
ATOM     31  C   UNL     1       2.279  -0.837   8.608  0.00  0.00    +0.018 A 
ATOM     32  C   UNL     1       2.233   0.449   9.107  0.00  0.00    +0.084 A 
ATOM     33  N   UNL     1       1.461   1.437   8.580  0.00  0.00    -0.350 N 
ATOM     34  H   UNL     1       1.447   2.386   8.972  0.00  0.00    +0.166 HD
ENDBRANCH  26  28
ENDBRANCH   1  26
TORSDOF 8
