REMARK  Name = ZINC08695344
REMARK  16 active torsions:
REMARK  status: ('A' for Active; 'I' for Inactive)
REMARK    1  A    between atoms: C_1  and  C_2
REMARK    2  A    between atoms: C_2  and  C_3
REMARK    3  A    between atoms: C_3  and  C_4
REMARK    4  A    between atoms: C_4  and  N_69
REMARK    5  A    between atoms: C_5  and  C_6
REMARK    6  A    between atoms: C_5  and  N_69
REMARK    7  A    between atoms: C_6  and  C_7
REMARK    8  A    between atoms: C_7  and  C_8
REMARK    9  A    between atoms: C_9  and  C_10
REMARK   10  A    between atoms: C_9  and  N_69
REMARK   11  A    between atoms: C_10  and  C_11
REMARK   12  A    between atoms: C_11  and  N_12
REMARK   13  A    between atoms: C_13  and  C_29
REMARK   14  A    between atoms: C_15  and  C_20
REMARK   15  A    between atoms: C_16  and  O_19
REMARK   16  A    between atoms: C_20  and  C_22
REMARK                            x       y       z     vdW  Elec       q    Type
REMARK                         _______ _______ _______ _____ _____    ______ ____
ROOT
ATOM      1  N   UNL     1       0.283  -2.814  -3.179  0.00  0.00    -0.284 N 
ATOM      2  C   UNL     1       1.011  -3.979  -2.662  0.00  0.00    +0.147 C 
ATOM      3  C   UNL     1       0.188  -5.189  -3.035  0.00  0.00    +0.071 C 
ATOM      4  C   UNL     1      -0.895  -4.733  -3.707  0.00  0.00    +0.188 C 
ATOM      5  C   UNL     1      -0.829  -3.259  -3.792  0.00  0.00    +0.282 C 
ATOM      6  O   UNL     1      -1.656  -2.554  -4.333  0.00  0.00    -0.267 OA
ENDROOT
BRANCH   2   7
ATOM      7  C   UNL     1       2.375  -4.061  -3.298  0.00  0.00    +0.013 A 
ATOM      8  C   UNL     1       2.589  -3.515  -4.549  0.00  0.00    +0.008 A 
ATOM      9  C   UNL     1       3.842  -3.586  -5.130  0.00  0.00    +0.001 A 
ATOM     10  C   UNL     1       4.879  -4.212  -4.464  0.00  0.00    +0.003 A 
ATOM     11  C   UNL     1       4.666  -4.764  -3.215  0.00  0.00    +0.039 A 
ATOM     12  C   UNL     1       3.413  -4.689  -2.630  0.00  0.00    +0.129 A 
ATOM     13  F   UNL     1       3.204  -5.228  -1.409  0.00  0.00    -0.205 F 
ENDBRANCH   2   7
BRANCH   4  14
ATOM     14  O   UNL     1      -1.883  -5.504  -4.218  0.00  0.00    -0.502 OA
ATOM     15  H   UNL     1      -2.562  -4.922  -4.665  0.00  0.00    +0.292 HD
ENDBRANCH   4  14
BRANCH   3  16
ATOM     16  C   UNL     1       0.503  -6.589  -2.733  0.00  0.00    +0.195 C 
ATOM     17  O   UNL     1       0.760  -7.364  -3.635  0.00  0.00    -0.287 OA
BRANCH  16  18
ATOM     18  C   UNL     1       0.510  -7.058  -1.332  0.00  0.00    +0.022 A 
ATOM     19  C   UNL     1       0.105  -6.203  -0.304  0.00  0.00    +0.014 A 
ATOM     20  C   UNL     1       0.108  -6.648   1.000  0.00  0.00    +0.039 A 
ATOM     21  C   UNL     1       0.521  -7.939   1.295  0.00  0.00    +0.123 A 
ATOM     22  C   UNL     1       0.929  -8.790   0.279  0.00  0.00    +0.039 A 
ATOM     23  C   UNL     1       0.925  -8.358  -1.030  0.00  0.00    +0.014 A 
ATOM     24  F   UNL     1       0.526  -8.368   2.575  0.00  0.00    -0.205 F 
ENDBRANCH  16  18
ENDBRANCH   3  16
BRANCH   1  25
ATOM     25  C   UNL     1       0.698  -1.414  -3.056  0.00  0.00    +0.107 C 
BRANCH  25  26
ATOM     26  C   UNL     1       0.117  -0.822  -1.770  0.00  0.00    +0.000 C 
BRANCH  26  27
ATOM     27  C   UNL     1       0.550   0.640  -1.641  0.00  0.00    -0.077 C 
BRANCH  27  28
ATOM     28  N   UNL     1      -0.037   1.204  -0.407  0.00  0.00    +0.380 N 
ATOM     29  H   UNL     1      -1.047   1.019  -0.403  0.00  0.00    -0.082 HD
BRANCH  28  30
ATOM     30  C   UNL     1       0.573   0.566   0.779  0.00  0.00    -0.079 C 
BRANCH  30  31
ATOM     31  C   UNL     1      -0.342   0.795   1.983  0.00  0.00    -0.019 C 
BRANCH  31  33
ATOM     32  C   UNL     1      -0.631   0.390   4.432  0.00  0.00    +0.004 C 
ATOM     33  C   UNL     1       0.284   0.161   3.227  0.00  0.00    -0.005 C 
ENDBRANCH  31  33
ENDBRANCH  30  31
ENDBRANCH  28  30
BRANCH  28  34
ATOM     34  C   UNL     1       0.184   2.665  -0.365  0.00  0.00    -0.079 C 
BRANCH  34  35
ATOM     35  C   UNL     1      -0.765   3.334  -1.361  0.00  0.00    -0.019 C 
BRANCH  35  36
ATOM     36  C   UNL     1      -0.662   4.854  -1.222  0.00  0.00    -0.005 C 
ATOM     37  C   UNL     1      -1.611   5.523  -2.217  0.00  0.00    +0.004 C 
ENDBRANCH  35  36
ENDBRANCH  34  35
ENDBRANCH  28  34
ENDBRANCH  27  28
ENDBRANCH  26  27
ENDBRANCH  25  26
ENDBRANCH   1  25
TORSDOF 14
