REMARK  Name = ZINC01817006
REMARK  16 active torsions:
REMARK  status: ('A' for Active; 'I' for Inactive)
REMARK    1  A    between atoms: C_1  and  C_2
REMARK    2  A    between atoms: C_2  and  N_3
REMARK    3  A    between atoms: N_3  and  C_4
REMARK    4  A    between atoms: N_3  and  C_6
REMARK    5  A    between atoms: C_4  and  C_5
REMARK    6  A    between atoms: C_9  and  C_12
REMARK    7  A    between atoms: N_13  and  N_14
REMARK    8  A    between atoms: C_15  and  C_17
REMARK    9  A    between atoms: C_17  and  S_18
REMARK   10  A    between atoms: S_18  and  C_19
REMARK   11  A    between atoms: C_22  and  C_30
REMARK   12  A    between atoms: N_23  and  C_24
REMARK   13  A    between atoms: C_33  and  C_36
REMARK   14  A    between atoms: C_36  and  C_37
REMARK   15  A    between atoms: C_36  and  C_38
REMARK   16  A    between atoms: C_36  and  C_39
REMARK                            x       y       z     vdW  Elec       q    Type
REMARK                         _______ _______ _______ _____ _____    ______ ____
ROOT
ATOM      1  C   UNL     1      -2.452  -3.617 -13.226  0.00  0.00    +0.197 A 
ATOM      2  N   UNL     1      -3.750  -3.412 -13.268  0.00  0.00    -0.122 NA
ATOM      3  N   UNL     1      -4.204  -3.695 -14.436  0.00  0.00    -0.128 NA
ATOM      4  C   UNL     1      -3.227  -4.098 -15.214  0.00  0.00    +0.169 A 
ATOM      5  N   UNL     1      -2.071  -4.056 -14.464  0.00  0.00    -0.270 N 
ENDROOT
BRANCH   5   6
ATOM      6  C   UNL     1      -0.777  -4.395 -14.882  0.00  0.00    +0.051 A 
ATOM      7  C   UNL     1      -0.142  -3.642 -15.861  0.00  0.00    +0.026 A 
ATOM      8  C   UNL     1       1.133  -3.979 -16.270  0.00  0.00    +0.002 A 
ATOM      9  C   UNL     1       1.778  -5.065 -15.708  0.00  0.00    +0.000 A 
ATOM     10  C   UNL     1       1.148  -5.817 -14.733  0.00  0.00    +0.002 A 
ATOM     11  C   UNL     1      -0.125  -5.482 -14.315  0.00  0.00    +0.026 A 
ENDBRANCH   5   6
BRANCH   4  12
ATOM     12  C   UNL     1      -3.342  -4.515 -16.627  0.00  0.00    +0.020 A 
ATOM     13  C   UNL     1      -2.302  -5.216 -17.239  0.00  0.00    +0.012 A 
ATOM     14  C   UNL     1      -2.417  -5.602 -18.559  0.00  0.00    +0.005 A 
ATOM     15  C   UNL     1      -3.560  -5.295 -19.275  0.00  0.00    -0.042 A 
ATOM     16  C   UNL     1      -4.595  -4.600 -18.675  0.00  0.00    +0.005 A 
ATOM     17  C   UNL     1      -4.495  -4.214 -17.355  0.00  0.00    +0.012 A 
BRANCH  15  18
ATOM     18  C   UNL     1      -3.678  -5.720 -20.717  0.00  0.00    -0.013 C 
ATOM     19  C   UNL     1      -3.579  -7.244 -20.809  0.00  0.00    +0.015 C 
ATOM     20  C   UNL     1      -5.027  -5.261 -21.274  0.00  0.00    +0.015 C 
ATOM     21  C   UNL     1      -2.548  -5.085 -21.529  0.00  0.00    +0.015 C 
ENDBRANCH  15  18
ENDBRANCH   4  12
BRANCH   1  22
ATOM     22  S   UNL     1      -1.399  -3.367 -11.836  0.00  0.00    -0.076 S 
BRANCH  22  23
ATOM     23  C   UNL     1      -2.521  -2.787 -10.534  0.00  0.00    +0.174 C 
BRANCH  23  25
ATOM     24  N   UNL     1      -2.367  -2.092  -8.165  0.00  0.00    -0.206 N 
ATOM     25  C   UNL     1      -1.737  -2.532  -9.272  0.00  0.00    +0.242 C 
ATOM     26  O   UNL     1      -0.539  -2.722  -9.253  0.00  0.00    -0.273 OA
ATOM     27  H   UNL     1      -3.325  -1.940  -8.180  0.00  0.00    +0.177 HD
BRANCH  24  29
ATOM     28  C   UNL     1      -2.245  -1.431  -5.926  0.00  0.00    +0.138 C 
ATOM     29  N   UNL     1      -1.639  -1.855  -6.992  0.00  0.00    -0.188 NA
BRANCH  28  33
ATOM     30  C   UNL     1      -0.037  -0.712  -2.371  0.00  0.00    +0.030 A 
ATOM     31  C   UNL     1      -1.411  -0.493  -2.391  0.00  0.00    +0.024 A 
ATOM     32  C   UNL     1      -2.130  -0.725  -3.542  0.00  0.00    +0.011 A 
ATOM     33  C   UNL     1      -1.479  -1.181  -4.692  0.00  0.00    -0.005 A 
ATOM     34  C   UNL     1      -0.099  -1.400  -4.668  0.00  0.00    +0.011 A 
ATOM     35  C   UNL     1       0.615  -1.161  -3.514  0.00  0.00    +0.024 A 
BRANCH  30  36
ATOM     36  N   UNL     1       0.688  -0.476  -1.203  0.00  0.00    -0.330 N 
BRANCH  36  38
ATOM     37  C   UNL     1      -0.019   1.526   0.010  0.00  0.00    +0.024 C 
ATOM     38  C   UNL     1       0.002  -0.004   0.002  0.00  0.00    +0.102 C 
ENDBRANCH  36  38
BRANCH  36  39
ATOM     39  C   UNL     1       2.135  -0.701  -1.182  0.00  0.00    +0.102 C 
ATOM     40  C   UNL     1       2.421  -2.145  -0.763  0.00  0.00    +0.024 C 
ENDBRANCH  36  39
ENDBRANCH  30  36
ENDBRANCH  28  33
ENDBRANCH  24  29
ENDBRANCH  23  25
ENDBRANCH  22  23
ENDBRANCH   1  22
TORSDOF 11
