REMARK  Name = ZINC16455009
REMARK  5 active torsions:
REMARK  status: ('A' for Active; 'I' for Inactive)
REMARK    1  A    between atoms: C_1  and  C_2
REMARK    2  A    between atoms: C_2  and  C_21
REMARK    3  A    between atoms: N_5  and  C_9
REMARK    4  A    between atoms: C_9  and  C_10
REMARK    5  A    between atoms: N_12  and  C_13
REMARK                            x       y       z     vdW  Elec       q    Type
REMARK                         _______ _______ _______ _____ _____    ______ ____
ROOT
ATOM      1  C   UNL     1      -0.014   1.516   0.034  0.00  0.00    +0.047 C 
ATOM      2  C   UNL     1       0.012  -0.014   0.030  0.00  0.00    +0.135 C 
ATOM      3  C   UNL     1       0.819  -0.531  -1.145  0.00  0.00    +0.251 C 
ATOM      4  O   UNL     1       0.591  -0.357  -2.323  0.00  0.00    -0.272 OA
ATOM      5  N   UNL     1       1.843  -1.223  -0.607  0.00  0.00    -0.215 N 
ATOM      6  C   UNL     1       1.796  -1.216   0.730  0.00  0.00    +0.310 C 
ATOM      7  O   UNL     1       2.611  -1.773   1.438  0.00  0.00    -0.252 OA
ATOM      8  N   UNL     1       0.744  -0.523   1.203  0.00  0.00    -0.281 N 
ATOM      9  H   UNL     1       0.512  -0.385   2.135  0.00  0.00    +0.152 HD
ENDROOT
BRANCH   2  10
ATOM     10  C   UNL     1      -1.389  -0.567  -0.001  0.00  0.00    -0.015 A 
ATOM     11  C   UNL     1      -1.999  -0.836  -1.213  0.00  0.00    +0.009 A 
ATOM     12  C   UNL     1      -3.284  -1.343  -1.243  0.00  0.00    +0.039 A 
ATOM     13  C   UNL     1      -3.961  -1.581  -0.059  0.00  0.00    +0.123 A 
ATOM     14  C   UNL     1      -3.350  -1.312   1.154  0.00  0.00    +0.039 A 
ATOM     15  C   UNL     1      -2.063  -0.810   1.181  0.00  0.00    +0.009 A 
ATOM     16  F   UNL     1      -5.218  -2.077  -0.087  0.00  0.00    -0.205 F 
ENDBRANCH   2  10
BRANCH   5  17
ATOM     17  C   UNL     1       2.879  -1.901  -1.390  0.00  0.00    +0.214 C 
BRANCH  17  18
ATOM     18  C   UNL     1       4.023  -0.952  -1.638  0.00  0.00    +0.235 C 
ATOM     19  O   UNL     1       3.977   0.180  -1.204  0.00  0.00    -0.274 OA
ATOM     20  N   UNL     1       5.097  -1.360  -2.343  0.00  0.00    -0.283 N 
ATOM     21  H   UNL     1       5.163  -2.282  -2.634  0.00  0.00    +0.155 HD
BRANCH  20  22
ATOM     22  C   UNL     1       6.117  -0.451  -2.654  0.00  0.00    +0.052 A 
ATOM     23  C   UNL     1       6.450   0.554  -1.756  0.00  0.00    +0.027 A 
ATOM     24  C   UNL     1       7.456   1.449  -2.065  0.00  0.00    +0.040 A 
ATOM     25  C   UNL     1       8.133   1.344  -3.269  0.00  0.00    +0.125 A 
ATOM     26  C   UNL     1       7.802   0.343  -4.166  0.00  0.00    +0.060 A 
ATOM     27  C   UNL     1       6.800  -0.559  -3.859  0.00  0.00    +0.065 A 
ATOM     28 CL   UNL     1       6.391  -1.819  -4.980  0.00  0.00    -0.082 Cl
ATOM     29  F   UNL     1       9.116   2.220  -3.568  0.00  0.00    -0.205 F 
ENDBRANCH  20  22
ENDBRANCH  17  18
ENDBRANCH   5  17
TORSDOF 4
