REMARK  Name = ZINC02940825
REMARK  15 active torsions:
REMARK  status: ('A' for Active; 'I' for Inactive)
REMARK    1  A    between atoms: C_1  and  C_2
REMARK    2  A    between atoms: C_2  and  N_61
REMARK    3  A    between atoms: C_3  and  C_4
REMARK    4  A    between atoms: C_3  and  N_61
REMARK    5  A    between atoms: C_5  and  C_6
REMARK    6  A    between atoms: C_5  and  N_61
REMARK    7  A    between atoms: C_7  and  C_27
REMARK    8  A    between atoms: C_10  and  O_23
REMARK    9  A    between atoms: N_14  and  C_15
REMARK   10  A    between atoms: C_18  and  C_21
REMARK   11  A    between atoms: O_23  and  C_24
REMARK   12  A    between atoms: C_24  and  C_26
REMARK   13  A    between atoms: C_27  and  O_29
REMARK   14  A    between atoms: O_29  and  C_30
REMARK   15  A    between atoms: C_30  and  C_31
REMARK                            x       y       z     vdW  Elec       q    Type
REMARK                         _______ _______ _______ _____ _____    ______ ____
ROOT
ATOM      1  C   UNL     1      -0.135   1.279  -0.122  0.00  0.00    +0.022 A 
ATOM      2  C   UNL     1      -0.180  -0.082  -0.207  0.00  0.00    +0.086 A 
ATOM      3  C   UNL     1       1.219  -0.543  -0.292  0.00  0.00    +0.018 A 
ATOM      4  C   UNL     1       1.818  -1.796  -0.396  0.00  0.00    +0.058 A 
ATOM      5  C   UNL     1       3.196  -1.892  -0.456  0.00  0.00    +0.146 A 
ATOM      6  C   UNL     1       3.980  -0.742  -0.413  0.00  0.00    +0.062 A 
ATOM      7  C   UNL     1       3.395   0.502  -0.311  0.00  0.00    +0.045 A 
ATOM      8  C   UNL     1       2.010   0.616  -0.249  0.00  0.00    +0.056 A 
ATOM      9  N   UNL     1       1.155   1.697  -0.146  0.00  0.00    -0.314 N 
ATOM     10 BR   UNL     1       5.863  -0.887  -0.496  0.00  0.00    -0.046 Br
ENDROOT
BRANCH   9  11
ATOM     11  C   UNL     1       1.563   3.035  -0.077  0.00  0.00    +0.047 A 
ATOM     12  C   UNL     1       1.242   3.914  -1.104  0.00  0.00    +0.026 A 
ATOM     13  C   UNL     1       1.642   5.234  -1.031  0.00  0.00    +0.005 A 
ATOM     14  C   UNL     1       2.369   5.678   0.058  0.00  0.00    -0.050 A 
ATOM     15  C   UNL     1       2.695   4.805   1.079  0.00  0.00    +0.005 A 
ATOM     16  C   UNL     1       2.294   3.485   1.014  0.00  0.00    +0.026 A 
ATOM     17  C   UNL     1       2.809   7.118   0.132  0.00  0.00    +0.044 C 
ENDBRANCH   9  11
BRANCH   2  18
ATOM     18  C   UNL     1      -1.383  -0.922  -0.213  0.00  0.00    +0.341 C 
ATOM     19  O   UNL     1      -1.924  -1.203  -1.265  0.00  0.00    -0.245 OA
BRANCH  18  20
ATOM     20  O   UNL     1      -1.889  -1.383   0.949  0.00  0.00    -0.461 OA
BRANCH  20  21
ATOM     21  C   UNL     1      -3.081  -2.208   0.868  0.00  0.00    +0.229 C 
ATOM     22  C   UNL     1      -3.503  -2.633   2.276  0.00  0.00    +0.048 C 
ENDBRANCH  20  21
ENDBRANCH  18  20
ENDBRANCH   2  18
BRANCH   1  23
ATOM     23  C   UNL     1      -1.338   2.182  -0.022  0.00  0.00    -0.023 C 
BRANCH  23  24
ATOM     24  N   UNL     1      -1.754   2.573  -1.385  0.00  0.00    +0.383 N 
ATOM     25  H   UNL     1      -0.940   2.942  -1.890  0.00  0.00    -0.081 HD
BRANCH  24  27
ATOM     26  C   UNL     1      -3.555   0.880  -1.448  0.00  0.00    -0.017 C 
ATOM     27  C   UNL     1      -2.276   1.396  -2.111  0.00  0.00    -0.082 C 
ENDBRANCH  24  27
BRANCH  24  28
ATOM     28  C   UNL     1      -2.792   3.624  -1.314  0.00  0.00    -0.082 C 
ATOM     29  C   UNL     1      -2.952   4.252  -2.700  0.00  0.00    -0.017 C 
ENDBRANCH  24  28
ENDBRANCH  23  24
ENDBRANCH   1  23
BRANCH   5  30
ATOM     30  O   UNL     1       3.787  -3.112  -0.557  0.00  0.00    -0.425 OA
BRANCH  30  31
ATOM     31  C   UNL     1       4.277  -3.647   0.572  0.00  0.00    +0.309 C 
ATOM     32  O   UNL     1       4.100  -3.091   1.630  0.00  0.00    -0.251 OA
ATOM     33  C   UNL     1       5.047  -4.942   0.520  0.00  0.00    +0.136 C 
ENDBRANCH  30  31
ENDBRANCH   5  30
TORSDOF 10
