REMARK  Name = ZINC33514356
REMARK  10 active torsions:
REMARK  status: ('A' for Active; 'I' for Inactive)
REMARK    1  A    between atoms: C_1  and  C_2
REMARK    2  A    between atoms: C_2  and  C_40
REMARK    3  A    between atoms: C_7  and  C_11
REMARK    4  A    between atoms: N_13  and  C_14
REMARK    5  A    between atoms: C_14  and  C_15
REMARK    6  A    between atoms: C_15  and  N_16
REMARK    7  A    between atoms: N_16  and  C_17
REMARK    8  A    between atoms: C_27  and  C_29
REMARK    9  A    between atoms: C_35  and  C_38
REMARK   10  A    between atoms: C_35  and  C_39
REMARK                            x       y       z     vdW  Elec       q    Type
REMARK                         _______ _______ _______ _____ _____    ______ ____
ROOT
ATOM      1  N   UNL     1      -5.607   4.967  -3.316  0.00  0.00    -0.269 N 
ATOM      2  C   UNL     1      -5.405   5.169  -4.633  0.00  0.00    +0.230 C 
ATOM      3  O   UNL     1      -4.405   4.738  -5.167  0.00  0.00    -0.274 OA
ENDROOT
BRANCH   1   4
ATOM      4  C   UNL     1      -6.815   5.345  -2.729  0.00  0.00    +0.044 A 
ATOM      5  C   UNL     1      -7.050   6.666  -2.411  0.00  0.00    +0.024 A 
ATOM      6  C   UNL     1      -8.253   7.054  -1.829  0.00  0.00    +0.002 A 
ATOM      7  C   UNL     1      -9.226   6.143  -1.549  0.00  0.00    +0.008 A 
ATOM      8  C   UNL     1      -9.024   4.786  -1.853  0.00  0.00    -0.016 A 
ATOM      9  C   UNL     1      -7.805   4.379  -2.450  0.00  0.00    +0.004 A 
ATOM     10  C   UNL     1      -7.604   3.023  -2.752  0.00  0.00    +0.010 A 
ATOM     11  C   UNL     1      -8.581   2.118  -2.468  0.00  0.00    +0.001 A 
ATOM     12  C   UNL     1      -9.780   2.517  -1.881  0.00  0.00    +0.001 A 
ATOM     13  C   UNL     1     -10.009   3.823  -1.574  0.00  0.00    +0.008 A 
ENDBRANCH   1   4
BRANCH   2  14
ATOM     14  C   UNL     1      -6.422   5.931  -5.443  0.00  0.00    +0.069 C 
ATOM     15  C   UNL     1      -7.107   7.130  -4.719  0.00  0.00    +0.021 C 
ATOM     16  C   UNL     1      -7.664   8.009  -5.862  0.00  0.00    +0.006 C 
ATOM     17  C   UNL     1      -7.267   7.250  -7.166  0.00  0.00    +0.000 C 
ATOM     18  C   UNL     1      -5.885   6.641  -6.736  0.00  0.00    +0.025 C 
ATOM     19  C   UNL     1      -8.153   5.966  -7.149  0.00  0.00    -0.010 C 
ATOM     20  C   UNL     1      -7.573   5.099  -6.026  0.00  0.00    -0.056 C 
ATOM     21  C   UNL     1      -7.978   3.917  -5.632  0.00  0.00    +0.009 C 
ATOM     22  C   UNL     1      -9.611   6.329  -6.859  0.00  0.00    +0.016 C 
ATOM     23  C   UNL     1      -8.043   5.226  -8.483  0.00  0.00    +0.016 C 
ENDBRANCH   2  14
BRANCH   1  24
ATOM     24  C   UNL     1      -4.558   4.349  -2.501  0.00  0.00    +0.132 C 
BRANCH  24  25
ATOM     25  C   UNL     1      -3.646   5.438  -1.932  0.00  0.00    +0.123 C 
BRANCH  25  28
ATOM     26  C   UNL     1      -1.672   5.591  -0.512  0.00  0.00    +0.223 C 
ATOM     27  O   UNL     1      -1.708   6.797  -0.642  0.00  0.00    -0.275 OA
ATOM     28  N   UNL     1      -2.597   4.820  -1.117  0.00  0.00    -0.313 N 
ATOM     29  H   UNL     1      -2.565   3.727  -0.999  0.00  0.00    +0.149 HD
BRANCH  26  35
ATOM     30  C   UNL     1       1.755   2.419   0.943  0.00  0.00    +0.016 C 
ATOM     31  C   UNL     1       1.573   3.865   0.476  0.00  0.00    -0.010 C 
ATOM     32  C   UNL     1       1.288   4.797   1.693  0.00  0.00    +0.000 C 
ATOM     33  C   UNL     1       0.163   4.059   2.486  0.00  0.00    +0.006 C 
ATOM     34  C   UNL     1      -1.083   4.160   1.575  0.00  0.00    +0.021 C 
ATOM     35  C   UNL     1      -0.594   4.956   0.327  0.00  0.00    +0.068 C 
ATOM     36  C   UNL     1       0.450   5.924   0.989  0.00  0.00    +0.025 C 
ATOM     37  C   UNL     1       0.340   3.984  -0.408  0.00  0.00    -0.056 C 
ATOM     38  C   UNL     1       0.122   3.385  -1.552  0.00  0.00    +0.009 C 
ATOM     39  C   UNL     1       2.817   4.339  -0.279  0.00  0.00    +0.016 C 
ENDBRANCH  26  35
ENDBRANCH  25  28
ENDBRANCH  24  25
ENDBRANCH   1  24
TORSDOF 6
