REMARK  Name = ZINC41585973
REMARK  7 active torsions:
REMARK  status: ('A' for Active; 'I' for Inactive)
REMARK    1  A    between atoms: C_1  and  O_2
REMARK    2  A    between atoms: O_2  and  C_3
REMARK    3  A    between atoms: C_8  and  O_9
REMARK    4  A    between atoms: O_9  and  C_10
REMARK    5  A    between atoms: C_19  and  O_34
REMARK    6  A    between atoms: C_20  and  C_21
REMARK    7  A    between atoms: C_21  and  N_22
REMARK                            x       y       z     vdW  Elec       q    Type
REMARK                         _______ _______ _______ _____ _____    ______ ____
ROOT
ATOM      1  C   UNL     1       0.115  -4.107   0.168  0.00  0.00    +0.210 A 
ATOM      2  C   UNL     1       0.656  -4.769   1.210  0.00  0.00    +0.245 A 
ATOM      3  O   UNL     1       0.664  -6.106   1.294  0.00  0.00    -0.459 OA
ATOM      4  C   UNL     1       0.130  -6.893   0.338  0.00  0.00    +0.147 A 
ATOM      5  C   UNL     1      -0.462  -6.310  -0.796  0.00  0.00    +0.068 A 
ATOM      6  C   UNL     1      -0.482  -4.840  -0.896  0.00  0.00    +0.235 A 
ATOM      7  O   UNL     1      -0.985  -4.275  -1.853  0.00  0.00    -0.283 OA
ATOM      8  C   UNL     1      -1.019  -7.114  -1.791  0.00  0.00    +0.019 A 
ATOM      9  C   UNL     1      -0.987  -8.473  -1.660  0.00  0.00    +0.046 A 
ATOM     10  C   UNL     1      -0.402  -9.059  -0.540  0.00  0.00    +0.125 A 
ATOM     11  C   UNL     1       0.155  -8.275   0.456  0.00  0.00    +0.051 A 
ENDROOT
BRANCH  10  12
ATOM     12  O   UNL     1      -0.378 -10.412  -0.424  0.00  0.00    -0.506 OA
ATOM     13  H   UNL     1       0.407 -10.825  -0.808  0.00  0.00    +0.292 HD
ENDBRANCH  10  12
BRANCH   1  14
ATOM     14  O   UNL     1       0.135  -2.746   0.136  0.00  0.00    -0.445 OA
BRANCH  14  20
ATOM     15  C   UNL     1       0.852  -0.758  -0.966  0.00  0.00    +0.162 A 
ATOM     16  C   UNL     1       1.632  -0.145  -1.934  0.00  0.00    +0.049 A 
ATOM     17  C   UNL     1       2.446  -0.908  -2.750  0.00  0.00    +0.004 A 
ATOM     18  C   UNL     1       2.484  -2.282  -2.604  0.00  0.00    +0.004 A 
ATOM     19  C   UNL     1       1.708  -2.900  -1.641  0.00  0.00    +0.050 A 
ATOM     20  C   UNL     1       0.894  -2.141  -0.815  0.00  0.00    +0.170 A 
BRANCH  15  22
ATOM     21  C   UNL     1       0.058   1.405  -0.374  0.00  0.00    +0.277 C 
ATOM     22  O   UNL     1       0.051  -0.009  -0.162  0.00  0.00    -0.491 OA
ENDBRANCH  15  22
ENDBRANCH  14  20
ENDBRANCH   1  14
BRANCH  11  23
ATOM     23  C   UNL     1       0.785  -8.920   1.664  0.00  0.00    +0.127 C 
BRANCH  23  24
ATOM     24  N   UNL     1      -0.230  -9.096   2.711  0.00  0.00    -0.295 NA
ATOM     25  C   UNL     1      -1.260 -10.056   2.290  0.00  0.00    +0.103 C 
ATOM     26  C   UNL     1      -2.389 -10.075   3.326  0.00  0.00    +0.122 C 
ATOM     27  N   UNL     1      -1.804 -10.331   4.650  0.00  0.00    -0.314 N 
ATOM     28  C   UNL     1      -0.674  -9.496   5.086  0.00  0.00    +0.122 C 
ATOM     29  C   UNL     1       0.388  -9.500   3.981  0.00  0.00    +0.103 C 
ATOM     30  C   UNL     1      -2.305 -11.336   5.469  0.00  0.00    +0.099 A 
ATOM     31  C   UNL     1      -1.822 -11.474   6.767  0.00  0.00    +0.042 A 
ATOM     32  C   UNL     1      -2.329 -12.479   7.570  0.00  0.00    +0.005 A 
ATOM     33  C   UNL     1      -3.307 -13.315   7.048  0.00  0.00    +0.018 A 
ATOM     34  C   UNL     1      -3.741 -13.121   5.752  0.00  0.00    +0.084 A 
ATOM     35  N   UNL     1      -3.243 -12.151   5.010  0.00  0.00    -0.350 N 
ATOM     36  H   UNL     1      -3.568 -12.034   4.103  0.00  0.00    +0.166 HD
ENDBRANCH  23  24
ENDBRANCH  11  23
TORSDOF 6
