REMARK  Name = ZINC13499860
REMARK  10 active torsions:
REMARK  status: ('A' for Active; 'I' for Inactive)
REMARK    1  A    between atoms: C_1  and  C_2
REMARK    2  A    between atoms: C_2  and  C_3
REMARK    3  A    between atoms: C_11  and  C_15
REMARK    4  A    between atoms: C_18  and  S_21
REMARK    5  A    between atoms: S_21  and  C_22
REMARK    6  A    between atoms: C_22  and  C_23
REMARK    7  A    between atoms: N_25  and  C_26
REMARK    8  A    between atoms: C_29  and  N_32
REMARK    9  A    between atoms: N_32  and  C_33
REMARK   10  A    between atoms: N_32  and  C_34
REMARK                            x       y       z     vdW  Elec       q    Type
REMARK                         _______ _______ _______ _____ _____    ______ ____
ROOT
ATOM      1  C   UNL     1      -0.721   3.968   0.036  0.00  0.00    +0.118 A 
ATOM      2  N   UNL     1      -0.978   2.691   0.031  0.00  0.00    -0.226 NA
ATOM      3  C   UNL     1      -0.017   1.772   0.032  0.00  0.00    +0.114 A 
ATOM      4  C   UNL     1       1.345   2.108   0.030  0.00  0.00    +0.056 A 
ATOM      5  C   UNL     1       2.268   1.032   0.025  0.00  0.00    -0.024 A 
ATOM      6  C   UNL     1       1.768  -0.225   0.024  0.00  0.00    -0.004 A 
ATOM      7  S   UNL     1       0.008  -0.004   0.028  0.00  0.00    -0.073 S 
ATOM      8  C   UNL     1       2.533  -1.511   0.020  0.00  0.00    +0.046 C 
ATOM      9  C   UNL     1       3.993  -1.206   0.387  0.00  0.00    -0.009 C 
ATOM     10  C   UNL     1       4.471  -0.016  -0.450  0.00  0.00    +0.008 C 
ATOM     11  C   UNL     1       3.778   1.263   0.020  0.00  0.00    +0.037 C 
ATOM     12  C   UNL     1       4.864  -2.428   0.085  0.00  0.00    +0.008 C 
ATOM     13  C   UNL     1       1.625   3.561   0.033  0.00  0.00    +0.173 A 
ATOM     14  N   UNL     1       0.561   4.436   0.035  0.00  0.00    -0.257 N 
ATOM     15  C   UNL     1       1.117   5.685   0.037  0.00  0.00    +0.198 A 
ATOM     16  N   UNL     1       2.421   5.530   0.036  0.00  0.00    -0.122 NA
ATOM     17  N   UNL     1       2.722   4.277   0.034  0.00  0.00    -0.128 NA
ENDROOT
BRANCH   1  19
ATOM     18  C   UNL     1      -2.252   5.285  -1.403  0.00  0.00    +0.012 C 
ATOM     19  C   UNL     1      -1.864   4.950   0.039  0.00  0.00    +0.071 C 
ENDBRANCH   1  19
BRANCH  15  20
ATOM     20  S   UNL     1       0.247   7.217   0.040  0.00  0.00    -0.076 S 
BRANCH  20  21
ATOM     21  C   UNL     1       1.561   8.468   0.041  0.00  0.00    +0.173 C 
BRANCH  21  22
ATOM     22  C   UNL     1       0.945   9.843   0.043  0.00  0.00    +0.227 C 
ATOM     23  O   UNL     1      -0.262   9.967   0.044  0.00  0.00    -0.275 OA
ATOM     24  N   UNL     1       1.734  10.935   0.045  0.00  0.00    -0.285 N 
ATOM     25  H   UNL     1       2.697  10.838   0.112  0.00  0.00    +0.155 HD
BRANCH  24  26
ATOM     26  C   UNL     1       1.164  12.212  -0.051  0.00  0.00    +0.034 A 
ATOM     27  C   UNL     1       1.827  13.218  -0.743  0.00  0.00    +0.025 A 
ATOM     28  C   UNL     1       1.263  14.474  -0.841  0.00  0.00    +0.025 A 
ATOM     29  C   UNL     1       0.039  14.735  -0.240  0.00  0.00    +0.029 A 
ATOM     30  C   UNL     1      -0.621  13.731   0.457  0.00  0.00    +0.025 A 
ATOM     31  C   UNL     1      -0.059  12.473   0.551  0.00  0.00    +0.025 A 
BRANCH  29  32
ATOM     32  N   UNL     1      -0.530  16.010  -0.336  0.00  0.00    -0.336 N 
ATOM     33  C   UNL     1      -1.766  16.317   0.389  0.00  0.00    +0.129 C 
ATOM     34  C   UNL     1       0.110  17.037  -1.161  0.00  0.00    +0.129 C 
ENDBRANCH  29  32
ENDBRANCH  24  26
ENDBRANCH  21  22
ENDBRANCH  20  21
ENDBRANCH  15  20
TORSDOF 6
