REMARK  Name = ZINC04235307
REMARK  6 active torsions:
REMARK  status: ('A' for Active; 'I' for Inactive)
REMARK    1  A    between atoms: C_12  and  S_18
REMARK    2  A    between atoms: C_13  and  N_17
REMARK    3  A    between atoms: S_18  and  C_19
REMARK    4  A    between atoms: C_20  and  S_21
REMARK    5  A    between atoms: S_21  and  C_22
REMARK    6  A    between atoms: C_27  and  N_28
REMARK                            x       y       z     vdW  Elec       q    Type
REMARK                         _______ _______ _______ _____ _____    ______ ____
ROOT
ATOM      1  C   UNL     1      -3.659   7.269  -2.644  0.00  0.00    +0.053 C 
ATOM      2  C   UNL     1      -4.717   8.075  -2.703  0.00  0.00    +0.053 C 
ENDROOT
BRANCH   1   3
ATOM      3  S   UNL     1      -3.852   5.540  -2.922  0.00  0.00    -0.095 S 
BRANCH   3  15
ATOM      4  C   UNL     1       3.950   0.689  -2.842  0.00  0.00    +0.001 A 
ATOM      5  C   UNL     1       2.956  -0.274  -2.863  0.00  0.00    +0.001 A 
ATOM      6  C   UNL     1       1.624   0.095  -2.887  0.00  0.00    +0.012 A 
ATOM      7  C   UNL     1       1.278   1.444  -2.877  0.00  0.00    +0.033 A 
ATOM      8  C   UNL     1       2.287   2.423  -2.855  0.00  0.00    +0.033 A 
ATOM      9  C   UNL     1       3.624   2.033  -2.838  0.00  0.00    +0.012 A 
ATOM     10  C   UNL     1       1.929   3.856  -2.851  0.00  0.00    +0.195 C 
ATOM     11  O   UNL     1       2.803   4.702  -2.833  0.00  0.00    -0.287 OA
ATOM     12  C   UNL     1       0.515   4.259  -2.869  0.00  0.00    +0.035 A 
ATOM     13  C   UNL     1       0.171   5.611  -2.864  0.00  0.00    +0.013 A 
ATOM     14  C   UNL     1      -1.156   5.991  -2.880  0.00  0.00    +0.017 A 
ATOM     15  C   UNL     1      -2.164   5.036  -2.902  0.00  0.00    +0.034 A 
ATOM     16  C   UNL     1      -1.840   3.667  -2.907  0.00  0.00    +0.050 A 
ATOM     17  C   UNL     1      -0.499   3.276  -2.890  0.00  0.00    +0.055 A 
ATOM     18  C   UNL     1      -0.143   1.848  -2.895  0.00  0.00    +0.196 C 
ATOM     19  O   UNL     1      -1.017   1.002  -2.914  0.00  0.00    -0.287 OA
BRANCH  16  20
ATOM     20  N   UNL     1      -2.844   2.713  -2.929  0.00  0.00    -0.357 N 
ATOM     21  H   UNL     1      -2.648   1.796  -2.679  0.00  0.00    +0.142 HD
ATOM     22  H   UNL     1      -3.743   2.962  -3.195  0.00  0.00    +0.142 HD
ENDBRANCH  16  20
ENDBRANCH   3  15
ENDBRANCH   1   3
BRANCH   2  23
ATOM     23  S   UNL     1      -4.523   9.805  -2.425  0.00  0.00    -0.095 S 
BRANCH  23  24
ATOM     24  C   UNL     1      -6.212  10.309  -2.445  0.00  0.00    +0.034 A 
ATOM     25  C   UNL     1      -7.220   9.353  -2.470  0.00  0.00    +0.017 A 
ATOM     26  C   UNL     1      -8.547   9.733  -2.481  0.00  0.00    +0.013 A 
ATOM     27  C   UNL     1      -8.891  11.085  -2.477  0.00  0.00    +0.035 A 
ATOM     28  C   UNL     1      -7.876  12.069  -2.457  0.00  0.00    +0.055 A 
ATOM     29  C   UNL     1      -6.536  11.678  -2.441  0.00  0.00    +0.050 A 
ATOM     30  C   UNL     1      -8.232  13.496  -2.453  0.00  0.00    +0.196 C 
ATOM     31  O   UNL     1      -7.358  14.342  -2.435  0.00  0.00    -0.287 OA
ATOM     32  C   UNL     1      -9.653  13.900  -2.469  0.00  0.00    +0.033 A 
ATOM     33  C   UNL     1     -10.000  15.249  -2.465  0.00  0.00    +0.012 A 
ATOM     34  C   UNL     1     -11.332  15.618  -2.481  0.00  0.00    +0.001 A 
ATOM     35  C   UNL     1     -12.326  14.655  -2.501  0.00  0.00    +0.001 A 
ATOM     36  C   UNL     1     -12.000  13.312  -2.505  0.00  0.00    +0.012 A 
ATOM     37  C   UNL     1     -10.663  12.921  -2.489  0.00  0.00    +0.033 A 
ATOM     38  C   UNL     1     -10.305  11.489  -2.493  0.00  0.00    +0.195 C 
ATOM     39  O   UNL     1     -11.179  10.643  -2.510  0.00  0.00    -0.287 OA
BRANCH  29  40
ATOM     40  N   UNL     1      -5.532  12.632  -2.422  0.00  0.00    -0.357 N 
ATOM     41  H   UNL     1      -4.625  12.386  -2.665  0.00  0.00    +0.142 HD
ATOM     42  H   UNL     1      -5.735  13.544  -2.165  0.00  0.00    +0.142 HD
ENDBRANCH  29  40
ENDBRANCH  23  24
ENDBRANCH   2  23
TORSDOF 6
