REMARK  Name = ZINC36024800
REMARK  8 active torsions:
REMARK  status: ('A' for Active; 'I' for Inactive)
REMARK    1  A    between atoms: C_1  and  C_2
REMARK    2  A    between atoms: C_6  and  N_8
REMARK    3  A    between atoms: N_8  and  C_9
REMARK    4  A    between atoms: C_9  and  N_11
REMARK    5  A    between atoms: C_18  and  C_33
REMARK    6  A    between atoms: N_22  and  C_23
REMARK    7  A    between atoms: C_23  and  C_24
REMARK    8  A    between atoms: C_33  and  C_34
REMARK                            x       y       z     vdW  Elec       q    Type
REMARK                         _______ _______ _______ _____ _____    ______ ____
ROOT
ATOM      1  N   UNL     1       0.446  -4.167   3.688  0.00  0.00    -0.312 N 
ATOM      2  C   UNL     1       0.385  -3.624   5.052  0.00  0.00    +0.107 C 
ATOM      3  C   UNL     1      -1.001  -3.916   5.637  0.00  0.00    +0.025 C 
ATOM      4  C   UNL     1      -1.288  -5.413   5.535  0.00  0.00    +0.006 C 
ATOM      5  C   UNL     1      -1.270  -5.859   4.074  0.00  0.00    +0.025 C 
ATOM      6  C   UNL     1       0.108  -5.581   3.475  0.00  0.00    +0.107 C 
ATOM      7  N   UNL     1      -2.609  -5.709   6.130  0.00  0.00    +0.401 N 
ATOM      8  C   UNL     1      -2.415  -7.054   6.725  0.00  0.00    +0.023 C 
ATOM      9  C   UNL     1      -0.932  -7.140   7.011  0.00  0.00    +0.201 C 
ATOM     10  O   UNL     1      -0.397  -7.942   7.747  0.00  0.00    -0.277 OA
ATOM     11  N   UNL     1      -0.304  -6.173   6.310  0.00  0.00    -0.309 N 
ATOM     12  H   UNL     1      -2.838  -5.034   6.844  0.00  0.00    -0.082 HD
ATOM     13  H   UNL     1      -3.323  -5.734   5.418  0.00  0.00    -0.082 HD
ENDROOT
BRANCH   1  14
ATOM     14  C   UNL     1       0.800  -3.382   2.651  0.00  0.00    +0.137 C 
ATOM     15  S   UNL     1       0.733  -3.993   1.053  0.00  0.00    -0.018 S 
BRANCH  14  16
ATOM     16  N   UNL     1       1.207  -2.117   2.873  0.00  0.00    -0.297 N 
ATOM     17  H   UNL     1       1.328  -1.798   3.781  0.00  0.00    +0.154 HD
BRANCH  16  23
ATOM     18  C   UNL     1      -0.148  -0.313  -1.495  0.00  0.00    +0.044 C 
ATOM     19  C   UNL     1       0.815  -0.369  -0.338  0.00  0.00    -0.049 A 
ATOM     20  C   UNL     1       1.948   0.425  -0.344  0.00  0.00    +0.003 A 
ATOM     21  C   UNL     1       2.835   0.377   0.716  0.00  0.00    +0.002 A 
ATOM     22  C   UNL     1       2.592  -0.465   1.784  0.00  0.00    +0.023 A 
ATOM     23  C   UNL     1       1.456  -1.263   1.793  0.00  0.00    +0.033 A 
ATOM     24  C   UNL     1       0.564  -1.208   0.729  0.00  0.00    +0.026 A 
ENDBRANCH  16  23
ENDBRANCH  14  16
ENDBRANCH   1  14
BRANCH  11  25
ATOM     25  C   UNL     1       1.139  -5.922   6.321  0.00  0.00    +0.141 C 
BRANCH  25  26
ATOM     26  C   UNL     1       1.511  -5.179   7.579  0.00  0.00    -0.026 A 
ATOM     27  C   UNL     1       1.092  -3.874   7.758  0.00  0.00    +0.009 A 
ATOM     28  C   UNL     1       1.429  -3.189   8.910  0.00  0.00    +0.050 A 
ATOM     29  C   UNL     1       2.189  -3.809   9.888  0.00  0.00    +0.166 A 
ATOM     30  C   UNL     1       2.611  -5.124   9.707  0.00  0.00    +0.167 A 
ATOM     31  C   UNL     1       2.264  -5.807   8.553  0.00  0.00    +0.054 A 
ATOM     32  O   UNL     1       3.337  -5.503  10.800  0.00  0.00    -0.453 OA
ATOM     33  C   UNL     1       3.699  -4.279  11.465  0.00  0.00    +0.466 C 
ATOM     34  O   UNL     1       2.650  -3.365  11.094  0.00  0.00    -0.453 OA
ENDBRANCH  25  26
ENDBRANCH  11  25
BRANCH   8  35
ATOM     35  C   UNL     1      -3.219  -7.184   8.020  0.00  0.00    +0.028 C 
BRANCH  35  36
ATOM     36  C   UNL     1      -4.691  -7.106   7.708  0.00  0.00    -0.048 A 
ATOM     37  C   UNL     1      -5.332  -5.881   7.700  0.00  0.00    +0.003 A 
ATOM     38  C   UNL     1      -6.682  -5.809   7.413  0.00  0.00    +0.000 A 
ATOM     39  C   UNL     1      -7.392  -6.963   7.135  0.00  0.00    +0.000 A 
ATOM     40  C   UNL     1      -6.751  -8.188   7.143  0.00  0.00    +0.000 A 
ATOM     41  C   UNL     1      -5.400  -8.259   7.425  0.00  0.00    +0.003 A 
ENDBRANCH  35  36
ENDBRANCH   8  35
TORSDOF 7
