REMARK  Name = ZINC39677009
REMARK  9 active torsions:
REMARK  status: ('A' for Active; 'I' for Inactive)
REMARK    1  A    between atoms: C_1  and  C_2
REMARK    2  A    between atoms: C_5  and  C_35
REMARK    3  A    between atoms: C_6  and  C_8
REMARK    4  A    between atoms: C_8  and  C_9
REMARK    5  A    between atoms: C_9  and  N_10
REMARK    6  A    between atoms: C_11  and  C_13
REMARK    7  A    between atoms: C_24  and  C_26
REMARK    8  A    between atoms: C_28  and  O_33
REMARK    9  A    between atoms: O_33  and  C_34
REMARK                            x       y       z     vdW  Elec       q    Type
REMARK                         _______ _______ _______ _____ _____    ______ ____
ROOT
ATOM      1  C   UNL     1       3.042  -4.961   5.404  0.00  0.00    +0.100 C 
ATOM      2  C   UNL     1       2.061  -6.152   5.480  0.00  0.00    +0.121 C 
ATOM      3  N   UNL     1       2.915  -7.352   5.317  0.00  0.00    -0.296 N 
ATOM      4  C   UNL     1       4.141  -7.039   6.089  0.00  0.00    +0.115 C 
ATOM      5  C   UNL     1       4.405  -5.547   5.808  0.00  0.00    -0.004 C 
ATOM      6  C   UNL     1       5.405  -5.395   4.665  0.00  0.00    -0.010 C 
ATOM      7  C   UNL     1       6.768  -5.933   5.111  0.00  0.00    -0.082 C 
ATOM      8  N   UNL     1       7.227  -5.190   6.291  0.00  0.00    +0.379 N 
ATOM      9  C   UNL     1       6.308  -5.416   7.414  0.00  0.00    -0.082 C 
ATOM     10  C   UNL     1       4.926  -4.857   7.065  0.00  0.00    -0.010 C 
ATOM     11  C   UNL     1       2.639  -8.474   4.623  0.00  0.00    +0.248 C 
ATOM     12  O   UNL     1       3.406  -9.417   4.663  0.00  0.00    -0.270 OA
ATOM     13  H   UNL     1       8.151  -5.504   6.546  0.00  0.00    -0.086 HD
ATOM     14  H   UNL     1       7.257  -4.205   6.076  0.00  0.00    -0.086 HD
ENDROOT
BRANCH  11  15
ATOM     15  C   UNL     1       1.405  -8.559   3.814  0.00  0.00    +0.054 A 
ATOM     16  C   UNL     1       0.231  -7.951   4.261  0.00  0.00    +0.059 A 
ATOM     17  C   UNL     1      -0.920  -8.034   3.498  0.00  0.00    +0.121 A 
ATOM     18  C   UNL     1      -0.907  -8.720   2.291  0.00  0.00    +0.047 A 
ATOM     19  C   UNL     1       0.254  -9.323   1.846  0.00  0.00    +0.019 A 
ATOM     20  C   UNL     1       1.411  -9.242   2.596  0.00  0.00    +0.030 A 
ATOM     21 BR   UNL     1       2.999 -10.063   1.979  0.00  0.00    -0.050 Br
BRANCH  17  22
ATOM     22  O   UNL     1      -2.066  -7.443   3.931  0.00  0.00    -0.495 OA
ATOM     23  C   UNL     1      -3.216  -7.568   3.093  0.00  0.00    +0.277 C 
ENDBRANCH  17  22
ENDBRANCH  11  15
BRANCH   1  25
ATOM     24  N   UNL     1       3.416  -3.124   3.791  0.00  0.00    -0.315 N 
ATOM     25  C   UNL     1       3.100  -4.417   4.000  0.00  0.00    +0.218 C 
ATOM     26  O   UNL     1       2.861  -5.143   3.058  0.00  0.00    -0.275 OA
ATOM     27  H   UNL     1       3.607  -2.543   4.545  0.00  0.00    +0.149 HD
BRANCH  24  28
ATOM     28  C   UNL     1       3.472  -2.595   2.426  0.00  0.00    +0.109 C 
BRANCH  28  29
ATOM     29  C   UNL     1       3.851  -1.113   2.469  0.00  0.00    +0.054 C 
BRANCH  29  35
ATOM     30  C   UNL     1       6.484   0.039  -1.628  0.00  0.00    +0.044 C 
ATOM     31  C   UNL     1       5.168  -0.017  -0.895  0.00  0.00    -0.050 A 
ATOM     32  C   UNL     1       4.014   0.431  -1.511  0.00  0.00    +0.003 A 
ATOM     33  C   UNL     1       2.808   0.380  -0.839  0.00  0.00    +0.004 A 
ATOM     34  C   UNL     1       2.755  -0.120   0.449  0.00  0.00    -0.047 A 
ATOM     35  C   UNL     1       3.908  -0.569   1.065  0.00  0.00    -0.043 A 
ATOM     36  C   UNL     1       5.115  -0.521   0.391  0.00  0.00    +0.007 A 
ATOM     37  C   UNL     1       1.440  -0.175   1.183  0.00  0.00    +0.044 C 
ENDBRANCH  29  35
ENDBRANCH  28  29
ENDBRANCH  24  28
ENDBRANCH   1  25
TORSDOF 6
