REMARK  Name = ZINC24085827
REMARK  10 active torsions:
REMARK  status: ('A' for Active; 'I' for Inactive)
REMARK    1  A    between atoms: C_1  and  C_2
REMARK    2  A    between atoms: C_5  and  O_9
REMARK    3  A    between atoms: C_6  and  C_8
REMARK    4  A    between atoms: O_9  and  C_10
REMARK    5  A    between atoms: C_10  and  C_11
REMARK    6  A    between atoms: C_11  and  C_13
REMARK    7  A    between atoms: C_11  and  O_33
REMARK    8  A    between atoms: C_13  and  N_14
REMARK    9  A    between atoms: C_17  and  C_21
REMARK   10  A    between atoms: C_17  and  C_22
REMARK                            x       y       z     vdW  Elec       q    Type
REMARK                         _______ _______ _______ _____ _____    ______ ____
ROOT
ATOM      1  N   UNL     1      -0.145  -8.425  -2.274  0.00  0.00    -0.221 N 
ATOM      2  C   UNL     1       0.913  -9.258  -2.227  0.00  0.00    +0.251 C 
ATOM      3  O   UNL     1       2.084  -8.961  -2.333  0.00  0.00    -0.272 OA
ATOM      4  C   UNL     1       0.336 -10.643  -2.014  0.00  0.00    +0.135 C 
ATOM      5  N   UNL     1      -1.117 -10.408  -1.961  0.00  0.00    -0.281 N 
ATOM      6  C   UNL     1      -1.299  -9.085  -2.117  0.00  0.00    +0.310 C 
ATOM      7  O   UNL     1      -2.389  -8.548  -2.118  0.00  0.00    -0.252 OA
ATOM      8  C   UNL     1       0.690 -11.560  -3.187  0.00  0.00    +0.047 C 
ATOM      9  H   UNL     1      -1.808 -11.077  -1.835  0.00  0.00    +0.152 HD
ENDROOT
BRANCH   4  10
ATOM     10  C   UNL     1       0.827 -11.229  -0.715  0.00  0.00    -0.012 A 
ATOM     11  C   UNL     1       2.068 -10.869  -0.223  0.00  0.00    +0.010 A 
ATOM     12  C   UNL     1       2.525 -11.402   0.970  0.00  0.00    +0.050 A 
ATOM     13  C   UNL     1       1.733 -12.297   1.669  0.00  0.00    +0.162 A 
ATOM     14  C   UNL     1       0.488 -12.658   1.175  0.00  0.00    +0.162 A 
ATOM     15  C   UNL     1       0.032 -12.119  -0.016  0.00  0.00    +0.055 A 
ATOM     16  O   UNL     1      -0.285 -13.540   1.873  0.00  0.00    -0.488 OA
ATOM     17  C   UNL     1       0.198 -14.884   1.930  0.00  0.00    +0.232 C 
ATOM     18  C   UNL     1       1.206 -15.047   3.057  0.00  0.00    +0.082 C 
ATOM     19  C   UNL     1       2.467 -14.227   2.830  0.00  0.00    +0.232 C 
ATOM     20  O   UNL     1       2.171 -12.829   2.847  0.00  0.00    -0.488 OA
ENDBRANCH   4  10
BRANCH   1  21
ATOM     21  C   UNL     1      -0.045  -6.977  -2.466  0.00  0.00    +0.152 C 
BRANCH  21  22
ATOM     22  C   UNL     1       0.079  -6.289  -1.105  0.00  0.00    +0.170 C 
BRANCH  22  23
ATOM     23  O   UNL     1       1.308  -6.674  -0.487  0.00  0.00    -0.387 OA
ATOM     24  H   UNL     1       2.096  -6.440  -0.997  0.00  0.00    +0.210 HD
ENDBRANCH  22  23
BRANCH  22  25
ATOM     25  C   UNL     1       0.058  -4.771  -1.298  0.00  0.00    +0.262 C 
BRANCH  25  26
ATOM     26  O   UNL     1       0.057  -4.129  -0.021  0.00  0.00    -0.489 OA
BRANCH  26  31
ATOM     27  C   UNL     1      -0.018   1.503   0.010  0.00  0.00    +0.044 C 
ATOM     28  C   UNL     1       0.002  -0.004   0.002  0.00  0.00    -0.050 A 
ATOM     29  C   UNL     1       0.006  -0.688  -1.200  0.00  0.00    +0.007 A 
ATOM     30  C   UNL     1       0.024  -2.069  -1.210  0.00  0.00    +0.046 A 
ATOM     31  C   UNL     1       0.039  -2.770  -0.013  0.00  0.00    +0.124 A 
ATOM     32  C   UNL     1       0.036  -2.082   1.191  0.00  0.00    -0.009 A 
ATOM     33  C   UNL     1       0.023  -0.701   1.196  0.00  0.00    +0.010 A 
ATOM     34  C   UNL     1       0.052  -2.841   2.493  0.00  0.00    +0.047 C 
ENDBRANCH  26  31
ENDBRANCH  25  26
ENDBRANCH  22  25
ENDBRANCH  21  22
ENDBRANCH   1  21
TORSDOF 7
