REMARK  Name = ZINC14752990
REMARK  9 active torsions:
REMARK  status: ('A' for Active; 'I' for Inactive)
REMARK    1  A    between atoms: C_1  and  C_2
REMARK    2  A    between atoms: C_2  and  C_3
REMARK    3  A    between atoms: C_3  and  N_4
REMARK    4  A    between atoms: C_7  and  C_9
REMARK    5  A    between atoms: C_18  and  N_68
REMARK    6  A    between atoms: C_22  and  N_68
REMARK    7  A    between atoms: C_28  and  O_30
REMARK    8  A    between atoms: O_30  and  C_31
REMARK    9  A    between atoms: C_31  and  C_32
REMARK                            x       y       z     vdW  Elec       q    Type
REMARK                         _______ _______ _______ _____ _____    ______ ____
ROOT
ATOM      1  N   UNL     1       2.031   0.677   0.001  0.00  0.00    -0.267 N 
ATOM      2  C   UNL     1       1.282   1.791  -0.011  0.00  0.00    +0.043 A 
ATOM      3  C   UNL     1      -0.017   1.401  -0.009  0.00  0.00    +0.004 A 
ATOM      4  C   UNL     1       0.002  -0.004   0.002  0.00  0.00    +0.151 A 
ATOM      5  N   UNL     1       1.274  -0.365   0.008  0.00  0.00    -0.166 NA
ATOM      6  C   UNL     1      -1.191   2.340  -0.011  0.00  0.00    +0.023 C 
ATOM      7  C   UNL     1      -0.693   3.736   0.384  0.00  0.00    -0.067 C 
ATOM      8  C   UNL     1       0.535   4.099  -0.455  0.00  0.00    -0.009 C 
ATOM      9  C   UNL     1       1.726   3.231  -0.027  0.00  0.00    +0.054 C 
ENDROOT
BRANCH   4  10
ATOM     10  C   UNL     1      -1.171  -0.902   0.006  0.00  0.00    +0.267 C 
ATOM     11  O   UNL     1      -2.290  -0.440   0.108  0.00  0.00    -0.268 OA
ATOM     12  N   UNL     1      -0.999  -2.235  -0.104  0.00  0.00    -0.295 N 
ATOM     13  C   UNL     1       0.355  -2.790  -0.123  0.00  0.00    +0.119 C 
ATOM     14  C   UNL     1       0.568  -3.644   1.139  0.00  0.00    +0.088 C 
ATOM     15  S   UNL     1      -0.707  -4.938   1.186  0.00  0.00    -0.158 S 
ATOM     16  C   UNL     1      -2.256  -3.998   1.034  0.00  0.00    +0.088 C 
ATOM     17  C   UNL     1      -2.169  -3.108  -0.211  0.00  0.00    +0.119 C 
ENDBRANCH   4  10
BRANCH   7  18
ATOM     18  N   UNL     1      -1.764   4.720   0.139  0.00  0.00    +0.383 N 
ATOM     19  H   UNL     1      -2.674   4.286   0.333  0.00  0.00    -0.085 HD
ATOM     20  H   UNL     1      -1.731   5.020  -0.843  0.00  0.00    -0.085 HD
BRANCH  18  21
ATOM     21  C   UNL     1      -1.590   5.896   1.013  0.00  0.00    -0.069 C 
ATOM     22  C   UNL     1      -2.237   5.622   2.372  0.00  0.00    +0.003 C 
ATOM     23  C   UNL     1      -2.030   6.835   3.285  0.00  0.00    +0.109 C 
ATOM     24  N   UNL     1      -2.542   8.032   2.603  0.00  0.00    -0.268 N 
ATOM     25  C   UNL     1      -2.053   8.338   1.252  0.00  0.00    +0.109 C 
ATOM     26  C   UNL     1      -2.259   7.109   0.362  0.00  0.00    +0.003 C 
ATOM     27  C   UNL     1      -3.443   8.833   3.206  0.00  0.00    +0.403 C 
ATOM     28  O   UNL     1      -3.859   9.819   2.631  0.00  0.00    -0.226 OA
BRANCH  27  29
ATOM     29  O   UNL     1      -3.882   8.540   4.444  0.00  0.00    -0.451 OA
BRANCH  29  30
ATOM     30  C   UNL     1      -4.852   9.447   5.032  0.00  0.00    +0.230 C 
ATOM     31  C   UNL     1      -5.231   8.954   6.430  0.00  0.00    +0.048 C 
ENDBRANCH  29  30
ENDBRANCH  27  29
ENDBRANCH  18  21
ENDBRANCH   7  18
BRANCH   1  32
ATOM     32  C   UNL     1       3.496   0.650   0.005  0.00  0.00    +0.143 C 
BRANCH  32  34
ATOM     33  C   UNL     1       5.540   0.601  -1.431  0.00  0.00    +0.005 C 
ATOM     34  C   UNL     1       4.010   0.629  -1.435  0.00  0.00    +0.020 C 
ENDBRANCH  32  34
ENDBRANCH   1  32
TORSDOF 7
