REMARK  Name = ZINC12325447
REMARK  7 active torsions:
REMARK  status: ('A' for Active; 'I' for Inactive)
REMARK    1  A    between atoms: C_1  and  C_2
REMARK    2  A    between atoms: C_3  and  C_12
REMARK    3  A    between atoms: C_6  and  O_11
REMARK    4  A    between atoms: C_18  and  C_20
REMARK    5  A    between atoms: C_18  and  O_28
REMARK    6  A    between atoms: C_25  and  O_26
REMARK    7  A    between atoms: O_26  and  C_27
REMARK                            x       y       z     vdW  Elec       q    Type
REMARK                         _______ _______ _______ _____ _____    ______ ____
ROOT
ATOM      1  C   UNL     1       3.826   2.771  -3.716  0.00  0.00    +0.251 C 
ATOM      2  O   UNL     1       3.299   3.693  -4.308  0.00  0.00    -0.270 OA
ATOM      3  N   UNL     1       4.221   1.674  -4.392  0.00  0.00    -0.294 N 
ATOM      4  C   UNL     1       4.859   0.551  -3.691  0.00  0.00    +0.108 C 
ATOM      5  C   UNL     1       4.098  -0.735  -4.025  0.00  0.00    +0.022 C 
ATOM      6  C   UNL     1       4.027  -0.902  -5.544  0.00  0.00    +0.043 C 
ATOM      7  C   UNL     1       3.270   0.280  -6.154  0.00  0.00    +0.110 C 
ATOM      8  C   UNL     1       4.017   1.575  -5.844  0.00  0.00    +0.147 C 
ENDROOT
BRANCH   1  11
ATOM      9  C   UNL     1       6.343   3.920  -2.284  0.00  0.00    +0.087 C 
ATOM     10  C   UNL     1       5.121   3.349  -1.613  0.00  0.00    +0.115 A 
ATOM     11  C   UNL     1       4.033   2.852  -2.262  0.00  0.00    +0.085 A 
ATOM     12  C   UNL     1       3.102   2.412  -1.204  0.00  0.00    +0.036 A 
ATOM     13  C   UNL     1       1.839   1.829  -1.204  0.00  0.00    +0.057 A 
ATOM     14  C   UNL     1       1.223   1.533  -0.001  0.00  0.00    +0.118 A 
ATOM     15  C   UNL     1       1.863   1.823   1.200  0.00  0.00    +0.049 A 
ATOM     16  C   UNL     1       3.116   2.396   1.206  0.00  0.00    +0.050 A 
ATOM     17  C   UNL     1       3.749   2.699   0.006  0.00  0.00    +0.136 A 
ATOM     18  O   UNL     1       4.943   3.254  -0.291  0.00  0.00    -0.459 OA
BRANCH  14  19
ATOM     19  O   UNL     1      -0.011   0.963   0.007  0.00  0.00    -0.507 OA
ATOM     20  H   UNL     1       0.002  -0.004   0.002  0.00  0.00    +0.292 HD
ENDBRANCH  14  19
ENDBRANCH   1  11
BRANCH   7  21
ATOM     21  C   UNL     1       3.172   0.098  -7.647  0.00  0.00    +0.027 A 
ATOM     22  C   UNL     1       1.934   0.014  -8.254  0.00  0.00    +0.010 A 
ATOM     23  C   UNL     1       1.844  -0.148  -9.624  0.00  0.00    +0.001 A 
ATOM     24  C   UNL     1       2.993  -0.236 -10.389  0.00  0.00    +0.004 A 
ATOM     25  C   UNL     1       4.233  -0.158  -9.787  0.00  0.00    +0.046 A 
ATOM     26  C   UNL     1       4.326   0.010  -8.412  0.00  0.00    +0.126 A 
BRANCH  26  27
ATOM     27  O   UNL     1       5.545   0.088  -7.817  0.00  0.00    -0.495 OA
ATOM     28  C   UNL     1       6.690  -0.011  -8.667  0.00  0.00    +0.277 C 
ENDBRANCH  26  27
ENDBRANCH   7  21
BRANCH   7  29
ATOM     29  O   UNL     1       1.956   0.344  -5.595  0.00  0.00    -0.382 OA
ATOM     30  H   UNL     1       1.418   1.071  -5.937  0.00  0.00    +0.211 HD
ENDBRANCH   7  29
TORSDOF 5
