REMARK  Name = ZINC38806230
REMARK  13 active torsions:
REMARK  status: ('A' for Active; 'I' for Inactive)
REMARK    1  A    between atoms: C_1  and  C_2
REMARK    2  A    between atoms: C_2  and  O_3
REMARK    3  A    between atoms: O_3  and  C_4
REMARK    4  A    between atoms: C_13  and  C_14
REMARK    5  A    between atoms: N_16  and  C_17
REMARK    6  A    between atoms: C_18  and  C_30
REMARK    7  A    between atoms: C_22  and  C_28
REMARK    8  A    between atoms: C_22  and  C_29
REMARK    9  A    between atoms: C_24  and  C_26
REMARK   10  A    between atoms: C_24  and  C_27
REMARK   11  A    between atoms: C_30  and  O_32
REMARK   12  A    between atoms: O_32  and  C_33
REMARK   13  A    between atoms: C_33  and  C_34
REMARK                            x       y       z     vdW  Elec       q    Type
REMARK                         _______ _______ _______ _____ _____    ______ ____
ROOT
ATOM      1  C   UNL     1      -5.617  -0.314   1.221  0.00  0.00    +0.086 A 
ATOM      2  C   UNL     1      -6.295   0.184   2.329  0.00  0.00    +0.091 A 
ATOM      3  C   UNL     1      -7.445   1.022   2.070  0.00  0.00    -0.024 A 
ATOM      4  C   UNL     1      -7.721   1.212   0.759  0.00  0.00    -0.016 A 
ATOM      5  S   UNL     1      -6.464   0.305  -0.091  0.00  0.00    -0.079 S 
ATOM      6  C   UNL     1      -8.852   2.008   0.200  0.00  0.00    -0.041 C 
ATOM      7  N   UNL     1      -9.551   2.779   1.227  0.00  0.00    +0.389 N 
ATOM      8  C   UNL     1      -8.834   3.004   2.475  0.00  0.00    -0.069 C 
ATOM      9  C   UNL     1      -8.339   1.694   3.100  0.00  0.00    +0.024 C 
ATOM     10  C   UNL     1      -7.649   3.949   2.266  0.00  0.00    -0.010 C 
ATOM     11  C   UNL     1      -9.798   3.669   3.475  0.00  0.00    -0.010 C 
ATOM     12  C   UNL     1      -8.326   2.944  -0.898  0.00  0.00    -0.005 C 
ATOM     13  C   UNL     1      -9.853   1.033  -0.451  0.00  0.00    -0.005 C 
ATOM     14  H   UNL     1      -9.810   3.685   0.833  0.00  0.00    -0.084 HD
ATOM     15  H   UNL     1     -10.434   2.310   1.440  0.00  0.00    -0.084 HD
ENDROOT
BRANCH   1  18
ATOM     16  C   UNL     1      -3.968  -1.523   0.032  0.00  0.00    +0.253 C 
ATOM     17  O   UNL     1      -4.469  -1.158  -1.015  0.00  0.00    -0.270 OA
ATOM     18  N   UNL     1      -4.500  -1.131   1.206  0.00  0.00    -0.275 N 
ATOM     19  H   UNL     1      -4.101  -1.422   2.041  0.00  0.00    +0.156 HD
BRANCH  16  29
ATOM     20  C   UNL     1      -1.498  -1.845   0.006  0.00  0.00    +0.133 A 
ATOM     21  C   UNL     1      -0.377  -2.676  -0.003  0.00  0.00    +0.047 A 
ATOM     22  C   UNL     1      -0.490  -4.029  -0.009  0.00  0.00    +0.012 A 
ATOM     23  C   UNL     1      -1.754  -4.647  -0.006  0.00  0.00    -0.017 A 
ATOM     24  C   UNL     1      -1.881  -6.046  -0.012  0.00  0.00    +0.008 A 
ATOM     25  C   UNL     1      -3.121  -6.610  -0.009  0.00  0.00    +0.001 A 
ATOM     26  C   UNL     1      -4.268  -5.820   0.000  0.00  0.00    +0.001 A 
ATOM     27  C   UNL     1      -4.180  -4.460   0.006  0.00  0.00    +0.009 A 
ATOM     28  C   UNL     1      -2.922  -3.847   0.003  0.00  0.00    -0.002 A 
ATOM     29  C   UNL     1      -2.782  -2.391   0.016  0.00  0.00    +0.086 A 
BRANCH  20  30
ATOM     30  O   UNL     1      -1.339  -0.499   0.012  0.00  0.00    -0.491 OA
BRANCH  30  32
ATOM     31  C   UNL     1      -0.019   1.526   0.010  0.00  0.00    +0.048 C 
ATOM     32  C   UNL     1       0.002  -0.004   0.002  0.00  0.00    +0.226 C 
ENDBRANCH  30  32
ENDBRANCH  20  30
ENDBRANCH  16  29
ENDBRANCH   1  18
BRANCH   2  33
ATOM     33  C   UNL     1      -5.856  -0.134   3.689  0.00  0.00    +0.342 C 
ATOM     34  O   UNL     1      -5.051   0.585   4.252  0.00  0.00    -0.245 OA
BRANCH  33  35
ATOM     35  O   UNL     1      -6.343  -1.223   4.317  0.00  0.00    -0.461 OA
BRANCH  35  36
ATOM     36  C   UNL     1      -5.870  -1.473   5.643  0.00  0.00    +0.229 C 
ATOM     37  C   UNL     1      -6.529  -2.741   6.188  0.00  0.00    +0.048 C 
ENDBRANCH  35  36
ENDBRANCH  33  35
ENDBRANCH   2  33
TORSDOF 7
