REMARK  Name = ZINC39840103
REMARK  8 active torsions:
REMARK  status: ('A' for Active; 'I' for Inactive)
REMARK    1  A    between atoms: C_1  and  C_2
REMARK    2  A    between atoms: C_7  and  C_8
REMARK    3  A    between atoms: C_14  and  C_25
REMARK    4  A    between atoms: N_16  and  C_19
REMARK    5  A    between atoms: C_19  and  C_20
REMARK    6  A    between atoms: C_27  and  O_33
REMARK    7  A    between atoms: C_28  and  O_32
REMARK    8  A    between atoms: O_33  and  C_34
REMARK                            x       y       z     vdW  Elec       q    Type
REMARK                         _______ _______ _______ _____ _____    ______ ____
ROOT
ATOM      1  C   UNL     1      -0.018   1.503   0.010  0.00  0.00    +0.044 C 
ATOM      2  C   UNL     1       0.002  -0.004   0.002  0.00  0.00    -0.047 A 
ATOM      3  C   UNL     1       0.006  -0.685  -1.195  0.00  0.00    +0.019 A 
ATOM      4  C   UNL     1       0.024  -2.080  -1.194  0.00  0.00    +0.065 A 
ATOM      5  C   UNL     1       0.033  -2.793   0.016  0.00  0.00    +0.140 A 
ATOM      6  C   UNL     1       0.033  -2.080   1.214  0.00  0.00    +0.050 A 
ATOM      7  C   UNL     1       0.023  -0.703   1.200  0.00  0.00    -0.044 A 
ATOM      8  C   UNL     1       0.029   0.053   2.503  0.00  0.00    +0.044 C 
ATOM      9  O   UNL     1       0.037  -4.145   0.057  0.00  0.00    -0.450 OA
ATOM     10  C   UNL     1       0.273  -4.846  -1.070  0.00  0.00    +0.199 A 
ATOM     11  C   UNL     1       0.280  -4.269  -2.308  0.00  0.00    +0.072 A 
ATOM     12  C   UNL     1       0.036  -2.832  -2.474  0.00  0.00    +0.199 A 
ATOM     13  O   UNL     1      -0.140  -2.306  -3.559  0.00  0.00    -0.287 OA
ATOM     14  C   UNL     1       0.566  -5.340  -3.308  0.00  0.00    +0.145 C 
ATOM     15  N   UNL     1       0.729  -6.581  -2.533  0.00  0.00    -0.276 N 
ATOM     16  C   UNL     1       0.557  -6.283  -1.228  0.00  0.00    +0.284 C 
ATOM     17  O   UNL     1       0.627  -7.083  -0.317  0.00  0.00    -0.267 OA
ENDROOT
BRANCH  14  18
ATOM     18  C   UNL     1      -0.586  -5.474  -4.271  0.00  0.00    -0.018 A 
ATOM     19  C   UNL     1      -0.497  -4.921  -5.535  0.00  0.00    +0.055 A 
ATOM     20  C   UNL     1      -1.555  -5.043  -6.421  0.00  0.00    +0.163 A 
ATOM     21  C   UNL     1      -2.706  -5.724  -6.036  0.00  0.00    +0.173 A 
ATOM     22  C   UNL     1      -2.789  -6.277  -4.768  0.00  0.00    +0.063 A 
ATOM     23  C   UNL     1      -1.727  -6.155  -3.889  0.00  0.00    +0.025 A 
ATOM     24 BR   UNL     1      -4.351  -7.202  -4.240  0.00  0.00    -0.046 Br
BRANCH  21  25
ATOM     25  O   UNL     1      -3.748  -5.846  -6.902  0.00  0.00    -0.503 OA
ATOM     26  H   UNL     1      -3.705  -6.635  -7.459  0.00  0.00    +0.292 HD
ENDBRANCH  21  25
BRANCH  20  27
ATOM     27  O   UNL     1      -1.469  -4.499  -7.664  0.00  0.00    -0.491 OA
ATOM     28  C   UNL     1      -0.258  -3.814  -7.990  0.00  0.00    +0.277 C 
ENDBRANCH  20  27
ENDBRANCH  14  18
BRANCH  15  29
ATOM     29  C   UNL     1       1.025  -7.907  -3.081  0.00  0.00    +0.183 C 
BRANCH  29  30
ATOM     30  C   UNL     1       2.518  -8.101  -3.145  0.00  0.00    +0.122 A 
ATOM     31  C   UNL     1       3.285  -8.627  -2.173  0.00  0.00    +0.046 A 
ATOM     32  C   UNL     1       4.615  -8.621  -2.653  0.00  0.00    +0.041 A 
ATOM     33  C   UNL     1       4.581  -8.093  -3.890  0.00  0.00    +0.195 A 
ATOM     34  O   UNL     1       3.308  -7.785  -4.184  0.00  0.00    -0.466 OA
ENDBRANCH  29  30
ENDBRANCH  15  29
TORSDOF 5
