REMARK  Name = ZINC39855632
REMARK  6 active torsions:
REMARK  status: ('A' for Active; 'I' for Inactive)
REMARK    1  A    between atoms: C_1  and  C_2
REMARK    2  A    between atoms: C_6  and  C_7
REMARK    3  A    between atoms: N_9  and  C_10
REMARK    4  A    between atoms: C_19  and  C_24
REMARK    5  A    between atoms: C_19  and  C_25
REMARK    6  A    between atoms: N_22  and  O_23
REMARK                            x       y       z     vdW  Elec       q    Type
REMARK                         _______ _______ _______ _____ _____    ______ ____
ROOT
ATOM      1  C   UNL     1      -0.014   1.502   0.010  0.00  0.00    +0.048 C 
ATOM      2  C   UNL     1      -0.003  -0.005   0.002  0.00  0.00    +0.009 A 
ATOM      3  C   UNL     1      -0.007  -0.839  -1.122  0.00  0.00    +0.044 A 
ATOM      4  C   UNL     1       0.005  -2.138  -0.672  0.00  0.00    +0.116 A 
ATOM      5  O   UNL     1       0.018  -2.112   0.658  0.00  0.00    -0.454 OA
ATOM      6  C   UNL     1       0.018  -0.831   1.091  0.00  0.00    +0.193 A 
ATOM      7  C   UNL     1      -0.001  -3.328  -1.598  0.00  0.00    +0.081 C 
ATOM      8  C   UNL     1      -0.528  -2.901  -2.971  0.00  0.00    -0.023 C 
ATOM      9  C   UNL     1       0.248  -1.689  -3.495  0.00  0.00    +0.066 C 
ATOM     10  C   UNL     1      -0.019  -0.514  -2.566  0.00  0.00    +0.091 C 
ATOM     11  N   UNL     1      -0.240   0.683  -3.006  0.00  0.00    -0.091 NA
ATOM     12  C   UNL     1      -0.373  -4.063  -3.954  0.00  0.00    +0.011 C 
ATOM     13  C   UNL     1      -2.009  -2.538  -2.851  0.00  0.00    +0.011 C 
ENDROOT
BRANCH   6  14
ATOM     14  C   UNL     1       0.033  -0.400   2.493  0.00  0.00    +0.284 C 
ATOM     15  O   UNL     1       0.028   0.786   2.765  0.00  0.00    -0.266 OA
ATOM     16  N   UNL     1       0.053  -1.318   3.480  0.00  0.00    -0.279 N 
ATOM     17  H   UNL     1      -0.010  -2.262   3.265  0.00  0.00    +0.155 HD
BRANCH  16  18
ATOM     18  C   UNL     1       0.166  -0.909   4.812  0.00  0.00    +0.037 A 
ATOM     19  C   UNL     1       0.887  -1.678   5.717  0.00  0.00    +0.043 A 
ATOM     20  C   UNL     1       0.996  -1.272   7.034  0.00  0.00    +0.044 A 
ATOM     21  C   UNL     1       0.388  -0.100   7.451  0.00  0.00    +0.040 A 
ATOM     22  C   UNL     1      -0.331   0.667   6.551  0.00  0.00    +0.044 A 
ATOM     23  C   UNL     1      -0.439   0.268   5.232  0.00  0.00    +0.043 A 
ATOM     24 CL   UNL     1      -1.092   2.135   7.079  0.00  0.00    -0.083 Cl
ATOM     25 CL   UNL     1       1.897  -2.232   8.165  0.00  0.00    -0.083 Cl
ENDBRANCH  16  18
ENDBRANCH   6  14
BRANCH  11  26
ATOM     26  O   UNL     1      -0.239   0.936  -4.399  0.00  0.00    -0.409 OA
ATOM     27  H   UNL     1      -0.414   1.859  -4.631  0.00  0.00    +0.328 HD
ENDBRANCH  11  26
TORSDOF 3
