REMARK  Name = ZINC67042000
REMARK  7 active torsions:
REMARK  status: ('A' for Active; 'I' for Inactive)
REMARK    1  A    between atoms: C_1  and  C_2
REMARK    2  A    between atoms: C_6  and  C_7
REMARK    3  A    between atoms: N_9  and  N_10
REMARK    4  A    between atoms: N_13  and  C_14
REMARK    5  A    between atoms: C_14  and  C_15
REMARK    6  A    between atoms: C_15  and  C_17
REMARK    7  A    between atoms: C_15  and  N_18
REMARK                            x       y       z     vdW  Elec       q    Type
REMARK                         _______ _______ _______ _____ _____    ______ ____
ROOT
ATOM      1  N   UNL     1      -0.246  -0.744   4.878  0.00  0.00    -0.218 N 
ATOM      2  C   UNL     1      -0.123  -1.627   5.889  0.00  0.00    +0.316 C 
ATOM      3  O   UNL     1      -0.062  -1.232   7.037  0.00  0.00    -0.251 OA
ATOM      4  N   UNL     1      -0.069  -2.948   5.626  0.00  0.00    -0.300 N 
ATOM      5  H   UNL     1      -0.285   0.207   5.067  0.00  0.00    +0.174 HD
ATOM      6  H   UNL     1      -0.118  -3.263   4.710  0.00  0.00    +0.150 HD
ENDROOT
BRANCH   1   9
ATOM      7  C   UNL     1      -0.439  -0.315   2.544  0.00  0.00    +0.267 C 
ATOM      8  O   UNL     1      -0.488   0.877   2.781  0.00  0.00    -0.268 OA
ATOM      9  N   UNL     1      -0.317  -1.199   3.555  0.00  0.00    -0.229 N 
ATOM     10  H   UNL     1      -0.278  -2.149   3.366  0.00  0.00    +0.173 HD
BRANCH   7  16
ATOM     11  C   UNL     1      -0.722   1.446  -0.009  0.00  0.00    +0.045 C 
ATOM     12  C   UNL     1      -0.639  -0.059  -0.011  0.00  0.00    -0.031 A 
ATOM     13  C   UNL     1      -0.677  -0.792  -1.172  0.00  0.00    +0.011 A 
ATOM     14  C   UNL     1      -0.597  -2.143  -1.102  0.00  0.00    +0.046 A 
ATOM     15  S   UNL     1      -0.467  -2.463   0.542  0.00  0.00    -0.092 S 
ATOM     16  C   UNL     1      -0.513  -0.791   1.160  0.00  0.00    +0.078 A 
ENDBRANCH   7  16
ENDBRANCH   1   9
BRANCH   4  17
ATOM     17  C   UNL     1       0.064  -3.908   6.725  0.00  0.00    +0.090 C 
BRANCH  17  18
ATOM     18  C   UNL     1       0.007  -5.332   6.168  0.00  0.00    -0.054 C 
ATOM     19  C   UNL     1       0.232  -6.333   7.303  0.00  0.00    -0.012 C 
BRANCH  18  20
ATOM     20  N   UNL     1       1.054  -5.502   5.151  0.00  0.00    +0.385 N 
ATOM     21  C   UNL     1       0.942  -6.839   4.548  0.00  0.00    -0.073 C 
ATOM     22  C   UNL     1       1.823  -6.886   3.299  0.00  0.00    +0.017 C 
ATOM     23  C   UNL     1       3.210  -6.401   3.635  0.00  0.00    -0.048 A 
ATOM     24  C   UNL     1       4.244  -6.681   2.756  0.00  0.00    +0.004 A 
ATOM     25  C   UNL     1       5.527  -6.250   3.028  0.00  0.00    +0.000 A 
ATOM     26  C   UNL     1       5.781  -5.534   4.184  0.00  0.00    +0.000 A 
ATOM     27  C   UNL     1       4.752  -5.255   5.060  0.00  0.00    +0.002 A 
ATOM     28  C   UNL     1       3.463  -5.689   4.789  0.00  0.00    -0.061 A 
ATOM     29  C   UNL     1       2.372  -5.370   5.777  0.00  0.00    -0.042 C 
ATOM     30  H   UNL     1       0.947  -4.798   4.436  0.00  0.00    -0.081 HD
ENDBRANCH  18  20
ENDBRANCH  17  18
ENDBRANCH   4  17
TORSDOF 5
