REMARK  Name = ZINC25806577
REMARK  9 active torsions:
REMARK  status: ('A' for Active; 'I' for Inactive)
REMARK    1  A    between atoms: C_1  and  C_2
REMARK    2  A    between atoms: C_2  and  O_3
REMARK    3  A    between atoms: O_3  and  C_4
REMARK    4  A    between atoms: C_4  and  C_6
REMARK    5  A    between atoms: C_7  and  C_21
REMARK    6  A    between atoms: C_12  and  C_14
REMARK    7  A    between atoms: C_21  and  N_22
REMARK    8  A    between atoms: N_25  and  C_28
REMARK    9  A    between atoms: C_33  and  O_34
REMARK                            x       y       z     vdW  Elec       q    Type
REMARK                         _______ _______ _______ _____ _____    ______ ____
ROOT
ATOM      1  C   UNL     1      -4.864  -4.613   2.258  0.00  0.00    +0.079 C 
ATOM      2  C   UNL     1      -4.145  -4.886   1.148  0.00  0.00    +0.038 C 
ATOM      3  N   UNL     1      -3.317  -5.971   1.093  0.00  0.00    -0.271 N 
ATOM      4  C   UNL     1      -3.144  -6.825   2.109  0.00  0.00    +0.304 C 
ATOM      5  O   UNL     1      -2.381  -7.760   1.968  0.00  0.00    -0.252 OA
ATOM      6  N   UNL     1      -3.792  -6.684   3.282  0.00  0.00    -0.288 N 
ATOM      7  C   UNL     1      -4.715  -5.548   3.442  0.00  0.00    +0.144 C 
ATOM      8  H   UNL     1      -2.747  -6.182   0.176  0.00  0.00    +0.156 HD
ATOM      9  H   UNL     1      -3.646  -7.394   4.110  0.00  0.00    +0.151 HD
ENDROOT
BRANCH   7  10
ATOM     10  C   UNL     1      -6.078  -6.098   3.773  0.00  0.00    -0.022 A 
ATOM     11  C   UNL     1      -6.602  -7.139   3.030  0.00  0.00    +0.007 A 
ATOM     12  C   UNL     1      -7.850  -7.648   3.337  0.00  0.00    +0.020 A 
ATOM     13  C   UNL     1      -8.579  -7.108   4.381  0.00  0.00    +0.041 A 
ATOM     14  C   UNL     1      -8.056  -6.062   5.121  0.00  0.00    +0.020 A 
ATOM     15  C   UNL     1      -6.806  -5.558   4.817  0.00  0.00    +0.007 A 
ATOM     16 CL   UNL     1     -10.149  -7.743   4.764  0.00  0.00    -0.084 Cl
ENDBRANCH   7  10
BRANCH   1  17
ATOM     17  C   UNL     1      -5.725  -3.493   2.315  0.00  0.00    +0.339 C 
ATOM     18  O   UNL     1      -5.373  -2.483   2.895  0.00  0.00    -0.245 OA
BRANCH  17  19
ATOM     19  O   UNL     1      -6.938  -3.544   1.725  0.00  0.00    -0.462 OA
BRANCH  19  21
ATOM     20  C   UNL     1      -9.082  -2.622   1.099  0.00  0.00    +0.048 C 
ATOM     21  C   UNL     1      -7.756  -2.376   1.822  0.00  0.00    +0.229 C 
ENDBRANCH  19  21
ENDBRANCH  17  19
ENDBRANCH   1  17
BRANCH   2  22
ATOM     22  C   UNL     1      -4.264  -3.983  -0.053  0.00  0.00    +0.136 C 
BRANCH  22  23
ATOM     23  N   UNL     1      -2.972  -3.331  -0.305  0.00  0.00    -0.294 NA
ATOM     24  C   UNL     1      -2.978  -2.631  -1.597  0.00  0.00    +0.103 C 
ATOM     25  C   UNL     1      -1.593  -2.034  -1.857  0.00  0.00    +0.120 C 
ATOM     26  N   UNL     1      -1.245  -1.115  -0.765  0.00  0.00    -0.325 N 
ATOM     27  C   UNL     1      -1.238  -1.815   0.527  0.00  0.00    +0.120 C 
ATOM     28  C   UNL     1      -2.623  -2.412   0.788  0.00  0.00    +0.103 C 
BRANCH  26  29
ATOM     29  C   UNL     1      -0.013  -0.494  -1.005  0.00  0.00    +0.072 A 
ATOM     30  C   UNL     1       1.135  -1.259  -1.147  0.00  0.00    +0.027 A 
ATOM     31  C   UNL     1       2.350  -0.644  -1.384  0.00  0.00    +0.002 A 
ATOM     32  C   UNL     1       2.424   0.734  -1.482  0.00  0.00    +0.004 A 
ATOM     33  C   UNL     1       1.283   1.502  -1.341  0.00  0.00    +0.047 A 
ATOM     34  C   UNL     1       0.062   0.893  -1.103  0.00  0.00    +0.138 A 
BRANCH  34  35
ATOM     35  O   UNL     1      -1.062   1.648  -0.971  0.00  0.00    -0.505 OA
ATOM     36  H   UNL     1      -1.001   2.744  -1.048  0.00  0.00    +0.292 HD
ENDBRANCH  34  35
ENDBRANCH  26  29
ENDBRANCH  22  23
ENDBRANCH   2  22
TORSDOF 8
