REMARK  Name = ZINC59890770
REMARK  13 active torsions:
REMARK  status: ('A' for Active; 'I' for Inactive)
REMARK    1  A    between atoms: C_1  and  C_2
REMARK    2  A    between atoms: C_5  and  N_8
REMARK    3  A    between atoms: N_8  and  S_9
REMARK    4  A    between atoms: S_9  and  C_12
REMARK    5  A    between atoms: C_14  and  C_20
REMARK    6  A    between atoms: C_17  and  O_18
REMARK    7  A    between atoms: O_18  and  C_19
REMARK    8  A    between atoms: N_22  and  C_23
REMARK    9  A    between atoms: C_23  and  C_24
REMARK   10  A    between atoms: C_24  and  N_32
REMARK   11  A    between atoms: C_28  and  C_31
REMARK   12  A    between atoms: N_32  and  C_33
REMARK   13  A    between atoms: N_32  and  C_34
REMARK                            x       y       z     vdW  Elec       q    Type
REMARK                         _______ _______ _______ _____ _____    ______ ____
ROOT
ATOM      1  C   UNL     1      -0.154  -4.600   2.420  0.00  0.00    +0.151 A 
ATOM      2  C   UNL     1      -0.367  -5.609   3.333  0.00  0.00    +0.045 A 
ATOM      3  C   UNL     1      -0.819  -5.301   4.618  0.00  0.00    +0.039 A 
ATOM      4  C   UNL     1      -1.054  -3.970   4.973  0.00  0.00    +0.017 A 
ATOM      5  C   UNL     1      -0.839  -2.967   4.054  0.00  0.00    +0.048 A 
ATOM      6  C   UNL     1      -0.383  -3.277   2.778  0.00  0.00    +0.147 A 
ENDROOT
BRANCH   3   7
ATOM      7  C   UNL     1      -1.049  -6.380   5.599  0.00  0.00    +0.244 C 
ATOM      8  O   UNL     1      -0.845  -7.538   5.290  0.00  0.00    -0.270 OA
ATOM      9  N   UNL     1      -1.485  -6.081   6.839  0.00  0.00    -0.313 N 
ATOM     10  H   UNL     1      -1.648  -5.157   7.087  0.00  0.00    +0.149 HD
BRANCH   9  11
ATOM     11  C   UNL     1      -1.714  -7.151   7.813  0.00  0.00    +0.092 C 
BRANCH  11  12
ATOM     12  C   UNL     1      -2.317  -6.560   9.089  0.00  0.00    -0.050 C 
ATOM     13  C   UNL     1      -2.513  -7.671  10.123  0.00  0.00    -0.010 C 
ATOM     14  C   UNL     1      -3.457  -8.734   9.557  0.00  0.00    -0.001 C 
ATOM     15  C   UNL     1      -4.809  -8.095   9.232  0.00  0.00    +0.003 C 
ATOM     16  C   UNL     1      -4.613  -6.984   8.198  0.00  0.00    -0.015 C 
ATOM     17  C   UNL     1      -3.669  -5.921   8.764  0.00  0.00    -0.007 C 
ATOM     18  C   UNL     1      -5.965  -6.345   7.874  0.00  0.00    +0.007 C 
BRANCH  12  19
ATOM     19  N   UNL     1      -1.411  -5.540   9.632  0.00  0.00    +0.381 N 
ATOM     20  C   UNL     1      -1.936  -5.051  10.914  0.00  0.00    -0.096 C 
ATOM     21  C   UNL     1      -0.081  -6.127   9.840  0.00  0.00    -0.096 C 
ATOM     22  H   UNL     1      -1.341  -4.771   8.982  0.00  0.00    -0.082 HD
ENDBRANCH  12  19
ENDBRANCH  11  12
ENDBRANCH   9  11
ENDBRANCH   3   7
BRANCH   1  23
ATOM     23  S   UNL     1       0.416  -4.987   0.798  0.00  0.00    +0.076 S 
ATOM     24  O   UNL     1       0.536  -6.401   0.736  0.00  0.00    -0.150 OA
ATOM     25  O   UNL     1       1.508  -4.117   0.533  0.00  0.00    -0.150 OA
BRANCH  23  26
ATOM     26  N   UNL     1      -0.789  -4.568  -0.258  0.00  0.00    -0.216 N 
ATOM     27  H   UNL     1      -0.629  -3.889  -0.932  0.00  0.00    +0.174 HD
BRANCH  26  32
ATOM     28  C   UNL     1      -5.853  -7.099   0.069  0.00  0.00    +0.044 C 
ATOM     29  C   UNL     1      -4.508  -6.427  -0.018  0.00  0.00    -0.050 A 
ATOM     30  C   UNL     1      -4.431  -5.052  -0.148  0.00  0.00    +0.005 A 
ATOM     31  C   UNL     1      -3.199  -4.432  -0.228  0.00  0.00    +0.025 A 
ATOM     32  C   UNL     1      -2.037  -5.191  -0.177  0.00  0.00    +0.048 A 
ATOM     33  C   UNL     1      -2.118  -6.572  -0.046  0.00  0.00    +0.025 A 
ATOM     34  C   UNL     1      -3.352  -7.185   0.039  0.00  0.00    +0.005 A 
ENDBRANCH  26  32
ENDBRANCH  23  26
ENDBRANCH   1  23
BRANCH   6  35
ATOM     35  O   UNL     1      -0.167  -2.285   1.877  0.00  0.00    -0.493 OA
ATOM     36  C   UNL     1      -0.533  -0.961   2.270  0.00  0.00    +0.277 C 
ENDBRANCH   6  35
TORSDOF 8
