REMARK  Name = ZINC08918042
REMARK  9 active torsions:
REMARK  status: ('A' for Active; 'I' for Inactive)
REMARK    1  A    between atoms: C_1  and  C_2
REMARK    2  A    between atoms: C_6  and  O_30
REMARK    3  A    between atoms: C_7  and  C_29
REMARK    4  A    between atoms: C_12  and  C_13
REMARK    5  A    between atoms: C_13  and  C_14
REMARK    6  A    between atoms: C_14  and  C_15
REMARK    7  A    between atoms: C_20  and  O_28
REMARK    8  A    between atoms: O_30  and  C_31
REMARK    9  A    between atoms: C_31  and  C_32
REMARK                            x       y       z     vdW  Elec       q    Type
REMARK                         _______ _______ _______ _____ _____    ______ ____
ROOT
ATOM      1  C   UNL     1       1.285   3.636   0.009  0.00  0.00    +0.045 C 
ATOM      2  C   UNL     1       1.254   2.130   0.002  0.00  0.00    -0.030 A 
ATOM      3  C   UNL     1      -0.017   1.403   0.010  0.00  0.00    +0.021 A 
ATOM      4  C   UNL     1      -1.238   2.087   0.031  0.00  0.00    +0.015 A 
ATOM      5  C   UNL     1      -2.408   1.385   0.033  0.00  0.00    +0.047 A 
ATOM      6  C   UNL     1      -2.396  -0.008   0.025  0.00  0.00    +0.127 A 
ATOM      7  C   UNL     1      -1.197  -0.701   0.010  0.00  0.00    +0.034 A 
ATOM      8  C   UNL     1       0.002  -0.004   0.002  0.00  0.00    +0.146 A 
ATOM      9  O   UNL     1       1.182  -0.660  -0.012  0.00  0.00    -0.422 OA
ATOM     10  C   UNL     1       2.351  -0.000  -0.019  0.00  0.00    +0.341 A 
ATOM     11  O   UNL     1       3.390  -0.634  -0.033  0.00  0.00    -0.245 OA
ATOM     12  C   UNL     1       2.406   1.409  -0.013  0.00  0.00    +0.041 A 
ATOM     13  C   UNL     1      -1.194  -2.208   0.002  0.00  0.00    +0.051 C 
ENDROOT
BRANCH  12  14
ATOM     14  C   UNL     1       3.738   2.113  -0.022  0.00  0.00    +0.052 C 
BRANCH  14  15
ATOM     15  C   UNL     1       4.175   2.359  -1.468  0.00  0.00    +0.101 C 
BRANCH  15  16
ATOM     16  C   UNL     1       5.507   3.063  -1.478  0.00  0.00    +0.216 C 
ATOM     17  O   UNL     1       6.053   3.341  -0.431  0.00  0.00    -0.276 OA
ATOM     18  N   UNL     1       6.091   3.384  -2.649  0.00  0.00    -0.301 N 
ATOM     19  C   UNL     1       5.442   3.054  -3.925  0.00  0.00    +0.110 C 
ATOM     20  C   UNL     1       5.335   4.329  -4.768  0.00  0.00    +0.054 C 
ATOM     21  C   UNL     1       6.723   4.957  -4.916  0.00  0.00    +0.072 C 
ATOM     22  C   UNL     1       6.615   6.221  -5.774  0.00  0.00    +0.035 C 
ATOM     23  C   UNL     1       5.655   7.207  -5.106  0.00  0.00    +0.003 C 
ATOM     24  C   UNL     1       6.185   7.577  -3.720  0.00  0.00    +0.001 C 
ATOM     25  C   UNL     1       6.303   6.315  -2.862  0.00  0.00    +0.008 C 
ATOM     26  C   UNL     1       7.264   5.332  -3.534  0.00  0.00    +0.038 C 
ATOM     27  C   UNL     1       7.387   4.076  -2.675  0.00  0.00    +0.114 C 
BRANCH  21  28
ATOM     28  O   UNL     1       7.605   4.026  -5.545  0.00  0.00    -0.388 OA
ATOM     29  H   UNL     1       7.322   3.750  -6.428  0.00  0.00    +0.210 HD
ENDBRANCH  21  28
ENDBRANCH  15  16
ENDBRANCH  14  15
ENDBRANCH  12  14
BRANCH   6  30
ATOM     30  O   UNL     1      -3.568  -0.692   0.033  0.00  0.00    -0.487 OA
BRANCH  30  31
ATOM     31  C   UNL     1      -4.770   0.081   0.048  0.00  0.00    +0.264 C 
BRANCH  31  32
ATOM     32  C   UNL     1      -5.961  -0.842   0.055  0.00  0.00    -0.010 A 
ATOM     33  C   UNL     1      -6.522  -1.255  -1.140  0.00  0.00    +0.008 A 
ATOM     34  C   UNL     1      -7.611  -2.106  -1.134  0.00  0.00    +0.020 A 
ATOM     35  C   UNL     1      -8.147  -2.536   0.067  0.00  0.00    +0.041 A 
ATOM     36  C   UNL     1      -7.588  -2.119   1.262  0.00  0.00    +0.020 A 
ATOM     37  C   UNL     1      -6.496  -1.272   1.255  0.00  0.00    +0.008 A 
ATOM     38 CL   UNL     1      -9.519  -3.600   0.074  0.00  0.00    -0.084 Cl
ENDBRANCH  31  32
ENDBRANCH  30  31
ENDBRANCH   6  30
TORSDOF 7
