REMARK  Name = ZINC39944985
REMARK  8 active torsions:
REMARK  status: ('A' for Active; 'I' for Inactive)
REMARK    1  A    between atoms: C_1  and  C_2
REMARK    2  A    between atoms: C_5  and  C_19
REMARK    3  A    between atoms: C_6  and  C_18
REMARK    4  A    between atoms: N_7  and  C_8
REMARK    5  A    between atoms: C_19  and  C_21
REMARK    6  A    between atoms: C_21  and  O_22
REMARK    7  A    between atoms: O_22  and  C_23
REMARK    8  A    between atoms: C_23  and  C_25
REMARK                            x       y       z     vdW  Elec       q    Type
REMARK                         _______ _______ _______ _____ _____    ______ ____
ROOT
ATOM      1  C   UNL     1       2.863  -1.994  -1.389  0.00  0.00    +0.198 C 
ATOM      2  O   UNL     1       3.786  -2.550  -0.826  0.00  0.00    -0.289 OA
ENDROOT
BRANCH   1   6
ATOM      3  C   UNL     1       0.059   1.560   0.108  0.00  0.00    +0.029 C 
ATOM      4  C   UNL     1       0.027   0.031   0.050  0.00  0.00    +0.080 C 
ATOM      5  C   UNL     1       0.766  -0.476  -1.204  0.00  0.00    +0.062 C 
ATOM      6  C   UNL     1       1.896  -1.309  -0.640  0.00  0.00    +0.017 C 
ATOM      7  C   UNL     1       1.814  -1.281   0.706  0.00  0.00    +0.015 C 
ATOM      8  N   UNL     1       0.778  -0.542   1.175  0.00  0.00    -0.300 N 
ATOM      9  C   UNL     1       2.782  -2.005   1.607  0.00  0.00    +0.061 C 
BRANCH   8  10
ATOM     10  C   UNL     1       0.469  -0.351   2.526  0.00  0.00    +0.038 A 
ATOM     11  C   UNL     1       1.333   0.369   3.341  0.00  0.00    +0.027 A 
ATOM     12  C   UNL     1       1.029   0.556   4.675  0.00  0.00    +0.051 A 
ATOM     13  C   UNL     1      -0.139   0.027   5.205  0.00  0.00    +0.162 A 
ATOM     14  C   UNL     1      -1.006  -0.693   4.391  0.00  0.00    +0.164 A 
ATOM     15  C   UNL     1      -0.703  -0.877   3.051  0.00  0.00    +0.072 A 
ATOM     16  O   UNL     1      -2.160  -1.213   4.892  0.00  0.00    -0.485 OA
ATOM     17  C   UNL     1      -2.252  -1.323   6.316  0.00  0.00    +0.270 C 
ATOM     18  C   UNL     1      -1.774  -0.002   6.933  0.00  0.00    +0.270 C 
ATOM     19  O   UNL     1      -0.419   0.219   6.524  0.00  0.00    -0.485 OA
ENDBRANCH   8  10
ENDBRANCH   1   6
BRANCH   1  20
ATOM     20  C   UNL     1       2.759  -2.041  -2.892  0.00  0.00    +0.311 C 
BRANCH  20  21
ATOM     21  O   UNL     1       3.853  -2.792  -3.422  0.00  0.00    -0.453 OA
BRANCH  21  22
ATOM     22  C   UNL     1       3.908  -2.930  -4.761  0.00  0.00    +0.340 C 
ATOM     23  O   UNL     1       3.050  -2.426  -5.460  0.00  0.00    -0.245 OA
BRANCH  22  24
ATOM     24  C   UNL     1       5.009  -3.692  -5.380  0.00  0.00    +0.060 A 
ATOM     25  C   UNL     1       5.995  -4.277  -4.573  0.00  0.00    +0.017 A 
ATOM     26  C   UNL     1       7.019  -4.984  -5.130  0.00  0.00    +0.027 A 
ATOM     27  C   UNL     1       7.099  -5.134  -6.513  0.00  0.00    +0.047 A 
ATOM     28  C   UNL     1       6.113  -4.551  -7.336  0.00  0.00    +0.004 A 
ATOM     29  C   UNL     1       5.065  -3.834  -6.763  0.00  0.00    +0.025 A 
ATOM     30  C   UNL     1       6.486  -4.890  -8.706  0.00  0.00    -0.019 A 
ATOM     31  C   UNL     1       7.615  -5.621  -8.645  0.00  0.00    +0.020 A 
ATOM     32  N   UNL     1       7.992  -5.774  -7.340  0.00  0.00    -0.358 N 
ATOM     33  H   UNL     1       8.774  -6.263  -7.040  0.00  0.00    +0.166 HD
ATOM     34  C   UNL     1       8.324  -6.171  -9.861  0.00  0.00    +0.053 C 
ATOM     35  C   UNL     1       7.357  -6.129 -11.049  0.00  0.00    +0.006 C 
ATOM     36  C   UNL     1       6.737  -4.733 -11.155  0.00  0.00    +0.005 C 
ATOM     37  C   UNL     1       5.775  -4.515  -9.981  0.00  0.00    +0.037 C 
ENDBRANCH  22  24
ENDBRANCH  21  22
ENDBRANCH  20  21
ENDBRANCH   1  20
TORSDOF 6
