REMARK  Name = ZINC14074751
REMARK  12 active torsions:
REMARK  status: ('A' for Active; 'I' for Inactive)
REMARK    1  A    between atoms: C_1  and  C_2
REMARK    2  A    between atoms: C_3  and  C_26
REMARK    3  A    between atoms: N_4  and  C_21
REMARK    4  A    between atoms: C_5  and  N_9
REMARK    5  A    between atoms: C_6  and  C_7
REMARK    6  A    between atoms: C_10  and  C_12
REMARK    7  A    between atoms: C_12  and  N_13
REMARK    8  A    between atoms: N_13  and  C_14
REMARK    9  A    between atoms: N_13  and  C_18
REMARK   10  A    between atoms: C_14  and  C_15
REMARK   11  A    between atoms: C_18  and  C_19
REMARK   12  A    between atoms: C_18  and  C_20
REMARK                            x       y       z     vdW  Elec       q    Type
REMARK                         _______ _______ _______ _____ _____    ______ ____
ROOT
ATOM      1  N   UNL     1      -0.737  -3.227   1.279  0.00  0.00    -0.272 N 
ATOM      2  C   UNL     1      -1.111  -3.381   2.565  0.00  0.00    +0.202 C 
ATOM      3  O   UNL     1      -1.934  -2.635   3.051  0.00  0.00    -0.278 OA
ATOM      4  H   UNL     1      -0.144  -3.874   0.866  0.00  0.00    +0.156 HD
ENDROOT
BRANCH   1   9
ATOM      5  C   UNL     1      -2.434   1.339  -0.065  0.00  0.00    +0.047 C 
ATOM      6  C   UNL     1      -1.968  -0.093  -0.093  0.00  0.00    -0.011 A 
ATOM      7  C   UNL     1      -1.867  -0.882  -1.175  0.00  0.00    +0.022 A 
ATOM      8  N   UNL     1      -1.406  -2.115  -0.795  0.00  0.00    -0.329 N 
ATOM      9  C   UNL     1      -1.200  -2.144   0.547  0.00  0.00    +0.123 A 
ATOM     10  C   UNL     1      -1.530  -0.895   1.056  0.00  0.00    +0.095 A 
ATOM     11  C   UNL     1      -2.207  -0.476  -2.585  0.00  0.00    +0.064 C 
BRANCH   8  12
ATOM     12  C   UNL     1      -1.170  -3.239  -1.704  0.00  0.00    +0.089 C 
ATOM     13  C   UNL     1      -1.898  -4.497  -1.188  0.00  0.00    +0.025 C 
ATOM     14  C   UNL     1      -0.930  -5.660  -1.522  0.00  0.00    +0.002 C 
ATOM     15  C   UNL     1       0.460  -5.037  -1.244  0.00  0.00    +0.002 C 
ATOM     16  C   UNL     1       0.330  -3.582  -1.739  0.00  0.00    +0.025 C 
ENDBRANCH   8  12
BRANCH  10  17
ATOM     17  C   UNL     1      -1.461  -0.476   2.424  0.00  0.00    +0.103 C 
ATOM     18  N   UNL     1      -1.405  -0.144   3.509  0.00  0.00    -0.191 NA
ENDBRANCH  10  17
ENDBRANCH   1   9
BRANCH   2  19
ATOM     19  C   UNL     1      -0.506  -4.482   3.398  0.00  0.00    +0.020 C 
BRANCH  19  20
ATOM     20  N   UNL     1      -0.992  -4.372   4.781  0.00  0.00    +0.393 N 
ATOM     21  H   UNL     1      -0.833  -3.435   5.119  0.00  0.00    -0.080 HD
BRANCH  20  22
ATOM     22  C   UNL     1      -0.270  -5.329   5.630  0.00  0.00    -0.074 C 
ATOM     23  C   UNL     1      -0.388  -6.732   5.032  0.00  0.00    -0.013 C 
ATOM     24  C   UNL     1       1.205  -4.930   5.709  0.00  0.00    -0.013 C 
ENDBRANCH  20  22
BRANCH  20  25
ATOM     25  C   UNL     1      -2.430  -4.669   4.820  0.00  0.00    +0.019 C 
BRANCH  25  26
ATOM     26  C   UNL     1      -2.962  -4.393   6.203  0.00  0.00    +0.194 C 
ATOM     27  O   UNL     1      -2.240  -3.898   7.043  0.00  0.00    -0.278 OA
ATOM     28  N   UNL     1      -4.240  -4.696   6.506  0.00  0.00    -0.331 N 
ATOM     29  H   UNL     1      -4.817  -5.092   5.834  0.00  0.00    +0.145 HD
ATOM     30  H   UNL     1      -4.582  -4.518   7.396  0.00  0.00    +0.145 HD
ENDBRANCH  25  26
ENDBRANCH  20  25
ENDBRANCH  19  20
ENDBRANCH   2  19
TORSDOF 8
