REMARK  Name = ZINC24837765
REMARK  11 active torsions:
REMARK  status: ('A' for Active; 'I' for Inactive)
REMARK    1  A    between atoms: C_1  and  C_2
REMARK    2  A    between atoms: C_2  and  C_4
REMARK    3  A    between atoms: C_2  and  N_30
REMARK    4  A    between atoms: C_7  and  S_16
REMARK    5  A    between atoms: N_8  and  C_9
REMARK    6  A    between atoms: S_16  and  C_17
REMARK    7  A    between atoms: C_17  and  C_18
REMARK    8  A    between atoms: C_18  and  C_20
REMARK    9  A    between atoms: C_18  and  O_29
REMARK   10  A    between atoms: C_20  and  O_21
REMARK   11  A    between atoms: O_21  and  C_22
REMARK                            x       y       z     vdW  Elec       q    Type
REMARK                         _______ _______ _______ _____ _____    ______ ____
ROOT
ATOM      1  C   UNL     1       3.023   7.993   0.465  0.00  0.00    +0.125 A 
ATOM      2  N   UNL     1       1.758   7.681   0.488  0.00  0.00    -0.135 NA
ATOM      3  N   UNL     1       1.613   6.409   0.382  0.00  0.00    -0.122 NA
ATOM      4  C   UNL     1       2.789   5.832   0.284  0.00  0.00    +0.196 A 
ATOM      5  N   UNL     1       3.728   6.825   0.339  0.00  0.00    -0.275 N 
ENDROOT
BRANCH   5   6
ATOM      6  C   UNL     1       5.122   6.678   0.277  0.00  0.00    +0.050 A 
ATOM      7  C   UNL     1       5.905   7.018   1.371  0.00  0.00    +0.029 A 
ATOM      8  C   UNL     1       7.277   6.867   1.310  0.00  0.00    +0.040 A 
ATOM      9  C   UNL     1       7.871   6.389   0.154  0.00  0.00    +0.124 A 
ATOM     10  C   UNL     1       7.091   6.056  -0.941  0.00  0.00    +0.040 A 
ATOM     11  C   UNL     1       5.719   6.200  -0.881  0.00  0.00    +0.029 A 
ATOM     12  F   UNL     1       9.214   6.248   0.094  0.00  0.00    -0.205 F 
ENDBRANCH   5   6
BRANCH   1  14
ATOM     13  C   UNL     1       3.510   9.870   2.010  0.00  0.00    -0.005 C 
ATOM     14  C   UNL     1       3.603   9.380   0.564  0.00  0.00    -0.002 C 
BRANCH  14  15
ATOM     15  N   UNL     1       2.850  10.289  -0.311  0.00  0.00    +0.386 N 
ATOM     16  C   UNL     1       2.833   9.796  -1.694  0.00  0.00    -0.078 C 
ATOM     17  C   UNL     1       1.923  10.686  -2.543  0.00  0.00    -0.019 C 
ATOM     18  C   UNL     1       2.441  12.126  -2.501  0.00  0.00    -0.004 C 
ATOM     19  C   UNL     1       2.495  12.599  -1.046  0.00  0.00    -0.019 C 
ATOM     20  C   UNL     1       3.389  11.653  -0.240  0.00  0.00    -0.078 C 
ATOM     21  H   UNL     1       1.810  10.320   0.047  0.00  0.00    -0.081 HD
ENDBRANCH  14  15
ENDBRANCH   1  14
BRANCH   4  22
ATOM     22  S   UNL     1       3.099   4.105   0.120  0.00  0.00    -0.083 S 
BRANCH  22  23
ATOM     23  C   UNL     1       1.400   3.478   0.133  0.00  0.00    +0.112 C 
BRANCH  23  24
ATOM     24  C   UNL     1       1.418   1.954  -0.001  0.00  0.00    +0.162 C 
BRANCH  24  25
ATOM     25  O   UNL     1       2.050   1.592  -1.230  0.00  0.00    -0.388 OA
ATOM     26  H   UNL     1       2.156   0.531  -1.502  0.00  0.00    +0.210 HD
ENDBRANCH  24  25
BRANCH  24  27
ATOM     27  C   UNL     1      -0.017   1.425   0.010  0.00  0.00    +0.261 C 
BRANCH  27  28
ATOM     28  O   UNL     1       0.002  -0.004   0.002  0.00  0.00    -0.489 OA
BRANCH  28  29
ATOM     29  C   UNL     1      -1.201  -0.638   0.010  0.00  0.00    +0.121 A 
ATOM     30  C   UNL     1      -2.374   0.101   0.031  0.00  0.00    +0.048 A 
ATOM     31  C   UNL     1      -3.596  -0.544   0.033  0.00  0.00    +0.042 A 
ATOM     32  C   UNL     1      -3.649  -1.927   0.026  0.00  0.00    +0.124 A 
ATOM     33  C   UNL     1      -2.478  -2.666   0.011  0.00  0.00    +0.042 A 
ATOM     34  C   UNL     1      -1.255  -2.024   0.003  0.00  0.00    +0.048 A 
ATOM     35  F   UNL     1      -4.844  -2.557   0.033  0.00  0.00    -0.205 F 
ENDBRANCH  28  29
ENDBRANCH  27  28
ENDBRANCH  24  27
ENDBRANCH  23  24
ENDBRANCH  22  23
ENDBRANCH   4  22
TORSDOF 10
