REMARK  Name = ZINC04346416
REMARK  6 active torsions:
REMARK  status: ('A' for Active; 'I' for Inactive)
REMARK    1  A    between atoms: C_1  and  C_2
REMARK    2  A    between atoms: C_2  and  C_3
REMARK    3  A    between atoms: C_8  and  N_9
REMARK    4  A    between atoms: C_16  and  C_19
REMARK    5  A    between atoms: C_21  and  C_24
REMARK    6  A    between atoms: C_28  and  C_30
REMARK                            x       y       z     vdW  Elec       q    Type
REMARK                         _______ _______ _______ _____ _____    ______ ____
ROOT
ATOM      1  N   UNL     1       8.264   1.103   3.154  0.00  0.00    -0.269 N 
ATOM      2  C   UNL     1       8.827   0.265   2.262  0.00  0.00    +0.306 C 
ATOM      3  O   UNL     1       9.997  -0.049   2.376  0.00  0.00    -0.252 OA
ATOM      4  N   UNL     1       8.094  -0.227   1.243  0.00  0.00    -0.285 N 
ATOM      5  C   UNL     1       8.719  -1.054   0.202  0.00  0.00    +0.109 C 
ATOM      6  C   UNL     1       8.395  -0.451  -1.168  0.00  0.00    +0.020 C 
ATOM      7  C   UNL     1       6.879  -0.301  -1.310  0.00  0.00    +0.016 C 
ATOM      8  C   UNL     1       6.354   0.646  -0.228  0.00  0.00    +0.095 C 
ATOM      9  C   UNL     1       6.655   0.054   1.153  0.00  0.00    +0.122 C 
ATOM     10  H   UNL     1       7.314   1.292   3.109  0.00  0.00    +0.156 HD
ENDROOT
BRANCH   1  16
ATOM     11  C   UNL     1       8.456   2.224   5.285  0.00  0.00    -0.026 A 
ATOM     12  C   UNL     1       9.235   2.814   6.261  0.00  0.00    +0.005 A 
ATOM     13  C   UNL     1      10.607   2.886   6.103  0.00  0.00    +0.000 A 
ATOM     14  C   UNL     1      11.203   2.367   4.968  0.00  0.00    +0.002 A 
ATOM     15  C   UNL     1      10.430   1.771   3.991  0.00  0.00    +0.023 A 
ATOM     16  C   UNL     1       9.051   1.702   4.144  0.00  0.00    +0.038 A 
BRANCH  11  18
ATOM     17  C   UNL     1       6.586   0.791   6.060  0.00  0.00    +0.009 C 
ATOM     18  C   UNL     1       6.961   2.147   5.458  0.00  0.00    +0.033 C 
ENDBRANCH  11  18
ENDBRANCH   1  16
BRANCH   8  19
ATOM     19  C   UNL     1       4.866   0.817  -0.388  0.00  0.00    +0.232 A 
ATOM     20  N   UNL     1       4.232   1.941  -0.613  0.00  0.00    -0.191 NA
ATOM     21  C   UNL     1       2.922   1.612  -0.680  0.00  0.00    +0.202 A 
ATOM     22  N   UNL     1       2.839   0.320  -0.501  0.00  0.00    -0.056 NA
ATOM     23  O   UNL     1       3.945  -0.150  -0.333  0.00  0.00    -0.337 OA
BRANCH  21  24
ATOM     24  C   UNL     1       1.791   2.543  -0.917  0.00  0.00    +0.023 A 
ATOM     25  C   UNL     1       2.030   3.905  -1.092  0.00  0.00    +0.012 A 
ATOM     26  C   UNL     1       0.975   4.766  -1.314  0.00  0.00    +0.001 A 
ATOM     27  C   UNL     1      -0.319   4.280  -1.362  0.00  0.00    +0.003 A 
ATOM     28  C   UNL     1      -0.562   2.929  -1.194  0.00  0.00    -0.050 A 
ATOM     29  C   UNL     1       0.485   2.059  -0.967  0.00  0.00    +0.015 A 
ATOM     30  C   UNL     1      -1.974   2.405  -1.254  0.00  0.00    +0.044 C 
ENDBRANCH  21  24
ENDBRANCH   8  19
TORSDOF 4
