REMARK  Name = ZINC31784218
REMARK  9 active torsions:
REMARK  status: ('A' for Active; 'I' for Inactive)
REMARK    1  A    between atoms: C_1  and  C_2
REMARK    2  A    between atoms: C_5  and  C_8
REMARK    3  A    between atoms: C_10  and  C_13
REMARK    4  A    between atoms: C_13  and  C_15
REMARK    5  A    between atoms: C_13  and  N_16
REMARK    6  A    between atoms: N_19  and  C_22
REMARK    7  A    between atoms: C_22  and  N_23
REMARK    8  A    between atoms: C_27  and  C_35
REMARK    9  A    between atoms: C_32  and  C_34
REMARK                            x       y       z     vdW  Elec       q    Type
REMARK                         _______ _______ _______ _____ _____    ______ ____
ROOT
ATOM      1  N   UNL     1       0.505   3.583  -8.076  0.00  0.00    +0.389 N 
ATOM      2  C   UNL     1      -0.941   3.595  -7.812  0.00  0.00    -0.062 C 
ATOM      3  C   UNL     1      -1.242   4.588  -6.687  0.00  0.00    +0.067 C 
ATOM      4  N   UNL     1      -0.493   4.201  -5.483  0.00  0.00    -0.290 NA
ATOM      5  C   UNL     1       0.953   4.189  -5.747  0.00  0.00    +0.067 C 
ATOM      6  C   UNL     1       1.254   3.196  -6.873  0.00  0.00    -0.062 C 
ATOM      7  H   UNL     1       0.809   4.603  -8.353  0.00  0.00    -0.081 HD
ENDROOT
BRANCH   1   8
ATOM      8  C   UNL     1       0.826   2.697  -9.203  0.00  0.00    +0.019 C 
ATOM      9  C   UNL     1       0.102   3.186 -10.459  0.00  0.00    -0.003 C 
BRANCH   8  12
ATOM     10  C   UNL     1       4.326   2.157  -9.820  0.00  0.00    +0.202 A 
ATOM     11  N   UNL     1       3.077   1.666  -9.655  0.00  0.00    -0.193 NA
ATOM     12  C   UNL     1       2.314   2.710  -9.444  0.00  0.00    +0.214 A 
ATOM     13  O   UNL     1       3.104   3.788  -9.476  0.00  0.00    -0.339 OA
ATOM     14  N   UNL     1       4.250   3.456  -9.692  0.00  0.00    -0.056 NA
BRANCH  10  19
ATOM     15  C   UNL     1       9.091  -0.903 -10.870  0.00  0.00    +0.044 C 
ATOM     16  C   UNL     1       7.844  -0.103 -10.596  0.00  0.00    -0.050 A 
ATOM     17  C   UNL     1       7.920   1.274 -10.485  0.00  0.00    +0.004 A 
ATOM     18  C   UNL     1       6.781   2.012 -10.233  0.00  0.00    +0.012 A 
ATOM     19  C   UNL     1       5.554   1.368 -10.091  0.00  0.00    +0.022 A 
ATOM     20  C   UNL     1       5.484  -0.019 -10.198  0.00  0.00    +0.012 A 
ATOM     21  C   UNL     1       6.628  -0.747 -10.456  0.00  0.00    +0.004 A 
ENDBRANCH  10  19
ENDBRANCH   8  12
ENDBRANCH   1   8
BRANCH   4  22
ATOM     22  C   UNL     1      -0.815   5.087  -4.356  0.00  0.00    +0.204 C 
BRANCH  22  23
ATOM     23  N   UNL     1      -0.568   4.383  -3.095  0.00  0.00    -0.211 N 
ATOM     24  C   UNL     1      -1.491   3.642  -2.447  0.00  0.00    +0.248 C 
ATOM     25  O   UNL     1      -2.638   3.440  -2.784  0.00  0.00    -0.273 OA
ATOM     26  C   UNL     1      -0.793   3.117  -1.214  0.00  0.00    +0.118 C 
ATOM     27  C   UNL     1      -0.754   1.593  -1.232  0.00  0.00    +0.019 C 
ATOM     28  C   UNL     1      -0.013   1.086   0.008  0.00  0.00    +0.006 C 
ATOM     29  C   UNL     1      -0.729   1.579   1.266  0.00  0.00    +0.001 C 
ATOM     30  C   UNL     1      -0.743   3.109   1.282  0.00  0.00    +0.006 C 
ATOM     31  C   UNL     1      -1.486   3.624   0.046  0.00  0.00    +0.019 C 
ATOM     32  C   UNL     1      -1.482   5.154   0.050  0.00  0.00    +0.010 C 
ATOM     33  C   UNL     1      -0.026   1.117  -2.491  0.00  0.00    +0.010 C 
ATOM     34  N   UNL     1       0.565   3.668  -1.310  0.00  0.00    -0.284 N 
ATOM     35  C   UNL     1       0.601   4.394  -2.443  0.00  0.00    +0.310 C 
ATOM     36  O   UNL     1       1.586   4.993  -2.831  0.00  0.00    -0.252 OA
ATOM     37  H   UNL     1       1.306   3.444  -0.529  0.00  0.00    +0.151 HD
ENDBRANCH  22  23
ENDBRANCH   4  22
TORSDOF 5
