REMARK  Name = ZINC01431210
REMARK  8 active torsions:
REMARK  status: ('A' for Active; 'I' for Inactive)
REMARK    1  A    between atoms: C_1  and  C_2
REMARK    2  A    between atoms: C_3  and  C_29
REMARK    3  A    between atoms: C_4  and  C_20
REMARK    4  A    between atoms: C_10  and  C_15
REMARK    5  A    between atoms: C_24  and  N_26
REMARK    6  A    between atoms: C_29  and  O_31
REMARK    7  A    between atoms: O_31  and  C_32
REMARK    8  A    between atoms: C_32  and  C_33
REMARK                            x       y       z     vdW  Elec       q    Type
REMARK                         _______ _______ _______ _____ _____    ______ ____
ROOT
ATOM      1  C   UNL     1      -2.905   6.765   2.362  0.00  0.00    +0.061 C 
ATOM      2  C   UNL     1      -2.129   6.288   1.161  0.00  0.00    +0.016 C 
ATOM      3  C   UNL     1      -0.856   5.880   1.308  0.00  0.00    +0.065 C 
ATOM      4  C   UNL     1      -0.055   5.392   0.137  0.00  0.00    +0.092 C 
ATOM      5  C   UNL     1      -0.682   5.824  -1.165  0.00  0.00    +0.024 C 
ATOM      6  C   UNL     1      -1.968   6.231  -1.210  0.00  0.00    +0.016 C 
ATOM      7  N   UNL     1      -2.724   6.272  -0.069  0.00  0.00    -0.321 N 
ATOM      8  C   UNL     1      -2.607   6.647  -2.512  0.00  0.00    +0.060 C 
ATOM      9  C   UNL     1      -1.547   7.257  -3.432  0.00  0.00    +0.039 C 
ATOM     10  C   UNL     1      -0.444   6.218  -3.659  0.00  0.00    +0.088 C 
ATOM     11  C   UNL     1       0.110   5.793  -2.327  0.00  0.00    +0.162 C 
ATOM     12  O   UNL     1       1.262   5.414  -2.253  0.00  0.00    -0.292 OA
ATOM     13  H   UNL     1      -3.821   6.291  -0.149  0.00  0.00    +0.152 HD
ENDROOT
BRANCH   4  14
ATOM     14  C   UNL     1       0.013   3.887   0.177  0.00  0.00    -0.033 A 
ATOM     15  C   UNL     1      -1.151   3.141   0.126  0.00  0.00    +0.005 A 
ATOM     16  C   UNL     1      -1.088   1.760   0.157  0.00  0.00    +0.003 A 
ATOM     17  C   UNL     1       0.137   1.126   0.250  0.00  0.00    +0.033 A 
ATOM     18  C   UNL     1       1.300   1.871   0.300  0.00  0.00    +0.126 A 
ATOM     19  C   UNL     1       1.237   3.252   0.264  0.00  0.00    +0.037 A 
BRANCH  18  20
ATOM     20  N   UNL     1       2.611   1.192   0.393  0.00  0.00    +0.056 N 
ATOM     21  O   UNL     1       2.666  -0.024   0.425  0.00  0.00    -0.126 OA
ATOM     22  O   UNL     1       3.636   1.849   0.438  0.00  0.00    -0.126 OA
ENDBRANCH  18  20
ENDBRANCH   4  14
BRANCH   9  23
ATOM     23  C   UNL     1      -2.174   7.626  -4.752  0.00  0.00    -0.006 A 
ATOM     24  C   UNL     1      -2.244   8.838  -5.354  0.00  0.00    +0.011 A 
ATOM     25  C   UNL     1      -2.875   8.943  -6.580  0.00  0.00    +0.008 A 
ATOM     26  C   UNL     1      -3.405   7.829  -7.143  0.00  0.00    +0.045 A 
ATOM     27  S   UNL     1      -3.011   6.579  -5.931  0.00  0.00    -0.101 S 
ENDBRANCH   9  23
BRANCH   3  28
ATOM     28  C   UNL     1      -0.261   5.912   2.590  0.00  0.00    +0.338 C 
ATOM     29  O   UNL     1      -0.861   6.403   3.528  0.00  0.00    -0.245 OA
BRANCH  28  30
ATOM     30  O   UNL     1       0.974   5.399   2.774  0.00  0.00    -0.457 OA
BRANCH  30  31
ATOM     31  C   UNL     1       1.514   5.465   4.095  0.00  0.00    +0.268 C 
BRANCH  31  32
ATOM     32  C   UNL     1       2.889   4.848   4.108  0.00  0.00    -0.010 A 
ATOM     33  C   UNL     1       3.038   3.499   4.369  0.00  0.00    +0.007 A 
ATOM     34  C   UNL     1       4.299   2.932   4.376  0.00  0.00    +0.000 A 
ATOM     35  C   UNL     1       5.411   3.716   4.131  0.00  0.00    +0.000 A 
ATOM     36  C   UNL     1       5.261   5.066   3.875  0.00  0.00    +0.000 A 
ATOM     37  C   UNL     1       4.000   5.632   3.863  0.00  0.00    +0.007 A 
ENDBRANCH  31  32
ENDBRANCH  30  31
ENDBRANCH  28  30
ENDBRANCH   3  28
TORSDOF 7
