REMARK  Name = ZINC15943735
REMARK  8 active torsions:
REMARK  status: ('A' for Active; 'I' for Inactive)
REMARK    1  A    between atoms: C_1  and  C_2
REMARK    2  A    between atoms: C_5  and  C_32
REMARK    3  A    between atoms: N_8  and  S_10
REMARK    4  A    between atoms: S_10  and  C_13
REMARK    5  A    between atoms: C_16  and  N_19
REMARK    6  A    between atoms: C_20  and  C_22
REMARK    7  A    between atoms: C_22  and  C_23
REMARK    8  A    between atoms: C_26  and  N_29
REMARK                            x       y       z     vdW  Elec       q    Type
REMARK                         _______ _______ _______ _____ _____    ______ ____
ROOT
ATOM      1  C   UNL     1       2.555  -3.282  -0.212  0.00  0.00    +0.106 A 
ATOM      2  C   UNL     1       2.227  -4.487  -0.806  0.00  0.00    +0.030 A 
ATOM      3  C   UNL     1       2.652  -4.763  -2.091  0.00  0.00    +0.025 A 
ATOM      4  C   UNL     1       3.410  -3.829  -2.786  0.00  0.00    +0.034 A 
ATOM      5  C   UNL     1       3.738  -2.620  -2.186  0.00  0.00    +0.025 A 
ATOM      6  C   UNL     1       3.305  -2.348  -0.902  0.00  0.00    +0.030 A 
ENDROOT
BRANCH   4   7
ATOM      7  N   UNL     1       3.843  -4.106  -4.087  0.00  0.00    -0.285 N 
ATOM      8  C   UNL     1       3.075  -4.847  -4.909  0.00  0.00    +0.222 C 
ATOM      9  O   UNL     1       1.968  -5.194  -4.556  0.00  0.00    -0.275 OA
ATOM     10  H   UNL     1       4.696  -3.763  -4.397  0.00  0.00    +0.155 HD
BRANCH   8  11
ATOM     11  C   UNL     1       3.592  -5.245  -6.268  0.00  0.00    +0.131 C 
BRANCH  11  12
ATOM     12  C   UNL     1       2.548  -6.064  -6.982  0.00  0.00    -0.038 A 
ATOM     13  C   UNL     1       2.529  -7.439  -6.836  0.00  0.00    +0.006 A 
ATOM     14  C   UNL     1       1.571  -8.190  -7.492  0.00  0.00    +0.033 A 
ATOM     15  C   UNL     1       0.633  -7.567  -8.293  0.00  0.00    +0.126 A 
ATOM     16  C   UNL     1       0.651  -6.192  -8.438  0.00  0.00    +0.033 A 
ATOM     17  C   UNL     1       1.606  -5.441  -7.779  0.00  0.00    +0.006 A 
BRANCH  15  18
ATOM     18  N   UNL     1      -0.392  -8.372  -8.995  0.00  0.00    +0.056 N 
ATOM     19  O   UNL     1      -0.408  -9.574  -8.868  0.00  0.00    -0.126 OA
ATOM     20  O   UNL     1      -1.213  -7.827  -9.695  0.00  0.00    -0.126 OA
ENDBRANCH  15  18
ENDBRANCH  11  12
ENDBRANCH   8  11
ENDBRANCH   4   7
BRANCH   1  21
ATOM     21  S   UNL     1       2.010  -2.934   1.427  0.00  0.00    +0.061 S 
ATOM     22  O   UNL     1       2.904  -1.964   1.955  0.00  0.00    -0.153 OA
ATOM     23  O   UNL     1       1.789  -4.189   2.057  0.00  0.00    -0.153 OA
BRANCH  21  29
ATOM     24  C   UNL     1      -0.638   1.123  -0.087  0.00  0.00    +0.009 C 
ATOM     25  C   UNL     1      -0.407  -0.389  -0.036  0.00  0.00    +0.002 C 
ATOM     26  C   UNL     1      -1.756  -1.109   0.047  0.00  0.00    +0.009 C 
ATOM     27  C   UNL     1      -1.527  -2.622   0.066  0.00  0.00    +0.002 C 
ATOM     28  C   UNL     1      -0.703  -2.995   1.303  0.00  0.00    +0.112 C 
ATOM     29  N   UNL     1       0.531  -2.198   1.306  0.00  0.00    -0.176 NA
ATOM     30  C   UNL     1       0.430  -0.736   1.199  0.00  0.00    +0.112 C 
ATOM     31  C   UNL     1      -0.772  -3.040  -1.197  0.00  0.00    +0.009 C 
ENDBRANCH  21  29
ENDBRANCH   1  21
TORSDOF 6
