REMARK  Name = ZINC06024390
REMARK  6 active torsions:
REMARK  status: ('A' for Active; 'I' for Inactive)
REMARK    1  A    between atoms: C_1  and  C_2
REMARK    2  A    between atoms: C_2  and  C_3
REMARK    3  A    between atoms: C_3  and  C_4
REMARK    4  A    between atoms: C_4  and  C_5
REMARK    5  A    between atoms: C_12  and  N_22
REMARK    6  A    between atoms: C_13  and  C_20
REMARK                            x       y       z     vdW  Elec       q    Type
REMARK                         _______ _______ _______ _____ _____    ______ ____
ROOT
ATOM      1  C   UNL     1      -2.779  -2.699   0.002  0.00  0.00    +0.044 A 
ATOM      2  C   UNL     1      -3.510  -3.000  -1.082  0.00  0.00    +0.048 A 
ATOM      3  C   UNL     1      -4.721  -3.581  -0.647  0.00  0.00    +0.245 A 
ATOM      4  N   UNL     1      -4.705  -3.619   0.654  0.00  0.00    -0.135 NA
ATOM      5  N   UNL     1      -3.488  -3.074   1.091  0.00  0.00    -0.278 N 
ATOM      6  H   UNL     1      -3.205  -2.981   2.014  0.00  0.00    +0.189 HD
ATOM      7  O   UNL     1      -5.676  -3.998  -1.522  0.00  0.00    -0.422 OA
ATOM      8  C   UNL     1      -5.330  -4.093  -2.821  0.00  0.00    +0.200 C 
ATOM      9  C   UNL     1      -4.205  -3.568  -3.353  0.00  0.00    +0.097 C 
ATOM     10  C   UNL     1      -3.196  -2.799  -2.542  0.00  0.00    +0.042 C 
ATOM     11  C   UNL     1      -3.282  -1.312  -2.887  0.00  0.00    +0.017 C 
ATOM     12  C   UNL     1      -2.970  -1.112  -4.371  0.00  0.00    +0.001 C 
ATOM     13  C   UNL     1      -1.559  -1.626  -4.668  0.00  0.00    +0.000 C 
ATOM     14  C   UNL     1      -1.477  -3.115  -4.327  0.00  0.00    +0.001 C 
ATOM     15  C   UNL     1      -1.789  -3.317  -2.843  0.00  0.00    +0.017 C 
ENDROOT
BRANCH   8  16
ATOM     16  N   UNL     1      -6.178  -4.771  -3.661  0.00  0.00    -0.328 N 
ATOM     17  H   UNL     1      -6.995  -5.161  -3.313  0.00  0.00    +0.145 HD
ATOM     18  H   UNL     1      -5.961  -4.859  -4.602  0.00  0.00    +0.145 HD
ENDBRANCH   8  16
BRANCH   9  19
ATOM     19  C   UNL     1      -3.962  -3.751  -4.753  0.00  0.00    +0.101 C 
ATOM     20  N   UNL     1      -3.769  -3.896  -5.862  0.00  0.00    -0.191 NA
ENDBRANCH   9  19
BRANCH   1  21
ATOM     21  C   UNL     1      -1.413  -2.063   0.004  0.00  0.00    +0.055 C 
BRANCH  21  22
ATOM     22  C   UNL     1      -0.994  -1.762   1.445  0.00  0.00    +0.006 C 
BRANCH  22  24
ATOM     23  C   UNL     1       0.797  -0.782   2.886  0.00  0.00    +0.004 C 
ATOM     24  C   UNL     1       0.378  -1.084   1.446  0.00  0.00    -0.003 C 
ENDBRANCH  22  24
ENDBRANCH  21  22
ENDBRANCH   1  21
TORSDOF 5
