REMARK  Name = ZINC20238737
REMARK  7 active torsions:
REMARK  status: ('A' for Active; 'I' for Inactive)
REMARK    1  A    between atoms: C_1  and  C_2
REMARK    2  A    between atoms: C_2  and  O_3
REMARK    3  A    between atoms: O_3  and  C_4
REMARK    4  A    between atoms: C_7  and  C_13
REMARK    5  A    between atoms: C_8  and  N_10
REMARK    6  A    between atoms: C_16  and  C_18
REMARK    7  A    between atoms: C_28  and  C_30
REMARK                            x       y       z     vdW  Elec       q    Type
REMARK                         _______ _______ _______ _____ _____    ______ ____
ROOT
ATOM      1  C   UNL     1      -0.104  -8.981  -4.118  0.00  0.00    +0.063 C 
ATOM      2  C   UNL     1      -0.684 -10.198  -3.789  0.00  0.00    +0.084 C 
ATOM      3  C   UNL     1      -0.799 -10.654  -2.378  0.00  0.00    +0.153 C 
ATOM      4  N   UNL     1      -0.983  -9.837  -1.372  0.00  0.00    -0.283 NA
ATOM      5  N   UNL     1      -0.693 -12.053  -2.230  0.00  0.00    -0.152 N 
ATOM      6  C   UNL     1      -0.993 -12.834  -3.327  0.00  0.00    +0.181 C 
ATOM      7  N   UNL     1      -1.280 -12.428  -4.538  0.00  0.00    -0.152 NA
ATOM      8  C   UNL     1      -1.224 -11.109  -4.823  0.00  0.00    +0.273 C 
ATOM      9  O   UNL     1      -1.605 -10.680  -5.901  0.00  0.00    -0.268 OA
ATOM     10  S   UNL     1      -0.865 -14.474  -2.667  0.00  0.00    -0.033 S 
ATOM     11  C   UNL     1      -0.328 -14.025  -1.022  0.00  0.00    +0.130 C 
ATOM     12  N   UNL     1      -0.324 -12.715  -1.079  0.00  0.00    -0.164 NA
ATOM     13  H   UNL     1      -1.052 -10.186  -0.470  0.00  0.00    +0.188 HD
ENDROOT
BRANCH  11  14
ATOM     14  C   UNL     1       0.022 -14.907   0.114  0.00  0.00    +0.009 A 
ATOM     15  C   UNL     1       0.417 -14.355   1.333  0.00  0.00    +0.010 A 
ATOM     16  C   UNL     1       0.742 -15.182   2.389  0.00  0.00    +0.001 A 
ATOM     17  C   UNL     1       0.677 -16.556   2.240  0.00  0.00    +0.000 A 
ATOM     18  C   UNL     1       0.286 -17.109   1.033  0.00  0.00    +0.001 A 
ATOM     19  C   UNL     1      -0.047 -16.293  -0.028  0.00  0.00    +0.010 A 
ENDBRANCH  11  14
BRANCH   1  23
ATOM     20  C   UNL     1       1.409  -6.517  -2.047  0.00  0.00    +0.138 A 
ATOM     21  C   UNL     1       1.666  -7.641  -1.288  0.00  0.00    +0.050 A 
ATOM     22  C   UNL     1       1.126  -8.728  -1.972  0.00  0.00    +0.050 A 
ATOM     23  C   UNL     1       0.554  -8.227  -3.133  0.00  0.00    +0.129 A 
ATOM     24  O   UNL     1       0.735  -6.889  -3.149  0.00  0.00    -0.455 OA
BRANCH  20  28
ATOM     25  C   UNL     1       2.543  -2.548  -1.056  0.00  0.00    +0.123 A 
ATOM     26  C   UNL     1       1.748  -3.280  -0.182  0.00  0.00    +0.046 A 
ATOM     27  C   UNL     1       1.378  -4.568  -0.499  0.00  0.00    +0.017 A 
ATOM     28  C   UNL     1       1.802  -5.139  -1.703  0.00  0.00    +0.048 A 
ATOM     29  C   UNL     1       2.601  -4.398  -2.580  0.00  0.00    +0.140 A 
ATOM     30  C   UNL     1       2.962  -3.109  -2.256  0.00  0.00    +0.079 A 
BRANCH  29  31
ATOM     31  N   UNL     1       3.054  -4.997  -3.855  0.00  0.00    +0.057 N 
ATOM     32  O   UNL     1       3.667  -4.327  -4.654  0.00  0.00    -0.126 OA
ATOM     33  O   UNL     1       2.812  -6.156  -4.099  0.00  0.00    -0.126 OA
ENDBRANCH  29  31
BRANCH  25  34
ATOM     34  O   UNL     1       2.905  -1.278  -0.740  0.00  0.00    -0.492 OA
BRANCH  34  36
ATOM     35  C   UNL     1       2.945   0.670   0.690  0.00  0.00    +0.048 C 
ATOM     36  C   UNL     1       2.439  -0.763   0.509  0.00  0.00    +0.225 C 
ENDBRANCH  34  36
ENDBRANCH  25  34
ENDBRANCH  20  28
ENDBRANCH   1  23
TORSDOF 6
