REMARK  Name = ZINC64762076
REMARK  4 active torsions:
REMARK  status: ('A' for Active; 'I' for Inactive)
REMARK    1  A    between atoms: C_1  and  C_2
REMARK    2  A    between atoms: C_2  and  N_3
REMARK    3  A    between atoms: C_7  and  C_19
REMARK    4  A    between atoms: N_21  and  C_22
REMARK                            x       y       z     vdW  Elec       q    Type
REMARK                         _______ _______ _______ _____ _____    ______ ____
ROOT
ATOM      1  N   UNL     1      -1.380  -0.557   0.003  0.00  0.00    -0.203 N 
ATOM      2  C   UNL     1      -2.079  -0.699   1.201  0.00  0.00    +0.059 A 
ATOM      3  C   UNL     1      -1.356  -1.013   2.350  0.00  0.00    +0.026 A 
ATOM      4  C   UNL     1      -1.995  -1.168   3.557  0.00  0.00    +0.015 A 
ATOM      5  C   UNL     1      -3.383  -1.008   3.637  0.00  0.00    +0.038 A 
ATOM      6  C   UNL     1      -4.113  -0.693   2.493  0.00  0.00    +0.023 A 
ATOM      7  C   UNL     1      -3.467  -0.536   1.268  0.00  0.00    +0.007 A 
ATOM      8  C   UNL     1      -4.293  -0.197   0.084  0.00  0.00    +0.011 A 
ATOM      9  C   UNL     1      -5.588   0.295   0.260  0.00  0.00    +0.010 A 
ATOM     10  C   UNL     1      -6.359   0.607  -0.841  0.00  0.00    +0.001 A 
ATOM     11  C   UNL     1      -5.859   0.436  -2.119  0.00  0.00    +0.002 A 
ATOM     12  C   UNL     1      -4.575  -0.050  -2.303  0.00  0.00    +0.029 A 
ATOM     13  C   UNL     1      -3.801  -0.361  -1.210  0.00  0.00    +0.116 A 
ATOM     14  S   UNL     1      -2.159  -0.970  -1.409  0.00  0.00    +0.075 S 
ATOM     15  O   UNL     1      -1.559  -0.214  -2.452  0.00  0.00    -0.150 OA
ATOM     16  O   UNL     1      -2.246  -2.388  -1.437  0.00  0.00    -0.150 OA
ENDROOT
BRANCH   5  17
ATOM     17  C   UNL     1      -4.072  -1.175   4.930  0.00  0.00    +0.248 C 
ATOM     18  O   UNL     1      -5.279  -1.036   4.998  0.00  0.00    -0.270 OA
ATOM     19  N   UNL     1      -3.365  -1.481   6.036  0.00  0.00    -0.281 N 
ATOM     20  H   UNL     1      -2.414  -1.655   5.970  0.00  0.00    +0.155 HD
BRANCH  19  21
ATOM     21  C   UNL     1      -4.004  -1.546   7.279  0.00  0.00    +0.048 A 
ATOM     22  C   UNL     1      -5.310  -2.010   7.367  0.00  0.00    +0.024 A 
ATOM     23  C   UNL     1      -5.938  -2.074   8.595  0.00  0.00    +0.002 A 
ATOM     24  C   UNL     1      -5.268  -1.675   9.738  0.00  0.00    +0.001 A 
ATOM     25  C   UNL     1      -3.968  -1.212   9.654  0.00  0.00    +0.017 A 
ATOM     26  C   UNL     1      -3.332  -1.151   8.429  0.00  0.00    +0.039 A 
ATOM     27 BR   UNL     1      -1.551  -0.524   8.317  0.00  0.00    -0.048 Br
ENDBRANCH  19  21
ENDBRANCH   5  17
BRANCH   1  29
ATOM     28  C   UNL     1      -0.021   1.477  -0.015  0.00  0.00    +0.026 C 
ATOM     29  C   UNL     1      -0.004  -0.053  -0.013  0.00  0.00    +0.128 C 
ENDBRANCH   1  29
TORSDOF 3
