REMARK  Name = ZINC20920342
REMARK  8 active torsions:
REMARK  status: ('A' for Active; 'I' for Inactive)
REMARK    1  A    between atoms: C_4  and  C_7
REMARK    2  A    between atoms: C_7  and  C_8
REMARK    3  A    between atoms: C_8  and  C_23
REMARK    4  A    between atoms: N_11  and  C_15
REMARK    5  A    between atoms: C_15  and  C_16
REMARK    6  A    between atoms: C_16  and  C_17
REMARK    7  A    between atoms: N_26  and  C_29
REMARK    8  A    between atoms: C_29  and  C_30
REMARK                            x       y       z     vdW  Elec       q    Type
REMARK                         _______ _______ _______ _____ _____    ______ ____
ROOT
ATOM      1  C   UNL     1      -2.494  -3.131   5.127  0.00  0.00    +0.119 C 
ATOM      2  C   UNL     1      -2.849  -1.781   5.717  0.00  0.00    +0.247 C 
ATOM      3  O   UNL     1      -2.127  -0.813   5.819  0.00  0.00    -0.273 OA
ATOM      4  N   UNL     1      -4.140  -1.885   6.103  0.00  0.00    -0.224 N 
ATOM      5  C   UNL     1      -4.638  -3.099   5.844  0.00  0.00    +0.309 C 
ATOM      6  O   UNL     1      -5.778  -3.431   6.103  0.00  0.00    -0.252 OA
ATOM      7  N   UNL     1      -3.736  -3.911   5.264  0.00  0.00    -0.284 N 
ATOM      8  H   UNL     1      -3.773  -4.953   4.913  0.00  0.00    +0.151 HD
ENDROOT
BRANCH   1   9
ATOM      9  C   UNL     1      -2.106  -2.990   3.653  0.00  0.00    +0.018 C 
ATOM     10  C   UNL     1      -3.203  -2.225   2.907  0.00  0.00    -0.013 C 
ATOM     11  C   UNL     1      -2.783  -2.035   1.448  0.00  0.00    -0.078 C 
ATOM     12  N   UNL     1      -1.519  -1.290   1.394  0.00  0.00    +0.383 N 
ATOM     13  C   UNL     1      -0.439  -2.028   2.063  0.00  0.00    -0.078 C 
ATOM     14  C   UNL     1      -0.789  -2.217   3.541  0.00  0.00    -0.013 C 
ATOM     15  H   UNL     1      -1.664  -0.344   1.935  0.00  0.00    -0.081 HD
BRANCH  12  16
ATOM     16  C   UNL     1      -1.155  -0.969   0.007  0.00  0.00    -0.036 C 
BRANCH  16  17
ATOM     17  C   UNL     1       0.002  -0.004   0.002  0.00  0.00    -0.027 A 
ATOM     18  C   UNL     1       1.332  -0.266  -0.012  0.00  0.00    +0.009 A 
ATOM     19  C   UNL     1       2.223   0.790  -0.015  0.00  0.00    +0.008 A 
ATOM     20  C   UNL     1       1.742   2.057  -0.004  0.00  0.00    +0.045 A 
ATOM     21  S   UNL     1      -0.022   1.781   0.012  0.00  0.00    -0.103 S 
ENDBRANCH  16  17
ENDBRANCH  12  16
ENDBRANCH   1   9
BRANCH   1  22
ATOM     22  C   UNL     1      -1.359  -3.783   5.920  0.00  0.00    +0.070 C 
BRANCH  22  26
ATOM     23  C   UNL     1      -2.637  -4.463   9.939  0.00  0.00    +0.000 A 
ATOM     24  C   UNL     1      -2.835  -5.435   8.977  0.00  0.00    +0.000 A 
ATOM     25  C   UNL     1      -2.421  -5.216   7.676  0.00  0.00    +0.004 A 
ATOM     26  C   UNL     1      -1.810  -4.023   7.338  0.00  0.00    -0.045 A 
ATOM     27  C   UNL     1      -1.607  -3.052   8.301  0.00  0.00    +0.004 A 
ATOM     28  C   UNL     1      -2.025  -3.270   9.600  0.00  0.00    +0.000 A 
ENDBRANCH  22  26
ENDBRANCH   1  22
BRANCH   4  29
ATOM     29  C   UNL     1      -4.899  -0.801   6.731  0.00  0.00    +0.124 C 
BRANCH  29  30
ATOM     30  C   UNL     1      -4.735  -0.877   8.251  0.00  0.00    +0.075 C 
BRANCH  30  31
ATOM     31  C   UNL     1      -5.516   0.237   8.897  0.00  0.00    +0.043 A 
ATOM     32  C   UNL     1      -6.455  -0.059   9.867  0.00  0.00    +0.023 A 
ATOM     33  C   UNL     1      -7.168   0.974  10.456  0.00  0.00    +0.003 A 
ATOM     34  C   UNL     1      -6.909   2.272  10.045  0.00  0.00    +0.020 A 
ATOM     35  C   UNL     1      -5.955   2.492   9.070  0.00  0.00    +0.111 A 
ATOM     36  N   UNL     1      -5.293   1.485   8.535  0.00  0.00    -0.260 NA
ENDBRANCH  30  31
ENDBRANCH  29  30
ENDBRANCH   4  29
TORSDOF 8
