REMARK  Name = ZINC35073229
REMARK  15 active torsions:
REMARK  status: ('A' for Active; 'I' for Inactive)
REMARK    1  A    between atoms: C_1  and  C_2
REMARK    2  A    between atoms: C_2  and  C_3
REMARK    3  A    between atoms: C_3  and  C_4
REMARK    4  A    between atoms: C_4  and  N_5
REMARK    5  A    between atoms: N_8  and  C_9
REMARK    6  A    between atoms: N_8  and  C_14
REMARK    7  A    between atoms: C_9  and  C_10
REMARK    8  A    between atoms: C_10  and  N_11
REMARK    9  A    between atoms: N_11  and  C_12
REMARK   10  A    between atoms: N_11  and  C_13
REMARK   11  A    between atoms: C_14  and  C_16
REMARK   12  A    between atoms: C_14  and  C_17
REMARK   13  A    between atoms: N_27  and  C_28
REMARK   14  A    between atoms: C_33  and  C_34
REMARK   15  A    between atoms: C_34  and  C_35
REMARK                            x       y       z     vdW  Elec       q    Type
REMARK                         _______ _______ _______ _____ _____    ______ ____
ROOT
ATOM      1  C   UNL     1       2.640  -5.750   5.781  0.00  0.00    +0.138 A 
ATOM      2  N   UNL     1       3.697  -5.267   6.361  0.00  0.00    -0.231 NA
ATOM      3  C   UNL     1       3.610  -4.519   7.489  0.00  0.00    +0.078 A 
ATOM      4  C   UNL     1       4.746  -4.000   8.113  0.00  0.00    +0.028 A 
ATOM      5  C   UNL     1       4.612  -3.245   9.257  0.00  0.00    +0.002 A 
ATOM      6  C   UNL     1       3.358  -2.993   9.799  0.00  0.00    +0.001 A 
ATOM      7  C   UNL     1       2.223  -3.495   9.202  0.00  0.00    +0.015 A 
ATOM      8  C   UNL     1       2.337  -4.260   8.044  0.00  0.00    +0.065 A 
ATOM      9  C   UNL     1       1.160  -4.821   7.363  0.00  0.00    +0.266 A 
ATOM     10  O   UNL     1       0.035  -4.635   7.789  0.00  0.00    -0.267 OA
ATOM     11  N   UNL     1       1.376  -5.546   6.241  0.00  0.00    -0.263 N 
ENDROOT
BRANCH  11  12
ATOM     12  C   UNL     1       0.289  -6.098   5.552  0.00  0.00    +0.054 A 
ATOM     13  C   UNL     1       0.065  -7.468   5.588  0.00  0.00    +0.026 A 
ATOM     14  C   UNL     1      -1.008  -8.009   4.908  0.00  0.00    +0.002 A 
ATOM     15  C   UNL     1      -1.859  -7.188   4.190  0.00  0.00    +0.000 A 
ATOM     16  C   UNL     1      -1.638  -5.824   4.151  0.00  0.00    +0.005 A 
ATOM     17  C   UNL     1      -0.570  -5.276   4.835  0.00  0.00    -0.024 A 
BRANCH  17  18
ATOM     18  C   UNL     1      -0.334  -3.788   4.798  0.00  0.00    +0.034 C 
ATOM     19  C   UNL     1       0.606  -3.450   3.638  0.00  0.00    +0.009 C 
ENDBRANCH  17  18
ENDBRANCH  11  12
BRANCH   1  20
ATOM     20  C   UNL     1       2.823  -6.571   4.531  0.00  0.00    +0.141 C 
ATOM     21  C   UNL     1       3.811  -7.707   4.806  0.00  0.00    +0.036 C 
BRANCH  20  25
ATOM     22  N   UNL     1       2.965  -4.340   1.615  0.00  0.00    -0.299 N 
ATOM     23  C   UNL     1       2.505  -5.209   2.536  0.00  0.00    +0.303 C 
ATOM     24  O   UNL     1       1.333  -5.533   2.534  0.00  0.00    -0.253 OA
ATOM     25  N   UNL     1       3.344  -5.720   3.459  0.00  0.00    -0.278 N 
ATOM     26  H   UNL     1       3.900  -4.081   1.616  0.00  0.00    +0.150 HD
BRANCH  22  27
ATOM     27  C   UNL     1       2.053  -3.784   0.611  0.00  0.00    +0.106 C 
BRANCH  27  28
ATOM     28  C   UNL     1       2.823  -2.832  -0.306  0.00  0.00    +0.018 C 
BRANCH  28  30
ATOM     29  C   UNL     1       2.640  -1.300  -2.271  0.00  0.00    +0.004 C 
ATOM     30  C   UNL     1       1.870  -2.252  -1.354  0.00  0.00    -0.002 C 
ENDBRANCH  28  30
ENDBRANCH  27  28
ENDBRANCH  22  27
BRANCH  25  31
ATOM     31  C   UNL     1       4.777  -5.423   3.390  0.00  0.00    +0.091 C 
BRANCH  31  32
ATOM     32  C   UNL     1       5.054  -4.083   4.073  0.00  0.00    -0.060 C 
BRANCH  32  33
ATOM     33  N   UNL     1       6.463  -3.716   3.880  0.00  0.00    +0.377 N 
ATOM     34  C   UNL     1       6.800  -2.586   4.755  0.00  0.00    -0.097 C 
ATOM     35  C   UNL     1       7.318  -4.864   4.213  0.00  0.00    -0.097 C 
ATOM     36  H   UNL     1       6.613  -3.453   2.917  0.00  0.00    -0.083 HD
ENDBRANCH  32  33
ENDBRANCH  31  32
ENDBRANCH  25  31
ENDBRANCH  20  25
ENDBRANCH   1  20
TORSDOF 10
