REMARK  Name = ZINC60244777
REMARK  9 active torsions:
REMARK  status: ('A' for Active; 'I' for Inactive)
REMARK    1  A    between atoms: C_1  and  C_2
REMARK    2  A    between atoms: C_2  and  C_4
REMARK    3  A    between atoms: C_2  and  N_15
REMARK    4  A    between atoms: C_7  and  N_10
REMARK    5  A    between atoms: N_15  and  C_16
REMARK    6  A    between atoms: N_19  and  C_20
REMARK    7  A    between atoms: C_20  and  C_21
REMARK    8  A    between atoms: N_26  and  C_28
REMARK    9  A    between atoms: C_28  and  C_29
REMARK                            x       y       z     vdW  Elec       q    Type
REMARK                         _______ _______ _______ _____ _____    ______ ____
ROOT
ATOM      1  N   UNL     1       0.837  -0.415   1.182  0.00  0.00    -0.282 N 
ATOM      2  C   UNL     1       0.424  -0.101   2.552  0.00  0.00    +0.134 C 
ATOM      3  C   UNL     1       2.040  -0.977   0.953  0.00  0.00    +0.302 C 
ATOM      4  O   UNL     1       2.383  -1.237  -0.185  0.00  0.00    -0.253 OA
ATOM      5  N   UNL     1       2.864  -1.249   1.984  0.00  0.00    -0.299 N 
ATOM      6  H   UNL     1       2.591  -1.041   2.891  0.00  0.00    +0.150 HD
ENDROOT
BRANCH   1   8
ATOM      7  C   UNL     1      -0.473   1.353   0.115  0.00  0.00    +0.033 C 
ATOM      8  C   UNL     1      -0.059  -0.119   0.061  0.00  0.00    +0.104 C 
BRANCH   8   9
ATOM      9  C   UNL     1      -1.285  -0.990   0.154  0.00  0.00    -0.027 A 
ATOM     10  C   UNL     1      -1.638  -1.800  -0.909  0.00  0.00    +0.007 A 
ATOM     11  C   UNL     1      -2.761  -2.600  -0.827  0.00  0.00    +0.028 A 
ATOM     12  C   UNL     1      -3.536  -2.590   0.325  0.00  0.00    +0.067 A 
ATOM     13  C   UNL     1      -3.179  -1.775   1.391  0.00  0.00    +0.028 A 
ATOM     14  C   UNL     1      -2.052  -0.982   1.305  0.00  0.00    +0.007 A 
BRANCH  12  15
ATOM     15  N   UNL     1      -4.677  -3.400   0.411  0.00  0.00    -0.220 N 
ATOM     16  C   UNL     1      -5.524  -3.493   1.454  0.00  0.00    +0.225 A 
ATOM     17  N   UNL     1      -6.458  -4.355   1.142  0.00  0.00    -0.222 NA
ATOM     18  C   UNL     1      -6.242  -4.832  -0.084  0.00  0.00    +0.245 A 
ATOM     19  N   UNL     1      -5.167  -4.272  -0.574  0.00  0.00    -0.154 NA
ENDBRANCH  12  15
ENDBRANCH   8   9
ENDBRANCH   1   8
BRANCH   5  20
ATOM     20  C   UNL     1       4.173  -1.859   1.734  0.00  0.00    +0.107 C 
BRANCH  20  21
ATOM     21  C   UNL     1       4.902  -2.062   3.064  0.00  0.00    -0.011 C 
ATOM     22  C   UNL     1       5.207  -0.699   3.693  0.00  0.00    +0.001 C 
ATOM     23  C   UNL     1       6.005  -0.910   4.982  0.00  0.00    -0.018 C 
ATOM     24  C   UNL     1       7.277  -1.699   4.665  0.00  0.00    -0.078 C 
ATOM     25  N   UNL     1       6.919  -3.002   4.091  0.00  0.00    +0.383 N 
ATOM     26  C   UNL     1       6.215  -2.809   2.818  0.00  0.00    -0.073 C 
ATOM     27  H   UNL     1       6.319  -3.497   4.734  0.00  0.00    -0.081 HD
BRANCH  25  28
ATOM     28  C   UNL     1       8.139  -3.786   3.861  0.00  0.00    -0.036 C 
BRANCH  28  29
ATOM     29  C   UNL     1       8.793  -4.098   5.182  0.00  0.00    -0.027 A 
ATOM     30  C   UNL     1       8.608  -5.167   5.994  0.00  0.00    +0.009 A 
ATOM     31  C   UNL     1       9.326  -5.245   7.173  0.00  0.00    +0.008 A 
ATOM     32  C   UNL     1      10.194  -4.251   7.481  0.00  0.00    +0.045 A 
ATOM     33  S   UNL     1      10.018  -3.159   6.080  0.00  0.00    -0.103 S 
ENDBRANCH  28  29
ENDBRANCH  25  28
ENDBRANCH  20  21
ENDBRANCH   5  20
TORSDOF 7
