REMARK  Name = ZINC24836804
REMARK  10 active torsions:
REMARK  status: ('A' for Active; 'I' for Inactive)
REMARK    1  A    between atoms: C_1  and  N_2
REMARK    2  A    between atoms: N_2  and  C_3
REMARK    3  A    between atoms: N_2  and  C_16
REMARK    4  A    between atoms: C_3  and  C_4
REMARK    5  A    between atoms: C_7  and  O_12
REMARK    6  A    between atoms: C_8  and  O_10
REMARK    7  A    between atoms: O_10  and  C_11
REMARK    8  A    between atoms: O_12  and  C_13
REMARK    9  A    between atoms: C_16  and  C_17
REMARK   10  A    between atoms: C_30  and  C_32
REMARK                            x       y       z     vdW  Elec       q    Type
REMARK                         _______ _______ _______ _____ _____    ______ ____
ROOT
ATOM      1  C   UNL     1      -0.333  -0.702   1.105  0.00  0.00    +0.204 C 
ATOM      2  O   UNL     1      -0.313  -1.915   1.085  0.00  0.00    -0.277 OA
ATOM      3  N   UNL     1       0.002  -0.004   0.002  0.00  0.00    -0.259 N 
ATOM      4  C   UNL     1      -0.017   1.397   0.010  0.00  0.00    +0.058 A 
ATOM      5  C   UNL     1      -1.219   2.086   0.019  0.00  0.00    +0.025 A 
ATOM      6  C   UNL     1      -1.220   3.469  -0.001  0.00  0.00    +0.002 A 
ATOM      7  C   UNL     1      -0.026   4.166  -0.031  0.00  0.00    +0.002 A 
ATOM      8  C   UNL     1       1.178   3.486  -0.030  0.00  0.00    +0.025 A 
ATOM      9  C   UNL     1       1.187   2.102   0.002  0.00  0.00    +0.055 A 
ATOM     10  N   UNL     1       2.392   1.391   0.045  0.00  0.00    -0.284 N 
ATOM     11  C   UNL     1       2.608   0.355  -0.796  0.00  0.00    +0.219 C 
ATOM     12  O   UNL     1       3.623  -0.301  -0.695  0.00  0.00    -0.275 OA
ATOM     13  C   UNL     1       1.597   0.009  -1.857  0.00  0.00    +0.128 C 
ATOM     14  C   UNL     1       0.393  -0.694  -1.228  0.00  0.00    +0.194 C 
ATOM     15  H   UNL     1       3.172   1.673   0.768  0.00  0.00    +0.155 HD
ENDROOT
BRANCH  14  16
ATOM     16  C   UNL     1      -0.777  -0.678  -2.214  0.00  0.00    +0.409 C 
ATOM     17  F   UNL     1      -1.119   0.646  -2.510  0.00  0.00    -0.169 F 
ATOM     18  F   UNL     1      -0.404  -1.337  -3.390  0.00  0.00    -0.169 F 
ATOM     19  F   UNL     1      -1.876  -1.328  -1.643  0.00  0.00    -0.169 F 
ENDBRANCH  14  16
BRANCH   1  20
ATOM     20  C   UNL     1      -0.734   0.024   2.363  0.00  0.00    +0.019 C 
BRANCH  20  22
ATOM     21  C   UNL     1       0.148  -1.706   3.810  0.00  0.00    -0.095 C 
ATOM     22  N   UNL     1      -1.050  -0.954   3.413  0.00  0.00    +0.386 N 
ATOM     23  H   UNL     1      -1.777  -1.670   3.002  0.00  0.00    -0.081 HD
BRANCH  22  24
ATOM     24  C   UNL     1      -1.669  -0.299   4.574  0.00  0.00    -0.043 C 
BRANCH  24  25
ATOM     25  C   UNL     1      -2.199  -1.347   5.518  0.00  0.00    -0.060 A 
ATOM     26  C   UNL     1      -3.497  -1.805   5.382  0.00  0.00    +0.005 A 
ATOM     27  C   UNL     1      -3.986  -2.770   6.242  0.00  0.00    +0.050 A 
ATOM     28  C   UNL     1      -3.179  -3.273   7.250  0.00  0.00    +0.168 A 
ATOM     29  C   UNL     1      -1.875  -2.808   7.391  0.00  0.00    +0.162 A 
ATOM     30  C   UNL     1      -1.389  -1.845   6.522  0.00  0.00    +0.051 A 
BRANCH  29  31
ATOM     31  O   UNL     1      -1.080  -3.299   8.379  0.00  0.00    -0.491 OA
ATOM     32  C   UNL     1       0.248  -2.776   8.462  0.00  0.00    +0.277 C 
ENDBRANCH  29  31
BRANCH  28  33
ATOM     33  O   UNL     1      -3.661  -4.218   8.101  0.00  0.00    -0.431 OA
BRANCH  33  34
ATOM     34  C   UNL     1      -5.009  -4.648   7.897  0.00  0.00    +0.541 C 
ATOM     35  F   UNL     1      -5.872  -3.553   8.024  0.00  0.00    -0.166 F 
ATOM     36  F   UNL     1      -5.135  -5.196   6.616  0.00  0.00    -0.166 F 
ENDBRANCH  33  34
ENDBRANCH  28  33
ENDBRANCH  24  25
ENDBRANCH  22  24
ENDBRANCH  20  22
ENDBRANCH   1  20
TORSDOF 8
