REMARK  Name = ZINC09219583
REMARK  7 active torsions:
REMARK  status: ('A' for Active; 'I' for Inactive)
REMARK    1  A    between atoms: C_1  and  C_2
REMARK    2  A    between atoms: C_2  and  C_3
REMARK    3  A    between atoms: C_2  and  C_4
REMARK    4  A    between atoms: C_4  and  C_6
REMARK    5  A    between atoms: C_4  and  N_16
REMARK    6  A    between atoms: C_17  and  C_19
REMARK    7  A    between atoms: C_19  and  N_20
REMARK                            x       y       z     vdW  Elec       q    Type
REMARK                         _______ _______ _______ _____ _____    ______ ____
ROOT
ATOM      1  N   UNL     1      -4.199   0.909   1.691  0.00  0.00    -0.304 N 
ATOM      2  C   UNL     1      -2.950   1.350   1.442  0.00  0.00    +0.232 C 
ATOM      3  O   UNL     1      -2.202   1.606   2.362  0.00  0.00    -0.274 OA
ATOM      4  H   UNL     1      -4.797   0.705   0.955  0.00  0.00    +0.149 HD
ENDROOT
BRANCH   1   5
ATOM      5  C   UNL     1      -4.654   0.740   3.073  0.00  0.00    +0.141 C 
BRANCH   5   6
ATOM      6  C   UNL     1      -5.758  -0.284   3.117  0.00  0.00    +0.129 A 
ATOM      7  N   UNL     1      -6.189  -1.012   2.051  0.00  0.00    -0.340 N 
ATOM      8  H   UNL     1      -5.836  -0.960   1.116  0.00  0.00    +0.167 HD
ATOM      9  C   UNL     1      -7.203  -1.835   2.498  0.00  0.00    +0.066 A 
ATOM     10  C   UNL     1      -8.014  -2.785   1.893  0.00  0.00    +0.028 A 
ATOM     11  C   UNL     1      -8.965  -3.447   2.641  0.00  0.00    +0.002 A 
ATOM     12  C   UNL     1      -9.115  -3.169   3.992  0.00  0.00    +0.002 A 
ATOM     13  C   UNL     1      -8.326  -2.237   4.604  0.00  0.00    +0.030 A 
ATOM     14  C   UNL     1      -7.356  -1.554   3.866  0.00  0.00    +0.089 A 
ATOM     15  N   UNL     1      -6.442  -0.599   4.178  0.00  0.00    -0.231 NA
ENDBRANCH   5   6
BRANCH   5  17
ATOM     16  C   UNL     1      -5.652   1.899   5.049  0.00  0.00    +0.009 C 
ATOM     17  C   UNL     1      -5.177   2.076   3.605  0.00  0.00    +0.011 C 
ATOM     18  C   UNL     1      -4.056   3.116   3.561  0.00  0.00    +0.009 C 
ENDBRANCH   5  17
ENDBRANCH   1   5
BRANCH   2  19
ATOM     19  C   UNL     1      -2.482   1.524   0.020  0.00  0.00    +0.213 C 
BRANCH  19  20
ATOM     20  N   UNL     1      -1.099   2.010   0.017  0.00  0.00    -0.215 N 
ATOM     21  C   UNL     1      -0.014   1.208   0.009  0.00  0.00    +0.251 C 
ATOM     22  O   UNL     1       0.002  -0.004   0.002  0.00  0.00    -0.272 OA
ATOM     23  C   UNL     1       1.177   2.139   0.002  0.00  0.00    +0.138 C 
ATOM     24  C   UNL     1       2.000   1.937  -1.264  0.00  0.00    +0.040 C 
ATOM     25  C   UNL     1       2.752   0.606  -1.147  0.00  0.00    +0.008 C 
ATOM     26  C   UNL     1       3.823   0.749  -0.067  0.00  0.00    +0.035 C 
ATOM     27  C   UNL     1       3.224   1.285   1.207  0.00  0.00    -0.042 A 
ATOM     28  C   UNL     1       2.007   1.929   1.238  0.00  0.00    -0.012 A 
ATOM     29  C   UNL     1       1.513   2.407   2.444  0.00  0.00    +0.006 A 
ATOM     30  C   UNL     1       2.229   2.239   3.611  0.00  0.00    +0.000 A 
ATOM     31  C   UNL     1       3.449   1.589   3.581  0.00  0.00    +0.000 A 
ATOM     32  C   UNL     1       3.943   1.115   2.383  0.00  0.00    +0.004 A 
ATOM     33  N   UNL     1       0.578   3.481   0.014  0.00  0.00    -0.281 N 
ATOM     34  C   UNL     1      -0.756   3.303   0.026  0.00  0.00    +0.310 C 
ATOM     35  O   UNL     1      -1.560   4.215   0.038  0.00  0.00    -0.252 OA
ATOM     36  H   UNL     1       1.051   4.328   0.014  0.00  0.00    +0.152 HD
ENDBRANCH  19  20
ENDBRANCH   2  19
TORSDOF 5
