REMARK  Name = ZINC39623225
REMARK  4 active torsions:
REMARK  status: ('A' for Active; 'I' for Inactive)
REMARK    1  A    between atoms: C_5  and  C_7
REMARK    2  A    between atoms: C_7  and  N_8
REMARK    3  A    between atoms: C_9  and  C_11
REMARK    4  A    between atoms: C_22  and  C_24
REMARK                            x       y       z     vdW  Elec       q    Type
REMARK                         _______ _______ _______ _____ _____    ______ ____
ROOT
ATOM      1  C   UNL     1       1.843  -4.510   3.038  0.00  0.00    +0.100 C 
ATOM      2  C   UNL     1       0.745  -3.980   3.986  0.00  0.00    +0.121 C 
ATOM      3  N   UNL     1      -0.261  -5.067   4.040  0.00  0.00    -0.297 N 
ATOM      4  C   UNL     1       0.544  -6.312   4.068  0.00  0.00    +0.115 C 
ATOM      5  C   UNL     1       1.710  -6.041   3.097  0.00  0.00    -0.004 C 
ATOM      6  C   UNL     1       2.997  -6.663   3.631  0.00  0.00    -0.010 C 
ATOM      7  C   UNL     1       2.862  -8.188   3.626  0.00  0.00    -0.082 C 
ATOM      8  N   UNL     1       2.601  -8.653   2.258  0.00  0.00    +0.379 N 
ATOM      9  C   UNL     1       1.315  -8.125   1.786  0.00  0.00    -0.082 C 
ATOM     10  C   UNL     1       1.385  -6.597   1.714  0.00  0.00    -0.010 C 
ATOM     11  C   UNL     1      -1.603  -4.950   4.060  0.00  0.00    +0.260 C 
ATOM     12  O   UNL     1      -2.119  -3.860   3.934  0.00  0.00    -0.271 OA
ATOM     13  H   UNL     1       3.338  -8.333   1.649  0.00  0.00    -0.086 HD
ATOM     14  H   UNL     1       2.573  -9.662   2.247  0.00  0.00    -0.086 HD
ENDROOT
BRANCH  11  15
ATOM     15  C   UNL     1      -2.464  -6.175   4.238  0.00  0.00    +0.296 C 
ATOM     16  C   UNL     1      -2.299  -6.720   5.664  0.00  0.00    +0.283 C 
ATOM     17  O   UNL     1      -3.138  -7.871   5.803  0.00  0.00    -0.484 OA
ATOM     18  C   UNL     1      -4.413  -7.758   5.340  0.00  0.00    +0.162 A 
ATOM     19  C   UNL     1      -5.371  -8.671   5.755  0.00  0.00    +0.049 A 
ATOM     20  C   UNL     1      -6.669  -8.572   5.291  0.00  0.00    +0.004 A 
ATOM     21  C   UNL     1      -7.016  -7.562   4.412  0.00  0.00    +0.004 A 
ATOM     22  C   UNL     1      -6.066  -6.649   3.996  0.00  0.00    +0.049 A 
ATOM     23  C   UNL     1      -4.762  -6.742   4.459  0.00  0.00    +0.163 A 
ATOM     24  O   UNL     1      -3.840  -5.831   4.045  0.00  0.00    -0.473 OA
ENDBRANCH  11  15
BRANCH   1  26
ATOM     25  N   UNL     1       2.650  -3.817   0.805  0.00  0.00    -0.311 N 
ATOM     26  C   UNL     1       1.606  -4.017   1.634  0.00  0.00    +0.218 C 
ATOM     27  O   UNL     1       0.477  -3.800   1.249  0.00  0.00    -0.275 OA
ATOM     28  H   UNL     1       3.554  -3.990   1.113  0.00  0.00    +0.149 HD
BRANCH  25  29
ATOM     29  C   UNL     1       2.421  -3.337  -0.560  0.00  0.00    +0.141 C 
BRANCH  29  34
ATOM     30  C   UNL     1       5.544  -1.825  -2.047  0.00  0.00    +0.000 A 
ATOM     31  C   UNL     1       6.165  -2.940  -2.580  0.00  0.00    +0.001 A 
ATOM     32  C   UNL     1       5.574  -4.184  -2.460  0.00  0.00    +0.020 A 
ATOM     33  C   UNL     1       4.361  -4.313  -1.806  0.00  0.00    +0.046 A 
ATOM     34  C   UNL     1       3.741  -3.197  -1.272  0.00  0.00    -0.012 A 
ATOM     35  C   UNL     1       4.333  -1.954  -1.394  0.00  0.00    +0.006 A 
ATOM     36 CL   UNL     1       3.618  -5.875  -1.655  0.00  0.00    -0.083 Cl
ENDBRANCH  29  34
ENDBRANCH  25  29
ENDBRANCH   1  26
TORSDOF 4
