REMARK  Name = ZINC23769168
REMARK  16 active torsions:
REMARK  status: ('A' for Active; 'I' for Inactive)
REMARK    1  A    between atoms: C_1  and  C_2
REMARK    2  A    between atoms: C_2  and  C_3
REMARK    3  A    between atoms: C_2  and  C_4
REMARK    4  A    between atoms: C_4  and  C_6
REMARK    5  A    between atoms: C_4  and  N_16
REMARK    6  A    between atoms: C_9  and  C_12
REMARK    7  A    between atoms: C_12  and  C_13
REMARK    8  A    between atoms: C_12  and  C_14
REMARK    9  A    between atoms: C_12  and  C_15
REMARK   10  A    between atoms: C_17  and  C_19
REMARK   11  A    between atoms: C_19  and  C_20
REMARK   12  A    between atoms: C_20  and  N_21
REMARK   13  A    between atoms: N_21  and  C_22
REMARK   14  A    between atoms: C_25  and  S_31
REMARK   15  A    between atoms: C_27  and  N_28
REMARK   16  A    between atoms: S_31  and  N_34
REMARK                            x       y       z     vdW  Elec       q    Type
REMARK                         _______ _______ _______ _____ _____    ______ ____
ROOT
ATOM      1  C   UNL     1      -0.258  -4.327   1.056  0.00  0.00    +0.114 C 
ENDROOT
BRANCH   1   3
ATOM      2  N   UNL     1       0.102  -2.198  -0.152  0.00  0.00    -0.308 N 
ATOM      3  C   UNL     1      -0.025  -2.838   1.027  0.00  0.00    +0.215 C 
ATOM      4  O   UNL     1       0.048  -2.216   2.066  0.00  0.00    -0.276 OA
ATOM      5  H   UNL     1       0.043  -2.696  -0.983  0.00  0.00    +0.149 HD
BRANCH   2   6
ATOM      6  C   UNL     1       0.328  -0.751  -0.180  0.00  0.00    +0.106 C 
BRANCH   6   7
ATOM      7  C   UNL     1      -0.163  -0.191  -1.490  0.00  0.00    -0.027 A 
ATOM      8  C   UNL     1       0.047  -0.892  -2.663  0.00  0.00    +0.006 A 
ATOM      9  C   UNL     1      -0.403  -0.378  -3.865  0.00  0.00    +0.004 A 
ATOM     10  C   UNL     1      -1.063   0.837  -3.894  0.00  0.00    -0.042 A 
ATOM     11  C   UNL     1      -1.273   1.537  -2.721  0.00  0.00    +0.004 A 
ATOM     12  C   UNL     1      -0.827   1.021  -1.518  0.00  0.00    +0.006 A 
BRANCH  10  13
ATOM     13  C   UNL     1      -1.553   1.397  -5.204  0.00  0.00    -0.013 C 
ATOM     14  C   UNL     1      -2.547   0.421  -5.837  0.00  0.00    +0.015 C 
ATOM     15  C   UNL     1      -2.243   2.740  -4.958  0.00  0.00    +0.015 C 
ATOM     16  C   UNL     1      -0.366   1.599  -6.148  0.00  0.00    +0.015 C 
ENDBRANCH  10  13
ENDBRANCH   6   7
BRANCH   6  18
ATOM     17  C   UNL     1       2.061   1.045  -0.061  0.00  0.00    +0.009 C 
ATOM     18  C   UNL     1       1.824  -0.466  -0.032  0.00  0.00    +0.008 C 
ATOM     19  C   UNL     1       2.322  -1.035   1.298  0.00  0.00    +0.009 C 
ENDBRANCH   6  18
ENDBRANCH   2   6
ENDBRANCH   1   3
BRANCH   1  20
ATOM     20  C   UNL     1      -0.365  -4.798   2.507  0.00  0.00    +0.111 C 
BRANCH  20  21
ATOM     21  N   UNL     1      -0.591  -6.245   2.535  0.00  0.00    -0.342 N 
ATOM     22  H   UNL     1      -0.650  -6.743   1.705  0.00  0.00    +0.146 HD
BRANCH  21  23
ATOM     23  C   UNL     1      -0.723  -6.908   3.757  0.00  0.00    +0.058 A 
ATOM     24  C   UNL     1      -0.518  -6.221   4.948  0.00  0.00    +0.027 A 
ATOM     25  C   UNL     1      -0.649  -6.880   6.154  0.00  0.00    +0.030 A 
ATOM     26  C   UNL     1      -0.984  -8.221   6.179  0.00  0.00    +0.107 A 
ATOM     27  C   UNL     1      -1.187  -8.908   4.997  0.00  0.00    +0.063 A 
ATOM     28  C   UNL     1      -1.063  -8.254   3.786  0.00  0.00    +0.149 A 
BRANCH  28  29
ATOM     29  N   UNL     1      -1.288  -8.989   2.521  0.00  0.00    +0.058 N 
ATOM     30  O   UNL     1      -1.837  -8.442   1.593  0.00  0.00    -0.126 OA
ATOM     31  O   UNL     1      -0.922 -10.136   2.415  0.00  0.00    -0.126 OA
ENDBRANCH  28  29
BRANCH  26  32
ATOM     32  S   UNL     1      -1.150  -9.058   7.721  0.00  0.00    +0.056 S 
ATOM     33  O   UNL     1      -0.934 -10.438   7.460  0.00  0.00    -0.153 OA
ATOM     34  O   UNL     1      -0.374  -8.330   8.663  0.00  0.00    -0.153 OA
BRANCH  32  35
ATOM     35  N   UNL     1      -2.730  -8.907   8.192  0.00  0.00    -0.204 NA
ATOM     36  H   UNL     1      -3.358  -8.421   7.634  0.00  0.00    +0.144 HD
ATOM     37  H   UNL     1      -3.028  -9.303   9.025  0.00  0.00    +0.144 HD
ENDBRANCH  32  35
ENDBRANCH  26  32
ENDBRANCH  21  23
ENDBRANCH  20  21
ENDBRANCH   1  20
TORSDOF 11
