REMARK  Name = ZINC09589947
REMARK  5 active torsions:
REMARK  status: ('A' for Active; 'I' for Inactive)
REMARK    1  A    between atoms: C_1  and  C_2
REMARK    2  A    between atoms: C_8  and  N_10
REMARK    3  A    between atoms: C_11  and  C_13
REMARK    4  A    between atoms: N_23  and  C_26
REMARK    5  A    between atoms: C_26  and  C_27
REMARK                            x       y       z     vdW  Elec       q    Type
REMARK                         _______ _______ _______ _____ _____    ______ ____
ROOT
ATOM      1  C   UNL     1      -2.459   0.866   0.018  0.00  0.00    +0.039 A 
ATOM      2  C   UNL     1      -2.437  -0.532   0.005  0.00  0.00    +0.014 A 
ATOM      3  C   UNL     1      -3.615  -1.245   0.011  0.00  0.00    +0.016 A 
ATOM      4  C   UNL     1      -4.832  -0.569   0.021  0.00  0.00    +0.063 A 
ATOM      5  C   UNL     1      -4.861   0.836   0.029  0.00  0.00    +0.056 A 
ATOM      6  C   UNL     1      -3.673   1.549   0.028  0.00  0.00    +0.039 A 
ATOM      7  N   UNL     1      -6.092   1.479   0.039  0.00  0.00    -0.307 N 
ATOM      8  H   UNL     1      -6.127   2.448   0.045  0.00  0.00    +0.170 HD
ATOM      9  C   UNL     1      -7.235   0.772   0.041  0.00  0.00    +0.330 A 
ATOM     10  O   UNL     1      -8.291   1.374   0.049  0.00  0.00    -0.246 OA
ATOM     11  N   UNL     1      -7.260  -0.570   0.033  0.00  0.00    -0.256 N 
ATOM     12  C   UNL     1      -6.119  -1.293   0.023  0.00  0.00    +0.265 A 
ATOM     13  O   UNL     1      -6.151  -2.508   0.016  0.00  0.00    -0.267 OA
ENDROOT
BRANCH   1  15
ATOM     14  N   UNL     1      -0.011   0.966   0.007  0.00  0.00    -0.308 N 
ATOM     15  C   UNL     1      -1.187   1.624   0.017  0.00  0.00    +0.244 C 
ATOM     16  O   UNL     1      -1.204   2.839   0.023  0.00  0.00    -0.270 OA
ATOM     17  H   UNL     1       0.002  -0.004   0.002  0.00  0.00    +0.149 HD
BRANCH  14  24
ATOM     18  C   UNL     1       2.000   0.473   2.032  0.00  0.00    +0.009 C 
ATOM     19  C   UNL     1       2.361   0.850   0.594  0.00  0.00    +0.006 C 
ATOM     20  C   UNL     1       3.675   1.633   0.585  0.00  0.00    +0.005 C 
ATOM     21  C   UNL     1       4.035   2.010  -0.853  0.00  0.00    +0.000 C 
ATOM     22  C   UNL     1       2.922   2.875  -1.448  0.00  0.00    +0.002 C 
ATOM     23  C   UNL     1       1.608   2.092  -1.439  0.00  0.00    +0.022 C 
ATOM     24  C   UNL     1       1.248   1.716  -0.001  0.00  0.00    +0.076 C 
ENDBRANCH  14  24
ENDBRANCH   1  15
BRANCH  11  25
ATOM     25  C   UNL     1      -8.550  -1.264   0.036  0.00  0.00    +0.165 C 
BRANCH  25  26
ATOM     26  C   UNL     1      -8.985  -1.510   1.458  0.00  0.00    -0.024 A 
ATOM     27  C   UNL     1      -9.752  -0.568   2.117  0.00  0.00    +0.009 A 
ATOM     28  C   UNL     1     -10.153  -0.788   3.421  0.00  0.00    +0.050 A 
ATOM     29  C   UNL     1      -9.787  -1.956   4.071  0.00  0.00    +0.166 A 
ATOM     30  C   UNL     1      -9.015  -2.905   3.407  0.00  0.00    +0.167 A 
ATOM     31  C   UNL     1      -8.621  -2.680   2.098  0.00  0.00    +0.055 A 
ATOM     32  O   UNL     1      -8.791  -3.954   4.252  0.00  0.00    -0.453 OA
ATOM     33  C   UNL     1      -9.773  -3.822   5.296  0.00  0.00    +0.466 C 
ATOM     34  O   UNL     1     -10.047  -2.409   5.332  0.00  0.00    -0.453 OA
ENDBRANCH  25  26
ENDBRANCH  11  25
TORSDOF 4
