REMARK  Name = ZINC04229982
REMARK  8 active torsions:
REMARK  status: ('A' for Active; 'I' for Inactive)
REMARK    1  A    between atoms: C_4  and  C_7
REMARK    2  A    between atoms: C_8  and  C_9
REMARK    3  A    between atoms: C_9  and  O_11
REMARK    4  A    between atoms: O_11  and  C_12
REMARK    5  A    between atoms: C_17  and  C_18
REMARK    6  A    between atoms: N_19  and  N_20
REMARK    7  A    between atoms: C_21  and  C_23
REMARK    8  A    between atoms: C_26  and  N_29
REMARK                            x       y       z     vdW  Elec       q    Type
REMARK                         _______ _______ _______ _____ _____    ______ ____
ROOT
ATOM      1  C   UNL     1       3.666   3.393   0.008  0.00  0.00    +0.141 A 
ATOM      2  C   UNL     1       4.739   4.268   0.043  0.00  0.00    +0.048 A 
ATOM      3  C   UNL     1       6.032   3.778   0.057  0.00  0.00    +0.019 A 
ATOM      4  C   UNL     1       6.264   2.413   0.041  0.00  0.00    +0.019 A 
ATOM      5  C   UNL     1       5.205   1.528   0.011  0.00  0.00    +0.028 A 
ATOM      6  C   UNL     1       3.895   2.011  -0.004  0.00  0.00    +0.038 A 
ATOM      7 BR   UNL     1       8.038   1.758   0.059  0.00  0.00    -0.050 Br
ENDROOT
BRANCH   6   8
ATOM      8  C   UNL     1       2.759   1.072  -0.036  0.00  0.00    +0.142 C 
ATOM      9  N   UNL     1       1.543   1.525  -0.049  0.00  0.00    -0.187 NA
BRANCH   9  10
ATOM     10  N   UNL     1       0.463   0.632  -0.080  0.00  0.00    -0.203 N 
ATOM     11  C   UNL     1      -0.800   1.102  -0.099  0.00  0.00    +0.263 C 
ATOM     12  O   UNL     1      -1.002   2.301  -0.084  0.00  0.00    -0.268 OA
ATOM     13  H   UNL     1       0.625  -0.325  -0.092  0.00  0.00    +0.178 HD
BRANCH  11  14
ATOM     14  C   UNL     1      -1.938   0.160  -0.138  0.00  0.00    +0.038 A 
ATOM     15  C   UNL     1      -1.709  -1.216  -0.160  0.00  0.00    +0.015 A 
ATOM     16  C   UNL     1      -2.776  -2.090  -0.191  0.00  0.00    +0.033 A 
ATOM     17  C   UNL     1      -4.071  -1.604  -0.211  0.00  0.00    +0.126 A 
ATOM     18  C   UNL     1      -4.306  -0.240  -0.194  0.00  0.00    +0.033 A 
ATOM     19  C   UNL     1      -3.248   0.644  -0.158  0.00  0.00    +0.015 A 
BRANCH  17  20
ATOM     20  N   UNL     1      -5.211  -2.547  -0.249  0.00  0.00    +0.056 N 
ATOM     21  O   UNL     1      -6.353  -2.122  -0.266  0.00  0.00    -0.126 OA
ATOM     22  O   UNL     1      -5.008  -3.748  -0.265  0.00  0.00    -0.126 OA
ENDBRANCH  17  20
ENDBRANCH  11  14
ENDBRANCH   9  10
ENDBRANCH   6   8
BRANCH   1  23
ATOM     23  O   UNL     1       2.395   3.874  -0.012  0.00  0.00    -0.422 OA
BRANCH  23  24
ATOM     24  C   UNL     1       1.748   4.001   1.165  0.00  0.00    +0.337 C 
ATOM     25  O   UNL     1       2.268   3.603   2.191  0.00  0.00    -0.245 OA
BRANCH  24  27
ATOM     26  C   UNL     1      -0.225   4.743   2.385  0.00  0.00    +0.015 C 
ATOM     27  C   UNL     1       0.423   4.617   1.208  0.00  0.00    +0.092 C 
BRANCH  26  31
ATOM     28  C   UNL     1      -4.070   6.529   2.510  0.00  0.00    +0.000 A 
ATOM     29  C   UNL     1      -3.483   6.077   3.679  0.00  0.00    +0.001 A 
ATOM     30  C   UNL     1      -2.233   5.496   3.647  0.00  0.00    +0.008 A 
ATOM     31  C   UNL     1      -1.559   5.363   2.429  0.00  0.00    -0.025 A 
ATOM     32  C   UNL     1      -2.157   5.827   1.253  0.00  0.00    +0.008 A 
ATOM     33  C   UNL     1      -3.410   6.401   1.300  0.00  0.00    +0.001 A 
ENDBRANCH  26  31
ENDBRANCH  24  27
ENDBRANCH  23  24
ENDBRANCH   1  23
TORSDOF 8
