REMARK  Name = ZINC14461065
REMARK  3 active torsions:
REMARK  status: ('A' for Active; 'I' for Inactive)
REMARK    1  A    between atoms: C_5  and  C_7
REMARK    2  A    between atoms: C_17  and  C_26
REMARK    3  A    between atoms: C_31  and  O_32
REMARK                            x       y       z     vdW  Elec       q    Type
REMARK                         _______ _______ _______ _____ _____    ______ ____
ROOT
ATOM      1  C   UNL     1      -0.009   0.950  -0.066  0.00  0.00    +0.001 A 
ATOM      2  C   UNL     1       0.028  -0.432  -0.015  0.00  0.00    +0.006 A 
ATOM      3  C   UNL     1       1.230  -1.109   0.136  0.00  0.00    -0.019 A 
ATOM      4  C   UNL     1       2.407  -0.391   0.234  0.00  0.00    +0.044 A 
ATOM      5  C   UNL     1       2.374   1.017   0.184  0.00  0.00    +0.058 A 
ATOM      6  C   UNL     1       1.155   1.680   0.033  0.00  0.00    +0.015 A 
ATOM      7  N   UNL     1       3.641  -1.007   0.381  0.00  0.00    -0.336 N 
ATOM      8  C   UNL     1       3.522  -2.299   1.059  0.00  0.00    +0.108 C 
ATOM      9  C   UNL     1       2.599  -3.216   0.272  0.00  0.00    +0.029 C 
ATOM     10  C   UNL     1       1.181  -2.613   0.188  0.00  0.00    +0.049 C 
ATOM     11  C   UNL     1       0.669  -3.114  -1.152  0.00  0.00    -0.023 C 
ATOM     12  C   UNL     1       1.667  -3.447  -1.930  0.00  0.00    -0.030 C 
ATOM     13  C   UNL     1       2.991  -3.216  -1.226  0.00  0.00    +0.033 C 
ATOM     14  H   UNL     1       4.291  -0.405   0.862  0.00  0.00    +0.147 HD
ENDROOT
BRANCH   5  15
ATOM     15  C   UNL     1       3.625   1.789   0.290  0.00  0.00    +0.248 C 
ATOM     16  O   UNL     1       4.421   1.786  -0.629  0.00  0.00    -0.270 OA
ATOM     17  N   UNL     1       3.887   2.498   1.406  0.00  0.00    -0.297 N 
ATOM     18  C   UNL     1       2.970   2.401   2.520  0.00  0.00    +0.108 C 
ATOM     19  C   UNL     1       1.864   3.468   2.383  0.00  0.00    +0.019 C 
ATOM     20  C   UNL     1       2.414   4.809   2.636  0.00  0.00    +0.002 C 
ATOM     21  C   UNL     1       3.487   5.245   1.643  0.00  0.00    +0.002 C 
ATOM     22  C   UNL     1       4.827   4.714   2.089  0.00  0.00    +0.019 C 
ATOM     23  C   UNL     1       5.096   3.345   1.439  0.00  0.00    +0.108 C 
ENDBRANCH   5  15
BRANCH   8  24
ATOM     24  C   UNL     1       2.958  -2.089   2.441  0.00  0.00    +0.015 A 
ATOM     25  C   UNL     1       1.896  -2.856   2.879  0.00  0.00    +0.024 A 
ATOM     26  C   UNL     1       1.382  -2.666   4.149  0.00  0.00    +0.018 A 
ATOM     27  C   UNL     1       1.923  -1.701   4.979  0.00  0.00    +0.019 A 
ATOM     28  C   UNL     1       2.981  -0.928   4.544  0.00  0.00    +0.047 A 
ATOM     29  C   UNL     1       3.502  -1.120   3.272  0.00  0.00    +0.122 A 
ATOM     30 BR   UNL     1      -0.068  -3.723   4.747  0.00  0.00    -0.050 Br
BRANCH  29  31
ATOM     31  O   UNL     1       4.543  -0.360   2.841  0.00  0.00    -0.506 OA
ATOM     32  H   UNL     1       4.277   0.455   2.394  0.00  0.00    +0.292 HD
ENDBRANCH  29  31
ENDBRANCH   8  24
TORSDOF 3
