REMARK  Name = ZINC36075317
REMARK  8 active torsions:
REMARK  status: ('A' for Active; 'I' for Inactive)
REMARK    1  A    between atoms: C_1  and  C_2
REMARK    2  A    between atoms: C_6  and  N_8
REMARK    3  A    between atoms: C_18  and  O_29
REMARK    4  A    between atoms: C_21  and  C_28
REMARK    5  A    between atoms: C_22  and  C_24
REMARK    6  A    between atoms: C_24  and  O_26
REMARK    7  A    between atoms: O_26  and  C_27
REMARK    8  A    between atoms: O_29  and  C_30
REMARK                            x       y       z     vdW  Elec       q    Type
REMARK                         _______ _______ _______ _____ _____    ______ ____
ROOT
ATOM      1  N   UNL     1       0.046  -2.797   2.389  0.00  0.00    -0.243 N 
ATOM      2  C   UNL     1       0.138  -2.113   3.539  0.00  0.00    +0.141 C 
ATOM      3  S   UNL     1       0.333  -0.413   3.475  0.00  0.00    -0.018 S 
ATOM      4  N   UNL     1       0.083  -2.714   4.740  0.00  0.00    -0.318 N 
ATOM      5  C   UNL     1      -0.160  -4.163   4.821  0.00  0.00    +0.125 C 
ATOM      6  C   UNL     1      -1.644  -4.384   4.632  0.00  0.00    +0.020 A 
ATOM      7  C   UNL     1      -2.474  -4.342   5.739  0.00  0.00    +0.024 A 
ATOM      8  C   UNL     1      -3.835  -4.534   5.597  0.00  0.00    +0.022 A 
ATOM      9  C   UNL     1      -4.373  -4.768   4.344  0.00  0.00    +0.064 A 
ATOM     10  C   UNL     1      -3.547  -4.811   3.234  0.00  0.00    +0.163 A 
ATOM     11  C   UNL     1      -2.171  -4.621   3.377  0.00  0.00    +0.170 A 
ATOM     12  O   UNL     1      -1.389  -4.687   2.268  0.00  0.00    -0.463 OA
ATOM     13  C   UNL     1      -0.040  -4.254   2.359  0.00  0.00    +0.196 C 
ATOM     14  C   UNL     1       0.596  -4.826   3.657  0.00  0.00    +0.185 C 
ATOM     15  C   UNL     1       0.737  -4.785   1.152  0.00  0.00    +0.080 C 
ATOM     16 BR   UNL     1      -4.962  -4.479   7.115  0.00  0.00    -0.050 Br
ATOM     17  H   UNL     1       0.203  -2.194   5.550  0.00  0.00    +0.148 HD
ENDROOT
BRANCH   1  23
ATOM     18  C   UNL     1       2.487  -0.597  -1.268  0.00  0.00    +0.044 C 
ATOM     19  C   UNL     1       1.195  -1.012  -0.614  0.00  0.00    -0.049 A 
ATOM     20  C   UNL     1      -0.013  -0.697  -1.208  0.00  0.00    +0.003 A 
ATOM     21  C   UNL     1      -1.201  -1.076  -0.612  0.00  0.00    +0.002 A 
ATOM     22  C   UNL     1      -1.185  -1.773   0.581  0.00  0.00    +0.023 A 
ATOM     23  C   UNL     1       0.026  -2.092   1.181  0.00  0.00    +0.039 A 
ATOM     24  C   UNL     1       1.218  -1.714   0.576  0.00  0.00    +0.027 A 
ENDBRANCH   1  23
BRANCH  14  25
ATOM     25  C   UNL     1       0.404  -6.320   3.703  0.00  0.00    +0.318 C 
ATOM     26  O   UNL     1      -0.112  -6.892   2.772  0.00  0.00    -0.250 OA
BRANCH  25  27
ATOM     27  O   UNL     1       0.805  -7.016   4.779  0.00  0.00    -0.468 OA
ATOM     28  C   UNL     1       0.592  -8.428   4.755  0.00  0.00    +0.280 C 
ENDBRANCH  25  27
ENDBRANCH  14  25
BRANCH  10  29
ATOM     29  O   UNL     1      -4.077  -5.040   2.003  0.00  0.00    -0.491 OA
ATOM     30  C   UNL     1      -5.492  -5.227   1.930  0.00  0.00    +0.277 C 
ENDBRANCH  10  29
TORSDOF 4
