REMARK  Name = ZINC32733149
REMARK  11 active torsions:
REMARK  status: ('A' for Active; 'I' for Inactive)
REMARK    1  A    between atoms: C_1  and  C_2
REMARK    2  A    between atoms: C_2  and  C_3
REMARK    3  A    between atoms: C_6  and  C_9
REMARK    4  A    between atoms: C_9  and  C_11
REMARK    5  A    between atoms: C_9  and  N_30
REMARK    6  A    between atoms: C_11  and  N_12
REMARK    7  A    between atoms: C_13  and  C_15
REMARK    8  A    between atoms: N_27  and  C_28
REMARK    9  A    between atoms: C_28  and  C_29
REMARK   10  A    between atoms: N_30  and  C_31
REMARK   11  A    between atoms: N_30  and  C_32
REMARK                            x       y       z     vdW  Elec       q    Type
REMARK                         _______ _______ _______ _____ _____    ______ ____
ROOT
ATOM      1  N   UNL     1      -0.661   1.675   1.165  0.00  0.00    -0.313 N 
ATOM      2  C   UNL     1      -0.113   1.479   2.381  0.00  0.00    +0.244 C 
ATOM      3  O   UNL     1       0.916   0.841   2.488  0.00  0.00    -0.270 OA
ATOM      4  H   UNL     1      -1.592   2.253   1.069  0.00  0.00    +0.149 HD
ENDROOT
BRANCH   2   5
ATOM      5  C   UNL     1      -0.762   2.039   3.583  0.00  0.00    +0.039 A 
ATOM      6  C   UNL     1      -1.944   2.778   3.460  0.00  0.00    +0.015 A 
ATOM      7  C   UNL     1      -2.552   3.297   4.579  0.00  0.00    +0.029 A 
ATOM      8  C   UNL     1      -1.991   3.097   5.839  0.00  0.00    +0.068 A 
ATOM      9  C   UNL     1      -0.808   2.363   5.968  0.00  0.00    +0.067 A 
ATOM     10  C   UNL     1      -0.196   1.836   4.841  0.00  0.00    +0.040 A 
ATOM     11  N   UNL     1      -0.236   2.156   7.221  0.00  0.00    -0.316 N 
ATOM     12  H   UNL     1       0.695   1.578   7.312  0.00  0.00    +0.169 HD
ATOM     13  C   UNL     1      -0.823   2.664   8.324  0.00  0.00    +0.314 A 
ATOM     14  O   UNL     1      -0.328   2.487   9.419  0.00  0.00    -0.262 OA
ATOM     15  C   UNL     1      -2.085   3.447   8.184  0.00  0.00    +0.316 A 
ATOM     16  O   UNL     1      -2.630   3.913   9.164  0.00  0.00    -0.262 OA
ATOM     17  N   UNL     1      -2.616   3.631   6.958  0.00  0.00    -0.303 N 
BRANCH  17  18
ATOM     18  C   UNL     1      -3.855   4.398   6.807  0.00  0.00    +0.122 C 
ATOM     19  C   UNL     1      -3.518   5.877   6.604  0.00  0.00    +0.027 C 
ENDBRANCH  17  18
ENDBRANCH   2   5
BRANCH   1  20
ATOM     20  C   UNL     1      -0.016   1.120  -0.027  0.00  0.00    +0.094 C 
BRANCH  20  21
ATOM     21  C   UNL     1      -0.773   1.577  -1.276  0.00  0.00    -0.021 C 
BRANCH  21  25
ATOM     22  C   UNL     1       1.162   0.034  -4.758  0.00  0.00    -0.048 A 
ATOM     23  C   UNL     1       1.301   1.368  -4.424  0.00  0.00    +0.004 A 
ATOM     24  C   UNL     1       0.674   1.867  -3.297  0.00  0.00    +0.002 A 
ATOM     25  C   UNL     1      -0.091   1.032  -2.504  0.00  0.00    -0.059 A 
ATOM     26  C   UNL     1      -0.225  -0.303  -2.835  0.00  0.00    +0.002 A 
ATOM     27  C   UNL     1       0.397  -0.801  -3.965  0.00  0.00    +0.004 A 
BRANCH  22  29
ATOM     28  C   UNL     1       3.241  -1.013  -5.612  0.00  0.00    +0.009 C 
ATOM     29  C   UNL     1       1.845  -0.510  -5.986  0.00  0.00    +0.032 C 
ENDBRANCH  22  29
ENDBRANCH  21  25
BRANCH  21  30
ATOM     30  N   UNL     1      -2.154   1.078  -1.221  0.00  0.00    +0.382 N 
ATOM     31  C   UNL     1      -2.239  -0.148  -0.417  0.00  0.00    -0.096 C 
ATOM     32  C   UNL     1      -3.066   2.109  -0.708  0.00  0.00    -0.096 C 
ATOM     33  H   UNL     1      -2.465   0.832  -2.247  0.00  0.00    -0.082 HD
ENDBRANCH  21  30
ENDBRANCH  20  21
ENDBRANCH   1  20
TORSDOF 7
