REMARK  Name = ZINC44023423
REMARK  3 active torsions:
REMARK  status: ('A' for Active; 'I' for Inactive)
REMARK    1  A    between atoms: C_5  and  N_7
REMARK    2  A    between atoms: N_7  and  C_8
REMARK    3  A    between atoms: N_12  and  C_17
REMARK                            x       y       z     vdW  Elec       q    Type
REMARK                         _______ _______ _______ _____ _____    ______ ____
ROOT
ATOM      1  C   UNL     1       0.020  -2.711   0.048  0.00  0.00    +0.109 A 
ATOM      2  C   UNL     1      -0.045  -4.074   0.131  0.00  0.00    +0.112 A 
ATOM      3  C   UNL     1      -1.304  -4.693   0.201  0.00  0.00    +0.259 A 
ATOM      4  O   UNL     1      -1.386  -5.907   0.275  0.00  0.00    -0.267 OA
ATOM      5  N   UNL     1      -2.419  -3.937   0.186  0.00  0.00    -0.258 N 
ATOM      6  C   UNL     1      -2.336  -2.596   0.105  0.00  0.00    +0.331 A 
ATOM      7  O   UNL     1      -3.355  -1.933   0.094  0.00  0.00    -0.246 OA
ATOM      8  N   UNL     1      -1.142  -1.978   0.042  0.00  0.00    -0.296 N 
ATOM      9  H   UNL     1      -1.103  -1.011  -0.012  0.00  0.00    +0.172 HD
ENDROOT
BRANCH   5  10
ATOM     10  C   UNL     1      -3.733  -4.580   0.259  0.00  0.00    +0.095 C 
ATOM     11  C   UNL     1      -4.542  -4.231  -0.991  0.00  0.00    +0.025 C 
ATOM     12  C   UNL     1      -5.915  -4.902  -0.915  0.00  0.00    +0.002 C 
ATOM     13  C   UNL     1      -6.657  -4.407   0.327  0.00  0.00    +0.000 C 
ATOM     14  C   UNL     1      -5.848  -4.756   1.578  0.00  0.00    +0.002 C 
ATOM     15  C   UNL     1      -4.476  -4.084   1.502  0.00  0.00    +0.025 C 
ENDBRANCH   5  10
BRANCH   1  16
ATOM     16  N   UNL     1       1.237  -2.079  -0.021  0.00  0.00    -0.300 N 
ATOM     17  H   UNL     1       1.897  -2.220   0.676  0.00  0.00    +0.154 HD
BRANCH  16  22
ATOM     18  C   UNL     1       0.921  -0.289  -3.217  0.00  0.00    +0.002 A 
ATOM     19  C   UNL     1       2.096   0.440  -3.227  0.00  0.00    +0.002 A 
ATOM     20  C   UNL     1       2.987   0.335  -2.175  0.00  0.00    +0.022 A 
ATOM     21  C   UNL     1       2.706  -0.500  -1.110  0.00  0.00    +0.062 A 
ATOM     22  C   UNL     1       1.525  -1.233  -1.097  0.00  0.00    +0.051 A 
ATOM     23  C   UNL     1       0.633  -1.125  -2.156  0.00  0.00    +0.025 A 
ATOM     24 CL   UNL     1       3.825  -0.632   0.210  0.00  0.00    -0.082 Cl
ENDBRANCH  16  22
ENDBRANCH   1  16
TORSDOF 3
