REMARK  Name = ZINC12866981
REMARK  18 active torsions:
REMARK  status: ('A' for Active; 'I' for Inactive)
REMARK    1  A    between atoms: C_1  and  C_2
REMARK    2  A    between atoms: C_2  and  C_3
REMARK    3  A    between atoms: C_3  and  C_5
REMARK    4  A    between atoms: C_3  and  C_6
REMARK    5  A    between atoms: C_6  and  C_8
REMARK    6  A    between atoms: C_6  and  N_31
REMARK    7  A    between atoms: C_13  and  C_16
REMARK    8  A    between atoms: N_18  and  CA_19
REMARK    9  A    between atoms: CA_19  and  C_21
REMARK   10  A    between atoms: CA_19  and  C_29
REMARK   11  A    between atoms: C_21  and  C_23
REMARK   12  A    between atoms: C_21  and  C_27
REMARK   13  A    between atoms: C_23  and  C_24
REMARK   14  A    between atoms: C_32  and  O_34
REMARK   15  A    between atoms: O_34  and  C_35
REMARK   16  A    between atoms: C_35  and  C_36
REMARK   17  A    between atoms: C_35  and  C_37
REMARK   18  A    between atoms: C_35  and  C_38
REMARK                            x       y       z     vdW  Elec       q    Type
REMARK                         _______ _______ _______ _____ _____    ______ ____
ROOT
ATOM      1  C   UNL     1      -0.394   0.613   5.678  0.00  0.00    +0.236 C 
ATOM      2  O   UNL     1      -0.661  -0.359   6.353  0.00  0.00    -0.274 OA
ATOM      3  N   UNL     1      -0.396   0.521   4.334  0.00  0.00    -0.300 N 
ATOM      4  C   UNL     1      -0.599  -0.775   3.672  0.00  0.00    +0.108 C 
ATOM      5  C   UNL     1       0.555  -1.015   2.693  0.00  0.00    +0.032 C 
ATOM      6  C   UNL     1       0.658   0.171   1.732  0.00  0.00    +0.078 C 
ATOM      7  C   UNL     1       0.955   1.447   2.524  0.00  0.00    +0.032 C 
ATOM      8  C   UNL     1      -0.194   1.715   3.502  0.00  0.00    +0.108 C 
ENDROOT
BRANCH   6   9
ATOM      9  C   UNL     1       1.770  -0.077   0.746  0.00  0.00    +0.217 C 
ATOM     10  O   UNL     1       2.416  -1.102   0.806  0.00  0.00    -0.275 OA
ATOM     11  N   UNL     1       2.047   0.840  -0.202  0.00  0.00    -0.301 N 
ATOM     12  H   UNL     1       1.531   1.659  -0.250  0.00  0.00    +0.150 HD
BRANCH  11  13
ATOM     13  CA  UNL     1       3.128   0.599  -1.161  0.00  0.00    +0.201 C 
BRANCH  13  14
ATOM     14  C   UNL     1       4.439   1.036  -0.560  0.00  0.00    +0.377 C 
ATOM     15  O   UNL     1       4.455   1.617   0.499  0.00  0.00    -0.244 OA
ATOM     16  OXT UNL     1       5.590   0.779  -1.202  0.00  0.00    -0.244 OA
ENDBRANCH  13  14
BRANCH  13  17
ATOM     17  C   UNL     1       2.863   1.395  -2.440  0.00  0.00    +0.142 C 
BRANCH  17  18
ATOM     18  C   UNL     1       2.642   2.845  -2.093  0.00  0.00    +0.362 C 
ATOM     19  O   UNL     1       1.596   3.381  -2.373  0.00  0.00    -0.246 OA
ATOM     20  O   UNL     1       3.608   3.540  -1.472  0.00  0.00    -0.246 OA
ENDBRANCH  17  18
BRANCH  17  21
ATOM     21  C   UNL     1       1.617   0.842  -3.136  0.00  0.00    +0.112 C 
BRANCH  21  22
ATOM     22  C   UNL     1       1.456   1.506  -4.479  0.00  0.00    +0.211 C 
ATOM     23  O   UNL     1       2.258   2.338  -4.844  0.00  0.00    -0.276 OA
ATOM     24  N   UNL     1       0.420   1.173  -5.275  0.00  0.00    -0.329 N 
ATOM     25  H   UNL     1      -0.222   0.507  -4.983  0.00  0.00    +0.145 HD
ATOM     26  H   UNL     1       0.316   1.600  -6.140  0.00  0.00    +0.145 HD
ENDBRANCH  21  22
ENDBRANCH  17  21
ENDBRANCH  13  17
ENDBRANCH  11  13
ENDBRANCH   6   9
BRANCH   1  27
ATOM     27  C   UNL     1      -0.061   1.924   6.344  0.00  0.00    +0.165 C 
BRANCH  27  28
ATOM     28  N   UNL     1      -0.991   2.159   7.452  0.00  0.00    -0.270 N 
ATOM     29  C   UNL     1      -1.275   3.418   7.837  0.00  0.00    +0.401 C 
ATOM     30  O   UNL     1      -0.834   4.360   7.208  0.00  0.00    -0.226 OA
ATOM     31  H   UNL     1      -1.401   1.408   7.908  0.00  0.00    +0.153 HD
BRANCH  29  32
ATOM     32  O   UNL     1      -2.048   3.634   8.918  0.00  0.00    -0.445 OA
BRANCH  32  33
ATOM     33  C   UNL     1      -2.313   5.016   9.275  0.00  0.00    +0.107 C 
ATOM     34  C   UNL     1      -3.025   5.714   8.115  0.00  0.00    +0.055 C 
ATOM     35  C   UNL     1      -3.201   5.060  10.520  0.00  0.00    +0.055 C 
ATOM     36  C   UNL     1      -0.991   5.730   9.566  0.00  0.00    +0.055 C 
ENDBRANCH  32  33
ENDBRANCH  29  32
ENDBRANCH  27  28
BRANCH  27  37
ATOM     37  C   UNL     1       1.370   1.874   6.880  0.00  0.00    +0.015 C 
ATOM     38  C   UNL     1       1.523   0.673   7.816  0.00  0.00    +0.010 C 
BRANCH  37  40
ATOM     39  C   UNL     1       2.346   3.028   4.891  0.00  0.00    +0.004 C 
ATOM     40  C   UNL     1       2.349   1.737   5.712  0.00  0.00    +0.002 C 
ENDBRANCH  37  40
ENDBRANCH  27  37
ENDBRANCH   1  27
TORSDOF 13
