REMARK  Name = ZINC34822933
REMARK  7 active torsions:
REMARK  status: ('A' for Active; 'I' for Inactive)
REMARK    1  A    between atoms: C_1  and  C_2
REMARK    2  A    between atoms: C_2  and  C_3
REMARK    3  A    between atoms: C_2  and  N_4
REMARK    4  A    between atoms: N_4  and  C_5
REMARK    5  A    between atoms: C_5  and  C_6
REMARK    6  A    between atoms: C_11  and  N_12
REMARK    7  A    between atoms: C_16  and  C_19
REMARK                            x       y       z     vdW  Elec       q    Type
REMARK                         _______ _______ _______ _____ _____    ______ ____
ROOT
ATOM      1  C   UNL     1       2.806  -0.556  -2.399  0.00  0.00    -0.043 A 
ATOM      2  C   UNL     1       3.574  -1.703  -2.352  0.00  0.00    +0.004 A 
ATOM      3  C   UNL     1       4.221  -2.151  -3.489  0.00  0.00    +0.015 A 
ATOM      4  C   UNL     1       4.102  -1.451  -4.677  0.00  0.00    +0.020 A 
ATOM      5  C   UNL     1       3.336  -0.302  -4.730  0.00  0.00    +0.038 A 
ATOM      6  C   UNL     1       2.679   0.146  -3.591  0.00  0.00    +0.032 A 
ATOM      7 BR   UNL     1       4.990  -2.066  -6.229  0.00  0.00    -0.050 Br
ENDROOT
BRANCH   6   8
ATOM      8  N   UNL     1       1.899   1.303  -3.642  0.00  0.00    -0.329 N 
ATOM      9  C   UNL     1       2.494   2.619  -3.373  0.00  0.00    +0.105 C 
ATOM     10  C   UNL     1       2.179   3.552  -4.547  0.00  0.00    +0.020 C 
ATOM     11  C   UNL     1       0.666   3.581  -4.779  0.00  0.00    +0.016 C 
ATOM     12  C   UNL     1       0.175   2.175  -5.133  0.00  0.00    +0.092 C 
ATOM     13  C   UNL     1       0.469   1.228  -3.972  0.00  0.00    +0.117 C 
BRANCH  12  14
ATOM     14  C   UNL     1      -1.308   2.211  -5.393  0.00  0.00    +0.215 C 
ATOM     15  O   UNL     1      -2.059   1.543  -4.715  0.00  0.00    -0.276 OA
ATOM     16  N   UNL     1      -1.801   2.986  -6.380  0.00  0.00    -0.329 N 
ATOM     17  H   UNL     1      -1.200   3.521  -6.922  0.00  0.00    +0.145 HD
ATOM     18  H   UNL     1      -2.756   3.009  -6.547  0.00  0.00    +0.145 HD
ENDBRANCH  12  14
ENDBRANCH   6   8
BRANCH   1  19
ATOM     19  C   UNL     1       2.100  -0.070  -1.159  0.00  0.00    -0.045 C 
BRANCH  19  20
ATOM     20  N   UNL     1       0.690  -0.478  -1.207  0.00  0.00    +0.383 N 
ATOM     21  H   UNL     1       0.632  -1.484  -1.254  0.00  0.00    -0.085 HD
ATOM     22  H   UNL     1       0.251  -0.077  -2.022  0.00  0.00    -0.085 HD
BRANCH  20  24
ATOM     23  C   UNL     1      -0.019   1.526   0.010  0.00  0.00    -0.014 C 
ATOM     24  C   UNL     1       0.002  -0.004   0.002  0.00  0.00    -0.078 C 
ATOM     25  C   UNL     1      -1.433  -0.534   0.013  0.00  0.00    -0.014 C 
ENDBRANCH  20  24
ENDBRANCH  19  20
ENDBRANCH   1  19
TORSDOF 5
