REMARK  Name = ZINC11981108
REMARK  12 active torsions:
REMARK  status: ('A' for Active; 'I' for Inactive)
REMARK    1  A    between atoms: C_1  and  O_2
REMARK    2  A    between atoms: O_2  and  C_3
REMARK    3  A    between atoms: C_3  and  C_4
REMARK    4  A    between atoms: C_4  and  N_5
REMARK    5  A    between atoms: N_5  and  C_6
REMARK    6  A    between atoms: C_6  and  C_7
REMARK    7  A    between atoms: C_15  and  N_16
REMARK    8  A    between atoms: C_20  and  C_23
REMARK    9  A    between atoms: C_23  and  O_24
REMARK   10  A    between atoms: C_26  and  C_28
REMARK   11  A    between atoms: C_33  and  O_34
REMARK   12  A    between atoms: O_34  and  C_35
REMARK                            x       y       z     vdW  Elec       q    Type
REMARK                         _______ _______ _______ _____ _____    ______ ____
ROOT
ATOM      1  C   UNL     1      -3.025   3.119   0.641  0.00  0.00    +0.008 A 
ATOM      2  C   UNL     1      -2.036   4.040   0.466  0.00  0.00    +0.018 A 
ATOM      3  C   UNL     1      -0.740   3.722   0.919  0.00  0.00    -0.001 A 
ATOM      4  C   UNL     1       0.329   4.617   0.756  0.00  0.00    +0.011 A 
ATOM      5  C   UNL     1       1.568   4.277   1.206  0.00  0.00    +0.021 A 
ATOM      6  C   UNL     1       1.790   3.048   1.827  0.00  0.00    +0.043 A 
ATOM      7  C   UNL     1       0.775   2.156   2.001  0.00  0.00    +0.046 A 
ATOM      8  C   UNL     1      -0.516   2.471   1.545  0.00  0.00    +0.049 A 
ATOM      9  C   UNL     1      -2.741   1.900   1.272  0.00  0.00    +0.104 A 
ATOM     10 CL   UNL     1       3.384   2.650   2.388  0.00  0.00    -0.083 Cl
ATOM     11  N   UNL     1      -1.516   1.543   1.732  0.00  0.00    -0.343 N 
ATOM     12  H   UNL     1      -1.346   0.640   2.190  0.00  0.00    +0.167 HD
ENDROOT
BRANCH   9  13
ATOM     13  N   UNL     1      -3.761   0.977   1.452  0.00  0.00    -0.316 N 
ATOM     14  C   UNL     1      -3.564  -0.199   0.595  0.00  0.00    +0.106 C 
ATOM     15  C   UNL     1      -4.776  -1.125   0.711  0.00  0.00    +0.019 C 
ATOM     16  C   UNL     1      -4.944  -1.557   2.171  0.00  0.00    +0.009 C 
ATOM     17  C   UNL     1      -5.099  -0.312   3.049  0.00  0.00    +0.032 C 
ATOM     18  C   UNL     1      -3.877   0.591   2.865  0.00  0.00    +0.112 C 
BRANCH  17  19
ATOM     19  C   UNL     1      -5.208  -0.732   4.516  0.00  0.00    +0.160 C 
BRANCH  19  20
ATOM     20  O   UNL     1      -6.409  -1.482   4.709  0.00  0.00    -0.395 OA
ATOM     21  H   UNL     1      -6.543  -1.781   5.619  0.00  0.00    +0.209 HD
ENDBRANCH  19  20
ENDBRANCH  17  19
ENDBRANCH   9  13
BRANCH   1  22
ATOM     22  C   UNL     1      -4.425   3.416   0.167  0.00  0.00    +0.146 C 
BRANCH  22  23
ATOM     23  N   UNL     1      -5.243   3.849   1.303  0.00  0.00    -0.291 N 
ATOM     24  C   UNL     1      -5.205   5.134   1.709  0.00  0.00    +0.250 C 
ATOM     25  O   UNL     1      -4.433   5.915   1.186  0.00  0.00    -0.270 OA
BRANCH  24  26
ATOM     26  C   UNL     1      -6.099   5.593   2.789  0.00  0.00    +0.078 A 
ATOM     27  C   UNL     1      -6.052   4.985   4.046  0.00  0.00    +0.017 A 
ATOM     28  C   UNL     1      -6.887   5.422   5.052  0.00  0.00    +0.001 A 
ATOM     29  C   UNL     1      -7.782   6.454   4.819  0.00  0.00    +0.004 A 
ATOM     30  C   UNL     1      -7.843   7.059   3.580  0.00  0.00    +0.046 A 
ATOM     31  C   UNL     1      -7.006   6.636   2.557  0.00  0.00    +0.132 A 
BRANCH  31  32
ATOM     32  O   UNL     1      -7.064   7.231   1.339  0.00  0.00    -0.494 OA
ATOM     33  C   UNL     1      -8.012   8.287   1.178  0.00  0.00    +0.277 C 
ENDBRANCH  31  32
ENDBRANCH  24  26
BRANCH  23  34
ATOM     34  C   UNL     1      -6.102   2.887   1.996  0.00  0.00    +0.136 C 
BRANCH  34  35
ATOM     35  C   UNL     1      -7.490   2.885   1.351  0.00  0.00    +0.178 C 
BRANCH  35  37
ATOM     36  C   UNL     1      -8.634   2.383  -0.694  0.00  0.00    +0.194 C 
ATOM     37  O   UNL     1      -7.387   2.424   0.003  0.00  0.00    -0.381 OA
ENDBRANCH  35  37
ENDBRANCH  34  35
ENDBRANCH  23  34
ENDBRANCH  22  23
ENDBRANCH   1  22
TORSDOF 10
