REMARK  Name = ZINC01502489
REMARK  7 active torsions:
REMARK  status: ('A' for Active; 'I' for Inactive)
REMARK    1  A    between atoms: C_1  and  C_2
REMARK    2  A    between atoms: C_3  and  C_32
REMARK    3  A    between atoms: C_11  and  N_12
REMARK    4  A    between atoms: N_12  and  C_13
REMARK    5  A    between atoms: C_18  and  C_19
REMARK    6  A    between atoms: C_18  and  N_61
REMARK    7  A    between atoms: C_25  and  C_27
REMARK                            x       y       z     vdW  Elec       q    Type
REMARK                         _______ _______ _______ _____ _____    ______ ____
ROOT
ATOM      1  N   UNL     1       4.201  -0.561  -0.144  0.00  0.00    -0.260 N 
ATOM      2  C   UNL     1       3.567   0.628  -0.173  0.00  0.00    +0.286 C 
ATOM      3  O   UNL     1       2.351   0.668  -0.197  0.00  0.00    -0.266 OA
ENDROOT
BRANCH   1  14
ATOM      4  C   UNL     1       9.827  -0.658  -2.704  0.00  0.00    +0.046 C 
ATOM      5  C   UNL     1       8.365  -0.623  -2.338  0.00  0.00    -0.022 A 
ATOM      6  C   UNL     1       7.330  -0.565  -3.191  0.00  0.00    +0.017 A 
ATOM      7  N   UNL     1       6.153  -0.549  -2.495  0.00  0.00    -0.356 N 
ATOM      8  H   UNL     1       5.270  -0.510  -2.894  0.00  0.00    +0.166 HD
ATOM      9  C   UNL     1       6.409  -0.606  -1.142  0.00  0.00    +0.069 A 
ATOM     10  C   UNL     1       7.805  -0.647  -0.985  0.00  0.00    +0.005 A 
ATOM     11  C   UNL     1       8.362  -0.704   0.295  0.00  0.00    +0.010 A 
ATOM     12  C   UNL     1       7.547  -0.713   1.393  0.00  0.00    +0.003 A 
ATOM     13  C   UNL     1       6.168  -0.665   1.249  0.00  0.00    +0.025 A 
ATOM     14  C   UNL     1       5.593  -0.609  -0.009  0.00  0.00    +0.061 A 
ATOM     15  C   UNL     1       7.448  -0.522  -4.693  0.00  0.00    +0.063 C 
ENDBRANCH   1  14
BRANCH   1  16
ATOM     16  C   UNL     1       3.433  -1.804  -0.253  0.00  0.00    +0.079 C 
ATOM     17  C   UNL     1       2.633  -1.798  -1.558  0.00  0.00    +0.004 C 
ATOM     18  C   UNL     1       1.785  -3.070  -1.637  0.00  0.00    -0.077 C 
ATOM     19  C   UNL     1       1.625  -3.183   0.778  0.00  0.00    -0.077 C 
ATOM     20  C   UNL     1       2.467  -1.914   0.930  0.00  0.00    +0.004 C 
ATOM     21  N   UNL     1       0.860  -3.103  -0.484  0.00  0.00    +0.382 N 
ATOM     22  H   UNL     1       0.301  -2.242  -0.481  0.00  0.00    -0.081 HD
BRANCH  21  23
ATOM     23  C   UNL     1      -0.047  -4.264  -0.599  0.00  0.00    -0.043 C 
BRANCH  23  24
ATOM     24  C   UNL     1      -0.612  -4.313  -1.995  0.00  0.00    -0.064 A 
ATOM     25  C   UNL     1      -1.781  -3.637  -2.292  0.00  0.00    +0.002 A 
ATOM     26  C   UNL     1      -2.296  -3.678  -3.574  0.00  0.00    +0.000 A 
ATOM     27  C   UNL     1      -1.648  -4.404  -4.557  0.00  0.00    +0.000 A 
ATOM     28  C   UNL     1      -0.483  -5.084  -4.258  0.00  0.00    +0.000 A 
ATOM     29  C   UNL     1       0.036  -5.039  -2.978  0.00  0.00    +0.002 A 
ENDBRANCH  23  24
ENDBRANCH  21  23
ENDBRANCH   1  16
BRANCH   2  30
ATOM     30  C   UNL     1       4.343   1.872  -0.177  0.00  0.00    +0.190 A 
ATOM     31  C   UNL     1       3.835   3.133  -0.309  0.00  0.00    +0.054 A 
ATOM     32  C   UNL     1       4.926   4.014  -0.258  0.00  0.00    +0.042 A 
ATOM     33  C   UNL     1       6.038   3.262  -0.099  0.00  0.00    +0.196 A 
ATOM     34  O   UNL     1       5.682   1.972  -0.051  0.00  0.00    -0.458 OA
ENDBRANCH   2  30
TORSDOF 5
