REMARK  Name = ZINC63360385
REMARK  3 active torsions:
REMARK  status: ('A' for Active; 'I' for Inactive)
REMARK    1  A    between atoms: C_4  and  N_19
REMARK    2  A    between atoms: C_5  and  C_7
REMARK    3  A    between atoms: C_7  and  N_8
REMARK                            x       y       z     vdW  Elec       q    Type
REMARK                         _______ _______ _______ _____ _____    ______ ____
ROOT
ATOM      1  C   UNL     1       1.226  -2.187  -0.022  0.00  0.00    +0.143 C 
ENDROOT
BRANCH   1   2
ATOM      2  N   UNL     1       1.486  -2.680   1.333  0.00  0.00    -0.295 N 
ATOM      3  C   UNL     1       1.549  -4.005   1.567  0.00  0.00    +0.302 C 
ATOM      4  O   UNL     1       1.389  -4.792   0.654  0.00  0.00    -0.253 OA
ATOM      5  N   UNL     1       1.788  -4.459   2.814  0.00  0.00    -0.286 N 
ATOM      6  C   UNL     1       1.976  -3.515   3.924  0.00  0.00    +0.109 C 
ATOM      7  C   UNL     1       0.654  -2.813   4.210  0.00  0.00    +0.019 C 
ATOM      8  C   UNL     1      -0.306  -3.803   4.891  0.00  0.00    +0.002 C 
ATOM      9  C   UNL     1      -0.894  -4.742   3.844  0.00  0.00    +0.000 C 
ATOM     10  C   UNL     1      -0.410  -6.185   4.073  0.00  0.00    +0.002 C 
ATOM     11  C   UNL     1       1.091  -6.185   4.366  0.00  0.00    +0.019 C 
ATOM     12  C   UNL     1       1.857  -5.887   3.075  0.00  0.00    +0.109 C 
ATOM     13  H   UNL     1       1.613  -2.052   2.061  0.00  0.00    +0.151 HD
ENDBRANCH   1   2
BRANCH   1  18
ATOM     14  C   UNL     1      -0.017   1.378   0.010  0.00  0.00    +0.000 A 
ATOM     15  C   UNL     1       1.170   2.089   0.002  0.00  0.00    +0.002 A 
ATOM     16  C   UNL     1       2.377   1.419  -0.013  0.00  0.00    +0.028 A 
ATOM     17  C   UNL     1       2.399   0.031  -0.021  0.00  0.00    +0.070 A 
ATOM     18  C   UNL     1       1.207  -0.680  -0.013  0.00  0.00    -0.005 A 
ATOM     19  C   UNL     1       0.002  -0.004   0.002  0.00  0.00    +0.007 A 
BRANCH  17  20
ATOM     20  N   UNL     1       3.624  -0.652  -0.037  0.00  0.00    -0.240 N 
ATOM     21  C   UNL     1       4.851  -0.085  -0.042  0.00  0.00    +0.114 A 
ATOM     22  C   UNL     1       5.765  -1.083  -0.058  0.00  0.00    +0.041 A 
ATOM     23  C   UNL     1       5.075  -2.300  -0.064  0.00  0.00    +0.135 A 
ATOM     24  N   UNL     1       3.792  -2.043  -0.046  0.00  0.00    -0.175 NA
ENDBRANCH  17  20
ENDBRANCH   1  18
TORSDOF 3
