REMARK  Name = ZINC35520949
REMARK  15 active torsions:
REMARK  status: ('A' for Active; 'I' for Inactive)
REMARK    1  A    between atoms: C_1  and  C_2
REMARK    2  A    between atoms: C_2  and  C_4
REMARK    3  A    between atoms: C_2  and  N_8
REMARK    4  A    between atoms: C_4  and  O_6
REMARK    5  A    between atoms: O_6  and  C_7
REMARK    6  A    between atoms: N_8  and  C_9
REMARK    7  A    between atoms: N_8  and  C_34
REMARK    8  A    between atoms: C_9  and  C_10
REMARK    9  A    between atoms: N_12  and  C_13
REMARK   10  A    between atoms: N_12  and  C_25
REMARK   11  A    between atoms: C_13  and  C_14
REMARK   12  A    between atoms: C_14  and  C_15
REMARK   13  A    between atoms: C_25  and  C_26
REMARK   14  A    between atoms: C_34  and  C_35
REMARK   15  A    between atoms: C_34  and  C_36
REMARK                            x       y       z     vdW  Elec       q    Type
REMARK                         _______ _______ _______ _____ _____    ______ ____
ROOT
ATOM      1  C   UNL     1       2.804  -2.676   1.218  0.00  0.00    +0.199 C 
ATOM      2  O   UNL     1       3.196  -2.060   2.187  0.00  0.00    -0.278 OA
ATOM      3  N   UNL     1       3.439  -3.800   0.833  0.00  0.00    -0.298 N 
ENDROOT
BRANCH   1   4
ATOM      4  C   UNL     1       1.606  -2.184   0.447  0.00  0.00    +0.020 C 
BRANCH   4   5
ATOM      5  N   UNL     1       1.000  -1.049   1.155  0.00  0.00    +0.396 N 
ATOM      6  H   UNL     1       1.728  -0.460   1.531  0.00  0.00    -0.080 HD
BRANCH   5   7
ATOM      7  C   UNL     1       0.158  -1.547   2.251  0.00  0.00    -0.073 C 
ATOM      8  C   UNL     1      -0.938  -2.450   1.681  0.00  0.00    -0.013 C 
ATOM      9  C   UNL     1       1.019  -2.346   3.232  0.00  0.00    -0.013 C 
ENDBRANCH   5   7
BRANCH   5  11
ATOM     10  C   UNL     1      -0.537   0.850   0.977  0.00  0.00    -0.002 C 
ATOM     11  C   UNL     1       0.176  -0.272   0.219  0.00  0.00    +0.040 C 
BRANCH  11  12
ATOM     12  C   UNL     1       1.056   0.324  -0.850  0.00  0.00    +0.293 C 
ATOM     13  O   UNL     1       2.256   0.331  -0.710  0.00  0.00    -0.253 OA
BRANCH  12  14
ATOM     14  O   UNL     1       0.506   0.847  -1.957  0.00  0.00    -0.469 OA
ATOM     15  C   UNL     1       1.399   1.394  -2.929  0.00  0.00    +0.280 C 
ENDBRANCH  12  14
ENDBRANCH  11  12
ENDBRANCH   5  11
ENDBRANCH   4   5
ENDBRANCH   1   4
BRANCH   3  16
ATOM     16  C   UNL     1       4.525  -4.346   1.651  0.00  0.00    +0.113 C 
BRANCH  16  17
ATOM     17  C   UNL     1       3.949  -5.328   2.673  0.00  0.00    +0.056 C 
BRANCH  17  18
ATOM     18  C   UNL     1       5.066  -5.889   3.515  0.00  0.00    -0.021 A 
ATOM     19  C   UNL     1       5.724  -7.039   3.304  0.00  0.00    +0.087 A 
ATOM     20  N   UNL     1       6.672  -7.219   4.274  0.00  0.00    -0.360 N 
ATOM     21  H   UNL     1       7.273  -7.978   4.332  0.00  0.00    +0.165 HD
ATOM     22  C   UNL     1       6.646  -6.162   5.156  0.00  0.00    +0.047 A 
ATOM     23  C   UNL     1       5.643  -5.279   4.715  0.00  0.00    +0.003 A 
ATOM     24  C   UNL     1       5.392  -4.102   5.422  0.00  0.00    +0.010 A 
ATOM     25  C   UNL     1       6.126  -3.811   6.537  0.00  0.00    +0.001 A 
ATOM     26  C   UNL     1       7.119  -4.676   6.974  0.00  0.00    +0.002 A 
ATOM     27  C   UNL     1       7.377  -5.848   6.296  0.00  0.00    +0.026 A 
ENDBRANCH  17  18
ENDBRANCH  16  17
ENDBRANCH   3  16
BRANCH   3  28
ATOM     28  C   UNL     1       3.044  -4.477  -0.406  0.00  0.00    +0.142 C 
BRANCH  28  29
ATOM     29  C   UNL     1       3.952  -4.043  -1.527  0.00  0.00    -0.029 A 
ATOM     30  C   UNL     1       3.655  -2.906  -2.256  0.00  0.00    +0.007 A 
ATOM     31  C   UNL     1       4.487  -2.507  -3.286  0.00  0.00    +0.022 A 
ATOM     32  C   UNL     1       5.618  -3.245  -3.586  0.00  0.00    +0.059 A 
ATOM     33  C   UNL     1       5.916  -4.383  -2.855  0.00  0.00    +0.060 A 
ATOM     34  C   UNL     1       5.085  -4.777  -1.822  0.00  0.00    +0.026 A 
ATOM     35 CL   UNL     1       7.334  -5.310  -3.231  0.00  0.00    -0.082 Cl
ATOM     36 CL   UNL     1       6.663  -2.745  -4.879  0.00  0.00    -0.082 Cl
ENDBRANCH  28  29
ENDBRANCH   3  28
TORSDOF 11
