REMARK  Name = ZINC02521123
REMARK  9 active torsions:
REMARK  status: ('A' for Active; 'I' for Inactive)
REMARK    1  A    between atoms: C_1  and  O_2
REMARK    2  A    between atoms: O_2  and  C_3
REMARK    3  A    between atoms: C_5  and  C_19
REMARK    4  A    between atoms: C_8  and  O_9
REMARK    5  A    between atoms: O_9  and  C_10
REMARK    6  A    between atoms: C_10  and  C_12
REMARK    7  A    between atoms: N_20  and  N_21
REMARK    8  A    between atoms: C_22  and  C_24
REMARK    9  A    between atoms: C_28  and  N_30
REMARK                            x       y       z     vdW  Elec       q    Type
REMARK                         _______ _______ _______ _____ _____    ______ ____
ROOT
ATOM      1  C   UNL     1     -12.179   0.984   0.097  0.00  0.00    +0.163 A 
ATOM      2  C   UNL     1     -10.996   1.699   0.097  0.00  0.00    +0.059 A 
ATOM      3  C   UNL     1      -9.774   1.022   0.060  0.00  0.00    -0.002 A 
ATOM      4  C   UNL     1      -9.754  -0.374   0.018  0.00  0.00    +0.013 A 
ATOM      5  C   UNL     1     -10.938  -1.081   0.022  0.00  0.00    +0.051 A 
ATOM      6  C   UNL     1     -12.151  -0.409   0.060  0.00  0.00    +0.173 A 
ENDROOT
BRANCH   1   8
ATOM      7  C   UNL     1     -13.323   3.067   0.170  0.00  0.00    +0.277 C 
ATOM      8  O   UNL     1     -13.370   1.639   0.134  0.00  0.00    -0.491 OA
ENDBRANCH   1   8
BRANCH   3   9
ATOM      9  C   UNL     1      -8.510   1.780   0.059  0.00  0.00    +0.138 C 
ATOM     10  N   UNL     1      -7.375   1.149   0.025  0.00  0.00    -0.187 NA
BRANCH  10  11
ATOM     11  N   UNL     1      -6.173   1.869   0.024  0.00  0.00    -0.203 N 
ATOM     12  C   UNL     1      -4.996   1.215  -0.012  0.00  0.00    +0.263 C 
ATOM     13  O   UNL     1      -4.977  -0.001  -0.044  0.00  0.00    -0.268 OA
ATOM     14  H   UNL     1      -6.189   2.839   0.049  0.00  0.00    +0.178 HD
BRANCH  12  15
ATOM     15  C   UNL     1      -3.728   1.974  -0.013  0.00  0.00    +0.041 A 
ATOM     16  C   UNL     1      -3.747   3.370   0.024  0.00  0.00    +0.013 A 
ATOM     17  C   UNL     1      -2.560   4.073   0.024  0.00  0.00    +0.003 A 
ATOM     18  C   UNL     1      -1.352   3.397  -0.007  0.00  0.00    +0.033 A 
ATOM     19  C   UNL     1      -1.327   2.015  -0.050  0.00  0.00    +0.127 A 
ATOM     20  C   UNL     1      -2.507   1.300  -0.050  0.00  0.00    +0.045 A 
BRANCH  19  21
ATOM     21  N   UNL     1      -0.031   1.301  -0.089  0.00  0.00    +0.056 N 
ATOM     22  O   UNL     1      -0.007   0.084  -0.121  0.00  0.00    -0.126 OA
ATOM     23  O   UNL     1       1.012   1.931  -0.094  0.00  0.00    -0.126 OA
ENDBRANCH  19  21
ENDBRANCH  12  15
ENDBRANCH  10  11
ENDBRANCH   3   9
BRANCH   6  24
ATOM     24  O   UNL     1     -13.315  -1.110   0.060  0.00  0.00    -0.419 OA
BRANCH  24  25
ATOM     25  C   UNL     1     -13.953  -1.236  -1.120  0.00  0.00    +0.345 C 
ATOM     26  O   UNL     1     -13.436  -0.820  -2.138  0.00  0.00    -0.245 OA
BRANCH  25  27
ATOM     27  C   UNL     1     -15.281  -1.881  -1.177  0.00  0.00    +0.060 A 
ATOM     28  C   UNL     1     -15.945  -2.013  -2.398  0.00  0.00    +0.015 A 
ATOM     29  C   UNL     1     -17.184  -2.616  -2.445  0.00  0.00    +0.002 A 
ATOM     30  C   UNL     1     -17.771  -3.090  -1.284  0.00  0.00    +0.015 A 
ATOM     31  C   UNL     1     -17.118  -2.963  -0.070  0.00  0.00    +0.019 A 
ATOM     32  C   UNL     1     -15.875  -2.366  -0.010  0.00  0.00    +0.030 A 
ATOM     33 BR   UNL     1     -17.928  -3.616   1.509  0.00  0.00    -0.050 Br
ENDBRANCH  25  27
ENDBRANCH  24  25
ENDBRANCH   6  24
TORSDOF 8
