REMARK  Name = ZINC26548724
REMARK  5 active torsions:
REMARK  status: ('A' for Active; 'I' for Inactive)
REMARK    1  A    between atoms: C_1  and  C_2
REMARK    2  A    between atoms: C_2  and  C_3
REMARK    3  A    between atoms: C_2  and  C_4
REMARK    4  A    between atoms: C_2  and  C_5
REMARK    5  A    between atoms: C_7  and  C_11
REMARK                            x       y       z     vdW  Elec       q    Type
REMARK                         _______ _______ _______ _____ _____    ______ ____
ROOT
ATOM      1  C   UNL     1      -3.277  -1.656   0.025  0.00  0.00    +0.069 A 
ATOM      2  C   UNL     1      -2.496  -0.501   0.024  0.00  0.00    +0.058 A 
ATOM      3  C   UNL     1      -1.172  -0.892   0.009  0.00  0.00    +0.122 A 
ATOM      4  N   UNL     1      -1.157  -2.257  -0.004  0.00  0.00    -0.272 N 
ATOM      5  H   UNL     1      -0.199  -2.797  -0.023  0.00  0.00    +0.189 HD
ATOM      6  N   UNL     1      -2.486  -2.699   0.011  0.00  0.00    -0.178 NA
ENDROOT
BRANCH   3   7
ATOM      7  C   UNL     1       0.002  -0.004   0.002  0.00  0.00    +0.267 A 
ATOM      8  N   UNL     1      -0.016   1.308   0.009  0.00  0.00    -0.105 NA
ATOM      9  N   UNL     1       1.192   1.752   0.000  0.00  0.00    -0.100 NA
ATOM     10  C   UNL     1       2.029   0.741  -0.013  0.00  0.00    +0.289 A 
ATOM     11  O   UNL     1       1.298  -0.390  -0.012  0.00  0.00    -0.409 OA
ATOM     12  S   UNL     1       3.788   0.844  -0.030  0.00  0.00    +0.013 SA
ENDBRANCH   3   7
BRANCH   1  14
ATOM     13  C   UNL     1      -5.316  -1.329  -1.348  0.00  0.00    +0.017 C 
ATOM     14  C   UNL     1      -4.783  -1.696   0.038  0.00  0.00    +0.006 C 
ATOM     15  C   UNL     1      -5.253  -3.105   0.408  0.00  0.00    +0.017 C 
ATOM     16  C   UNL     1      -5.311  -0.696   1.069  0.00  0.00    +0.017 C 
ENDBRANCH   1  14
TORSDOF 2
