REMARK  Name = ZINC21963816
REMARK  3 active torsions:
REMARK  status: ('A' for Active; 'I' for Inactive)
REMARK    1  A    between atoms: C_4  and  N_7
REMARK    2  A    between atoms: C_8  and  C_14
REMARK    3  A    between atoms: N_16  and  C_17
REMARK                            x       y       z     vdW  Elec       q    Type
REMARK                         _______ _______ _______ _____ _____    ______ ____
ROOT
ATOM      1  C   UNL     1       4.841  -0.513  -1.273  0.00  0.00    +0.263 C 
ATOM      2  O   UNL     1       5.172  -0.370  -0.111  0.00  0.00    -0.269 OA
ATOM      3  N   UNL     1       3.709   0.060  -1.727  0.00  0.00    -0.303 N 
ATOM      4  H   UNL     1       3.444  -0.013  -2.792  0.00  0.00    +0.150 HD
ENDROOT
BRANCH   3   5
ATOM      5  C   UNL     1       2.832   0.782  -0.802  0.00  0.00    +0.105 C 
ATOM      6  C   UNL     1       1.422   0.776  -1.367  0.00  0.00    +0.038 C 
ATOM      7  C   UNL     1       0.483   1.485  -0.379  0.00  0.00    +0.076 C 
ATOM      8  S   UNL     1       0.866   3.260  -0.458  0.00  0.00    -0.125 S 
ATOM      9  C   UNL     1       2.630   3.298  -0.414  0.00  0.00    +0.013 A 
ATOM     10  C   UNL     1       3.391   2.156  -0.585  0.00  0.00    -0.011 A 
ATOM     11  C   UNL     1       4.780   2.266  -0.554  0.00  0.00    +0.045 A 
ATOM     12  C   UNL     1       5.392   3.485  -0.347  0.00  0.00    +0.124 A 
ATOM     13  C   UNL     1       4.626   4.624  -0.167  0.00  0.00    +0.039 A 
ATOM     14  C   UNL     1       3.251   4.528  -0.202  0.00  0.00    +0.018 A 
ATOM     15  F   UNL     1       6.741   3.567  -0.321  0.00  0.00    -0.205 F 
ENDBRANCH   3   5
BRANCH   1  17
ATOM     16  N   UNL     1       5.361  -1.667  -3.496  0.00  0.00    -0.284 N 
ATOM     17  C   UNL     1       5.674  -1.310  -2.180  0.00  0.00    +0.127 A 
ATOM     18  C   UNL     1       6.885  -1.841  -1.899  0.00  0.00    +0.116 A 
ATOM     19  N   UNL     1       7.321  -2.508  -3.012  0.00  0.00    -0.339 N 
ATOM     20  H   UNL     1       8.295  -3.019  -3.001  0.00  0.00    +0.167 HD
ATOM     21  C   UNL     1       6.389  -2.393  -3.977  0.00  0.00    +0.163 A 
ATOM     22  S   UNL     1       6.491  -3.062  -5.550  0.00  0.00    -0.013 S 
BRANCH  16  26
ATOM     23  C   UNL     1       1.883  -0.660  -5.559  0.00  0.00    +0.000 A 
ATOM     24  C   UNL     1       3.087  -0.075  -5.909  0.00  0.00    +0.002 A 
ATOM     25  C   UNL     1       4.241  -0.407  -5.227  0.00  0.00    +0.026 A 
ATOM     26  C   UNL     1       4.193  -1.329  -4.189  0.00  0.00    +0.049 A 
ATOM     27  C   UNL     1       2.983  -1.918  -3.844  0.00  0.00    +0.026 A 
ATOM     28  C   UNL     1       1.832  -1.578  -4.526  0.00  0.00    +0.002 A 
ENDBRANCH  16  26
ENDBRANCH   1  17
TORSDOF 3
