REMARK  Name = ZINC00082666
REMARK  8 active torsions:
REMARK  status: ('A' for Active; 'I' for Inactive)
REMARK    1  A    between atoms: C_1  and  C_2
REMARK    2  A    between atoms: C_2  and  C_3
REMARK    3  A    between atoms: C_2  and  C_4
REMARK    4  A    between atoms: C_2  and  C_5
REMARK    5  A    between atoms: C_12  and  N_27
REMARK    6  A    between atoms: C_13  and  C_25
REMARK    7  A    between atoms: C_14  and  C_16
REMARK    8  A    between atoms: C_20  and  N_22
REMARK                            x       y       z     vdW  Elec       q    Type
REMARK                         _______ _______ _______ _____ _____    ______ ____
ROOT
ATOM      1  C   UNL     1       1.393  -0.943  -1.968  0.00  0.00    +0.076 A 
ATOM      2  C   UNL     1       1.022  -2.266  -2.166  0.00  0.00    +0.050 A 
ATOM      3  C   UNL     1       1.389  -2.623  -3.433  0.00  0.00    +0.222 A 
ATOM      4  N   UNL     1       1.972  -1.556  -4.003  0.00  0.00    -0.246 N 
ATOM      5  H   UNL     1       2.334  -1.515  -4.902  0.00  0.00    +0.192 HD
ATOM      6  N   UNL     1       1.958  -0.509  -3.069  0.00  0.00    -0.175 NA
ATOM      7  O   UNL     1       1.163  -3.861  -3.940  0.00  0.00    -0.423 OA
ATOM      8  C   UNL     1       0.316  -4.666  -3.266  0.00  0.00    +0.200 C 
ATOM      9  C   UNL     1      -0.109  -4.425  -2.006  0.00  0.00    +0.098 C 
ATOM     10  C   UNL     1       0.335  -3.217  -1.220  0.00  0.00    +0.101 C 
ENDROOT
BRANCH  10  11
ATOM     11  C   UNL     1       1.295  -3.638  -0.137  0.00  0.00    -0.032 A 
ATOM     12  C   UNL     1       2.621  -3.881  -0.446  0.00  0.00    +0.005 A 
ATOM     13  C   UNL     1       3.502  -4.267   0.547  0.00  0.00    +0.003 A 
ATOM     14  C   UNL     1       3.057  -4.411   1.848  0.00  0.00    +0.033 A 
ATOM     15  C   UNL     1       1.732  -4.168   2.156  0.00  0.00    +0.126 A 
ATOM     16  C   UNL     1       0.852  -3.777   1.164  0.00  0.00    +0.037 A 
BRANCH  15  17
ATOM     17  N   UNL     1       1.255  -4.323   3.549  0.00  0.00    +0.056 N 
ATOM     18  O   UNL     1       2.025  -4.662   4.417  0.00  0.00    -0.126 OA
ATOM     19  O   UNL     1       0.096  -4.111   3.819  0.00  0.00    -0.126 OA
ENDBRANCH  15  17
ENDBRANCH  10  11
BRANCH   1  21
ATOM     20  C   UNL     1       1.588   1.311  -0.952  0.00  0.00    +0.017 C 
ATOM     21  C   UNL     1       1.177  -0.143  -0.709  0.00  0.00    +0.007 C 
ATOM     22  C   UNL     1       2.025  -0.730   0.421  0.00  0.00    +0.017 C 
ATOM     23  C   UNL     1      -0.301  -0.196  -0.317  0.00  0.00    +0.017 C 
ENDBRANCH   1  21
BRANCH   8  24
ATOM     24  N   UNL     1      -0.141  -5.796  -3.897  0.00  0.00    -0.328 N 
ATOM     25  H   UNL     1       0.146  -5.996  -4.802  0.00  0.00    +0.145 HD
ATOM     26  H   UNL     1      -0.751  -6.395  -3.438  0.00  0.00    +0.145 HD
ENDBRANCH   8  24
BRANCH   9  27
ATOM     27  C   UNL     1      -1.013  -5.351  -1.394  0.00  0.00    +0.101 C 
ATOM     28  N   UNL     1      -1.731  -6.086  -0.909  0.00  0.00    -0.191 NA
ENDBRANCH   9  27
TORSDOF 5
