REMARK  Name = ZINC59427804
REMARK  7 active torsions:
REMARK  status: ('A' for Active; 'I' for Inactive)
REMARK    1  A    between atoms: C_10  and  C_11
REMARK    2  A    between atoms: C_11  and  O_12
REMARK    3  A    between atoms: O_12  and  C_13
REMARK    4  A    between atoms: C_17  and  C_19
REMARK    5  A    between atoms: N_20  and  N_21
REMARK    6  A    between atoms: C_22  and  C_24
REMARK    7  A    between atoms: C_24  and  N_25
REMARK                            x       y       z     vdW  Elec       q    Type
REMARK                         _______ _______ _______ _____ _____    ______ ____
ROOT
ATOM      1  C   UNL     1      10.889  -1.347  -0.124  0.00  0.00    +0.138 C 
ATOM      2  N   UNL     1      12.076  -0.824  -0.133  0.00  0.00    -0.188 NA
ENDROOT
BRANCH   1   7
ATOM      3  C   UNL     1       7.309  -0.209  -0.071  0.00  0.00    +0.122 A 
ATOM      4  C   UNL     1       7.467   1.170  -0.060  0.00  0.00    +0.046 A 
ATOM      5  C   UNL     1       8.733   1.726  -0.071  0.00  0.00    +0.004 A 
ATOM      6  C   UNL     1       9.848   0.914  -0.091  0.00  0.00    +0.010 A 
ATOM      7  C   UNL     1       9.699  -0.475  -0.102  0.00  0.00    -0.002 A 
ATOM      8  C   UNL     1       8.420  -1.034  -0.086  0.00  0.00    +0.055 A 
BRANCH   3   9
ATOM      9  O   UNL     1       6.062  -0.750  -0.061  0.00  0.00    -0.487 OA
BRANCH   9  10
ATOM     10  C   UNL     1       4.960   0.161  -0.046  0.00  0.00    +0.265 C 
BRANCH  10  20
ATOM     11  C   UNL     1      -0.016   1.357   0.009  0.00  0.00    +0.001 A 
ATOM     12  C   UNL     1       1.169   2.091   0.002  0.00  0.00    +0.001 A 
ATOM     13  C   UNL     1       2.378   1.468  -0.013  0.00  0.00    +0.009 A 
ATOM     14  C   UNL     1       2.438   0.064  -0.021  0.00  0.00    -0.011 A 
ATOM     15  C   UNL     1       1.233  -0.683  -0.013  0.00  0.00    -0.018 A 
ATOM     16  C   UNL     1       0.002  -0.004   0.002  0.00  0.00    +0.008 A 
ATOM     17  C   UNL     1       1.292  -2.087  -0.021  0.00  0.00    +0.008 A 
ATOM     18  C   UNL     1       2.502  -2.709  -0.036  0.00  0.00    +0.001 A 
ATOM     19  C   UNL     1       3.687  -1.976  -0.043  0.00  0.00    +0.007 A 
ATOM     20  C   UNL     1       3.668  -0.615  -0.037  0.00  0.00    -0.003 A 
ENDBRANCH  10  20
ENDBRANCH   9  10
ENDBRANCH   3   9
ENDBRANCH   1   7
BRANCH   2  21
ATOM     21  N   UNL     1      13.206  -1.652  -0.154  0.00  0.00    -0.206 N 
ATOM     22  C   UNL     1      14.439  -1.109  -0.165  0.00  0.00    +0.252 C 
ATOM     23  O   UNL     1      14.572   0.096  -0.155  0.00  0.00    -0.272 OA
ATOM     24  H   UNL     1      13.100  -2.617  -0.162  0.00  0.00    +0.177 HD
BRANCH  22  25
ATOM     25  C   UNL     1      15.655  -2.001  -0.187  0.00  0.00    +0.219 C 
BRANCH  25  26
ATOM     26  N   UNL     1      16.865  -1.175  -0.194  0.00  0.00    -0.331 N 
ATOM     27  C   UNL     1      17.418  -0.771  -1.396  0.00  0.00    +0.054 A 
ATOM     28  C   UNL     1      17.224  -1.505  -2.560  0.00  0.00    +0.026 A 
ATOM     29  C   UNL     1      17.783  -1.070  -3.743  0.00  0.00    +0.002 A 
ATOM     30  C   UNL     1      18.538   0.093  -3.788  0.00  0.00    +0.001 A 
ATOM     31  C   UNL     1      18.746   0.832  -2.649  0.00  0.00    +0.014 A 
ATOM     32  C   UNL     1      18.191   0.406  -1.445  0.00  0.00    +0.046 A 
ATOM     33  C   UNL     1      18.392   1.157  -0.188  0.00  0.00    +0.197 A 
ATOM     34  O   UNL     1      18.672   2.342  -0.176  0.00  0.00    -0.287 OA
ATOM     35  C   UNL     1      18.230   0.373   1.056  0.00  0.00    +0.046 A 
ATOM     36  C   UNL     1      17.451  -0.796   1.000  0.00  0.00    +0.054 A 
ATOM     37  C   UNL     1      17.286  -1.554   2.154  0.00  0.00    +0.026 A 
ATOM     38  C   UNL     1      17.876  -1.145   3.331  0.00  0.00    +0.002 A 
ATOM     39  C   UNL     1      18.634   0.016   3.379  0.00  0.00    +0.001 A 
ATOM     40  C   UNL     1      18.820   0.769   2.253  0.00  0.00    +0.014 A 
ENDBRANCH  25  26
ENDBRANCH  22  25
ENDBRANCH   2  21
TORSDOF 7
