REMARK  Name = ZINC08469537
REMARK  5 active torsions:
REMARK  status: ('A' for Active; 'I' for Inactive)
REMARK    1  A    between atoms: C_1  and  O_2
REMARK    2  A    between atoms: O_2  and  C_3
REMARK    3  A    between atoms: C_4  and  C_11
REMARK    4  A    between atoms: C_11  and  N_12
REMARK    5  A    between atoms: N_12  and  N_13
REMARK                            x       y       z     vdW  Elec       q    Type
REMARK                         _______ _______ _______ _____ _____    ______ ____
ROOT
ATOM      1  C   UNL     1       1.214  -0.680  -0.013  0.00  0.00    +0.139 A 
ATOM      2  C   UNL     1       2.404   0.033  -0.021  0.00  0.00    +0.015 A 
ATOM      3  C   UNL     1       2.380   1.414  -0.013  0.00  0.00    +0.024 A 
ATOM      4  C   UNL     1       1.171   2.087   0.002  0.00  0.00    +0.019 A 
ATOM      5  C   UNL     1      -0.017   1.378   0.010  0.00  0.00    +0.034 A 
ATOM      6  C   UNL     1       0.002  -0.004   0.002  0.00  0.00    +0.061 A 
ATOM      7 BR   UNL     1      -1.622  -0.973   0.012  0.00  0.00    -0.046 Br
ATOM      8 BR   UNL     1       1.143   3.978   0.013  0.00  0.00    -0.050 Br
ENDROOT
BRANCH   1  10
ATOM      9  C   UNL     1       1.233  -2.682  -1.297  0.00  0.00    +0.277 C 
ATOM     10  O   UNL     1       1.235  -2.039  -0.020  0.00  0.00    -0.494 OA
ENDBRANCH   1  10
BRANCH   2  11
ATOM     11  C   UNL     1       3.721  -0.699  -0.037  0.00  0.00    +0.159 C 
BRANCH  11  12
ATOM     12  N   UNL     1       4.020  -1.140  -1.406  0.00  0.00    -0.277 N 
ATOM     13  H   UNL     1       4.016  -0.360  -2.046  0.00  0.00    +0.167 HD
BRANCH  12  14
ATOM     14  N   UNL     1       5.210  -1.808  -1.456  0.00  0.00    -0.229 N 
ATOM     15  C   UNL     1       6.040  -2.053  -0.390  0.00  0.00    +0.242 A 
ATOM     16  N   UNL     1       7.075  -2.709  -0.808  0.00  0.00    -0.160 NA
ATOM     17  N   UNL     1       6.936  -2.909  -2.188  0.00  0.00    -0.253 N 
ATOM     18  H   UNL     1       7.561  -3.371  -2.768  0.00  0.00    +0.191 HD
ATOM     19  C   UNL     1       5.768  -2.345  -2.560  0.00  0.00    +0.193 A 
ATOM     20  S   UNL     1       5.115  -2.313  -4.143  0.00  0.00    -0.010 S 
ENDBRANCH  12  14
ENDBRANCH  11  12
ENDBRANCH   2  11
TORSDOF 4
