REMARK  Name = ZINC12898438
REMARK  17 active torsions:
REMARK  status: ('A' for Active; 'I' for Inactive)
REMARK    1  A    between atoms: C_1  and  C_2
REMARK    2  A    between atoms: C_2  and  O_3
REMARK    3  A    between atoms: O_3  and  C_4
REMARK    4  A    between atoms: C_4  and  C_6
REMARK    5  A    between atoms: C_7  and  C_33
REMARK    6  A    between atoms: C_8  and  C_22
REMARK    7  A    between atoms: C_10  and  N_11
REMARK    8  A    between atoms: C_12  and  C_14
REMARK    9  A    between atoms: C_14  and  N_69
REMARK   10  A    between atoms: C_15  and  C_16
REMARK   11  A    between atoms: C_15  and  N_69
REMARK   12  A    between atoms: C_16  and  C_17
REMARK   13  A    between atoms: C_16  and  C_18
REMARK   14  A    between atoms: C_19  and  N_69
REMARK   15  A    between atoms: N_24  and  C_25
REMARK   16  A    between atoms: C_28  and  C_32
REMARK   17  A    between atoms: C_30  and  C_31
REMARK                            x       y       z     vdW  Elec       q    Type
REMARK                         _______ _______ _______ _____ _____    ______ ____
ROOT
ATOM      1  C   UNL     1       5.319  -2.817   0.189  0.00  0.00    +0.091 A 
ATOM      2  C   UNL     1       3.990  -2.419   0.192  0.00  0.00    -0.015 A 
ATOM      3  C   UNL     1       3.729  -1.077   0.244  0.00  0.00    +0.080 A 
ATOM      4  S   UNL     1       5.361  -0.361   0.282  0.00  0.00    -0.068 S 
ATOM      5  C   UNL     1       6.298  -1.819   0.239  0.00  0.00    +0.087 A 
ATOM      6  C   UNL     1       2.874  -3.430   0.140  0.00  0.00    +0.046 C 
ENDROOT
BRANCH   5   7
ATOM      7  N   UNL     1       7.672  -1.959   0.246  0.00  0.00    -0.281 N 
ATOM      8  C   UNL     1       8.461  -0.868   0.298  0.00  0.00    +0.201 C 
ATOM      9  O   UNL     1       7.964   0.238   0.339  0.00  0.00    -0.278 OA
ATOM     10  H   UNL     1       8.069  -2.844   0.214  0.00  0.00    +0.155 HD
BRANCH   8  11
ATOM     11  C   UNL     1       9.960  -1.022   0.307  0.00  0.00    +0.019 C 
BRANCH  11  12
ATOM     12  N   UNL     1      10.572   0.313   0.472  0.00  0.00    +0.387 N 
ATOM     13  H   UNL     1      10.069   0.823   1.208  0.00  0.00    -0.081 HD
BRANCH  12  14
ATOM     14  C   UNL     1      11.989   0.173   0.869  0.00  0.00    -0.068 C 
ATOM     15  C   UNL     1      12.600  -1.230   0.879  0.00  0.00    -0.017 C 
ATOM     16  C   UNL     1      12.270  -0.529   2.199  0.00  0.00    -0.017 C 
ENDBRANCH  12  14
BRANCH  12  17
ATOM     17  C   UNL     1      10.475   1.074  -0.791  0.00  0.00    -0.075 C 
BRANCH  17  18
ATOM     18  C   UNL     1      10.909   2.518  -0.532  0.00  0.00    -0.034 C 
ATOM     19  C   UNL     1      10.912   3.294  -1.851  0.00  0.00    +0.005 C 
ATOM     20  C   UNL     1       9.932   3.177   0.444  0.00  0.00    +0.005 C 
ENDBRANCH  17  18
ENDBRANCH  12  17
ENDBRANCH  11  12
ENDBRANCH   8  11
ENDBRANCH   5   7
BRANCH   3  21
ATOM     21  C   UNL     1       2.432  -0.398   0.259  0.00  0.00    +0.255 C 
ATOM     22  O   UNL     1       1.404  -1.049   0.222  0.00  0.00    -0.269 OA
ATOM     23  N   UNL     1       2.376   0.947   0.313  0.00  0.00    -0.281 N 
ATOM     24  H   UNL     1       3.193   1.469   0.271  0.00  0.00    +0.155 HD
BRANCH  23  25
ATOM     25  C   UNL     1       1.141   1.591   0.431  0.00  0.00    +0.037 A 
ATOM     26  C   UNL     1       0.012   1.047  -0.169  0.00  0.00    +0.024 A 
ATOM     27  C   UNL     1      -1.206   1.689  -0.056  0.00  0.00    +0.005 A 
ATOM     28  C   UNL     1      -1.304   2.866   0.664  0.00  0.00    -0.050 A 
ATOM     29  C   UNL     1      -0.183   3.410   1.262  0.00  0.00    +0.008 A 
ATOM     30  C   UNL     1       1.039   2.776   1.148  0.00  0.00    -0.029 A 
ATOM     31  C   UNL     1       2.261   3.370   1.800  0.00  0.00    +0.045 C 
ATOM     32  C   UNL     1      -2.636   3.560   0.791  0.00  0.00    +0.044 C 
ENDBRANCH  23  25
ENDBRANCH   3  21
BRANCH   1  33
ATOM     33  C   UNL     1       5.686  -4.237   0.135  0.00  0.00    +0.342 C 
ATOM     34  O   UNL     1       5.848  -4.783  -0.939  0.00  0.00    -0.245 OA
BRANCH  33  35
ATOM     35  O   UNL     1       5.843  -4.936   1.278  0.00  0.00    -0.461 OA
BRANCH  35  37
ATOM     36  C   UNL     1       6.340  -6.958   2.540  0.00  0.00    +0.048 C 
ATOM     37  C   UNL     1       6.207  -6.336   1.149  0.00  0.00    +0.229 C 
ENDBRANCH  35  37
ENDBRANCH  33  35
ENDBRANCH   1  33
TORSDOF 11
