REMARK  Name = ZINC08620493
REMARK  8 active torsions:
REMARK  status: ('A' for Active; 'I' for Inactive)
REMARK    1  A    between atoms: C_1  and  C_2
REMARK    2  A    between atoms: C_2  and  N_3
REMARK    3  A    between atoms: C_4  and  C_23
REMARK    4  A    between atoms: C_7  and  S_8
REMARK    5  A    between atoms: S_8  and  C_9
REMARK    6  A    between atoms: C_9  and  C_10
REMARK    7  A    between atoms: N_12  and  C_13
REMARK    8  A    between atoms: C_16  and  N_20
REMARK                            x       y       z     vdW  Elec       q    Type
REMARK                         _______ _______ _______ _____ _____    ______ ____
ROOT
ATOM      1  C   UNL     1       0.001  -0.003  -0.016  0.00  0.00    +0.173 C 
ENDROOT
BRANCH   1   2
ATOM      2  C   UNL     1      -1.412  -0.526   0.007  0.00  0.00    +0.228 C 
ATOM      3  O   UNL     1      -2.345   0.250   0.024  0.00  0.00    -0.275 OA
ATOM      4  N   UNL     1      -1.640  -1.854   0.008  0.00  0.00    -0.284 N 
ATOM      5  H   UNL     1      -0.898  -2.473  -0.071  0.00  0.00    +0.155 HD
BRANCH   4   6
ATOM      6  C   UNL     1      -2.947  -2.340   0.123  0.00  0.00    +0.048 A 
ATOM      7  C   UNL     1      -4.002  -1.645  -0.454  0.00  0.00    +0.026 A 
ATOM      8  C   UNL     1      -5.291  -2.126  -0.338  0.00  0.00    +0.034 A 
ATOM      9  C   UNL     1      -5.533  -3.300   0.351  0.00  0.00    +0.127 A 
ATOM     10  C   UNL     1      -4.486  -3.996   0.928  0.00  0.00    +0.049 A 
ATOM     11  C   UNL     1      -3.193  -3.522   0.811  0.00  0.00    +0.041 A 
ATOM     12 BR   UNL     1      -1.760  -4.477   1.593  0.00  0.00    -0.048 Br
BRANCH   9  13
ATOM     13  N   UNL     1      -6.916  -3.814   0.472  0.00  0.00    +0.056 N 
ATOM     14  O   UNL     1      -7.839  -3.203  -0.035  0.00  0.00    -0.126 OA
ATOM     15  O   UNL     1      -7.130  -4.848   1.079  0.00  0.00    -0.126 OA
ENDBRANCH   9  13
ENDBRANCH   4   6
ENDBRANCH   1   2
BRANCH   1  16
ATOM     16  S   UNL     1      -0.024   1.806  -0.011  0.00  0.00    -0.077 S 
BRANCH  16  21
ATOM     17  N   UNL     1       2.296   3.370  -0.047  0.00  0.00    -0.300 N 
ATOM     18  C   UNL     1       3.653   3.132  -0.070  0.00  0.00    +0.200 A 
ATOM     19  N   UNL     1       3.814   1.827  -0.075  0.00  0.00    -0.125 NA
ATOM     20  N   UNL     1       2.670   1.243  -0.051  0.00  0.00    -0.122 NA
ATOM     21  C   UNL     1       1.706   2.137  -0.039  0.00  0.00    +0.192 A 
BRANCH  18  22
ATOM     22  C   UNL     1       4.719   4.146  -0.085  0.00  0.00    +0.172 A 
ATOM     23  C   UNL     1       6.036   3.926   0.184  0.00  0.00    +0.053 A 
ATOM     24  C   UNL     1       6.690   5.166   0.051  0.00  0.00    +0.042 A 
ATOM     25  C   UNL     1       5.751   6.075  -0.280  0.00  0.00    +0.196 A 
ATOM     26  O   UNL     1       4.561   5.456  -0.361  0.00  0.00    -0.460 OA
ENDBRANCH  18  22
BRANCH  17  28
ATOM     27  C   UNL     1       1.416   5.123   1.414  0.00  0.00    +0.027 C 
ATOM     28  C   UNL     1       1.625   4.672  -0.033  0.00  0.00    +0.122 C 
ENDBRANCH  17  28
ENDBRANCH  16  21
ENDBRANCH   1  16
TORSDOF 7
