REMARK  Name = ZINC13065240
REMARK  14 active torsions:
REMARK  status: ('A' for Active; 'I' for Inactive)
REMARK    1  A    between atoms: C_1  and  C_2
REMARK    2  A    between atoms: C_2  and  C_3
REMARK    3  A    between atoms: C_3  and  C_5
REMARK    4  A    between atoms: C_3  and  N_70
REMARK    5  A    between atoms: N_9  and  C_10
REMARK    6  A    between atoms: C_10  and  C_11
REMARK    7  A    between atoms: C_14  and  O_17
REMARK    8  A    between atoms: O_17  and  C_18
REMARK    9  A    between atoms: C_19  and  C_20
REMARK   10  A    between atoms: C_19  and  N_70
REMARK   11  A    between atoms: C_25  and  C_26
REMARK   12  A    between atoms: C_25  and  N_70
REMARK   13  A    between atoms: C_29  and  C_39
REMARK   14  A    between atoms: C_32  and  C_38
REMARK                            x       y       z     vdW  Elec       q    Type
REMARK                         _______ _______ _______ _____ _____    ______ ____
ROOT
ATOM      1  N   UNL     1      -1.937   0.898   1.349  0.00  0.00    +0.394 N 
ATOM      2  H   UNL     1      -1.778  -0.115   1.395  0.00  0.00    -0.080 HD
ENDROOT
BRANCH   1   3
ATOM      3  C   UNL     1      -0.635   1.581   1.196  0.00  0.00    +0.003 C 
BRANCH   3   4
ATOM      4  C   UNL     1       0.205   1.317   2.419  0.00  0.00    +0.138 A 
ATOM      5  N   UNL     1       0.352   0.169   3.034  0.00  0.00    -0.115 NA
ATOM      6  N   UNL     1       1.147   0.351   4.031  0.00  0.00    -0.023 NA
ATOM      7  N   UNL     1       1.504   1.587   4.074  0.00  0.00    -0.044 NA
ATOM      8  N   UNL     1       0.944   2.216   3.096  0.00  0.00    -0.226 N 
BRANCH   8   9
ATOM      9  C   UNL     1       1.084   3.640   2.782  0.00  0.00    +0.182 C 
BRANCH   9  10
ATOM     10  C   UNL     1       0.017   4.421   3.504  0.00  0.00    -0.026 A 
ATOM     11  C   UNL     1      -1.203   4.649   2.893  0.00  0.00    +0.009 A 
ATOM     12  C   UNL     1      -2.185   5.361   3.554  0.00  0.00    +0.046 A 
ATOM     13  C   UNL     1      -1.943   5.856   4.828  0.00  0.00    +0.120 A 
ATOM     14  C   UNL     1      -0.717   5.630   5.436  0.00  0.00    +0.046 A 
ATOM     15  C   UNL     1       0.260   4.913   4.772  0.00  0.00    +0.009 A 
BRANCH  13  16
ATOM     16  O   UNL     1      -2.906   6.560   5.478  0.00  0.00    -0.495 OA
ATOM     17  C   UNL     1      -4.144   6.754   4.792  0.00  0.00    +0.277 C 
ENDBRANCH  13  16
ENDBRANCH   9  10
ENDBRANCH   8   9
ENDBRANCH   3   4
BRANCH   3  19
ATOM     18  C   UNL     1       1.397   1.766  -0.247  0.00  0.00    +0.002 C 
ATOM     19  C   UNL     1       0.075   1.024  -0.040  0.00  0.00    -0.011 C 
ENDBRANCH   3  19
ENDBRANCH   1   3
BRANCH   1  20
ATOM     20  C   UNL     1      -2.595   1.338   2.597  0.00  0.00    -0.002 C 
BRANCH  20  21
ATOM     21  C   UNL     1      -3.757   0.423   2.881  0.00  0.00    +0.089 A 
ATOM     22  C   UNL     1      -3.728  -0.663   3.675  0.00  0.00    +0.042 A 
ATOM     23  C   UNL     1      -5.028  -1.220   3.655  0.00  0.00    +0.041 A 
ATOM     24  C   UNL     1      -5.773  -0.441   2.851  0.00  0.00    +0.195 A 
ATOM     25  O   UNL     1      -5.000   0.555   2.389  0.00  0.00    -0.470 OA
ENDBRANCH  20  21
ENDBRANCH   1  20
BRANCH   1  26
ATOM     26  C   UNL     1      -2.803   1.196   0.189  0.00  0.00    -0.036 C 
BRANCH  26  27
ATOM     27  C   UNL     1      -2.904   2.684  -0.027  0.00  0.00    +0.001 A 
ATOM     28  C   UNL     1      -2.063   3.299  -0.894  0.00  0.00    +0.017 A 
ATOM     29  C   UNL     1      -2.191   4.745  -1.085  0.00  0.00    +0.002 A 
ATOM     30  C   UNL     1      -1.356   5.435  -1.971  0.00  0.00    -0.041 A 
ATOM     31  C   UNL     1      -1.498   6.785  -2.123  0.00  0.00    +0.004 A 
ATOM     32  C   UNL     1      -2.463   7.479  -1.405  0.00  0.00    +0.005 A 
ATOM     33  C   UNL     1      -3.296   6.821  -0.527  0.00  0.00    -0.026 A 
ATOM     34  C   UNL     1      -3.170   5.446  -0.356  0.00  0.00    +0.052 A 
ATOM     35  N   UNL     1      -3.991   4.761   0.515  0.00  0.00    -0.322 N 
ATOM     36  H   UNL     1      -4.665   5.246   1.017  0.00  0.00    +0.169 HD
ATOM     37  C   UNL     1      -3.870   3.433   0.680  0.00  0.00    +0.251 A 
ATOM     38  O   UNL     1      -4.612   2.860   1.459  0.00  0.00    -0.268 OA
ATOM     39  C   UNL     1      -4.339   7.587   0.245  0.00  0.00    +0.046 C 
ATOM     40  C   UNL     1      -0.306   4.691  -2.755  0.00  0.00    +0.044 C 
ENDBRANCH  26  27
ENDBRANCH   1  26
TORSDOF 10
