REMARK  Name = ZINC17740772
REMARK  11 active torsions:
REMARK  status: ('A' for Active; 'I' for Inactive)
REMARK    1  A    between atoms: C_1  and  C_2
REMARK    2  A    between atoms: C_7  and  N_8
REMARK    3  A    between atoms: C_9  and  C_11
REMARK    4  A    between atoms: C_11  and  N_12
REMARK    5  A    between atoms: N_12  and  C_13
REMARK    6  A    between atoms: N_12  and  C_14
REMARK    7  A    between atoms: C_14  and  C_15
REMARK    8  A    between atoms: C_15  and  C_17
REMARK    9  A    between atoms: C_15  and  O_29
REMARK   10  A    between atoms: C_17  and  O_18
REMARK   11  A    between atoms: O_18  and  C_19
REMARK                            x       y       z     vdW  Elec       q    Type
REMARK                         _______ _______ _______ _____ _____    ______ ____
ROOT
ATOM      1  N   UNL     1      -0.241  -0.906   5.992  0.00  0.00    +0.385 N 
ATOM      2  C   UNL     1      -1.481  -1.685   5.884  0.00  0.00    -0.095 C 
ATOM      3  H   UNL     1       0.552  -1.529   5.951  0.00  0.00    -0.081 HD
ENDROOT
BRANCH   1   4
ATOM      4  C   UNL     1      -0.167   0.054   4.882  0.00  0.00    +0.019 C 
BRANCH   4   6
ATOM      5  N   UNL     1       0.026  -0.014   2.417  0.00  0.00    -0.287 N 
ATOM      6  C   UNL     1      -0.056  -0.694   3.578  0.00  0.00    +0.201 C 
ATOM      7  O   UNL     1      -0.040  -1.906   3.574  0.00  0.00    -0.278 OA
ATOM      8  H   UNL     1       0.079   0.955   2.425  0.00  0.00    +0.155 HD
BRANCH   5  15
ATOM      9  C   UNL     1      -1.265   1.183   0.182  0.00  0.00    +0.046 C 
ATOM     10  C   UNL     1      -0.584  -0.158   0.085  0.00  0.00    -0.028 A 
ATOM     11  C   UNL     1      -0.570  -0.840  -1.116  0.00  0.00    +0.020 A 
ATOM     12  C   UNL     1       0.055  -2.071  -1.206  0.00  0.00    +0.018 A 
ATOM     13  C   UNL     1       0.666  -2.623  -0.094  0.00  0.00    +0.017 A 
ATOM     14  C   UNL     1       0.655  -1.945   1.109  0.00  0.00    +0.024 A 
ATOM     15  C   UNL     1       0.034  -0.706   1.201  0.00  0.00    +0.036 A 
ATOM     16 BR   UNL     1       0.072  -3.002  -2.852  0.00  0.00    -0.050 Br
ENDBRANCH   5  15
ENDBRANCH   4   6
ENDBRANCH   1   4
BRANCH   1  17
ATOM     17  C   UNL     1      -0.228  -0.180   7.269  0.00  0.00    -0.043 C 
BRANCH  17  18
ATOM     18  C   UNL     1      -0.179  -1.182   8.425  0.00  0.00    +0.135 C 
BRANCH  18  19
ATOM     19  O   UNL     1       1.058  -1.896   8.383  0.00  0.00    -0.390 OA
ATOM     20  H   UNL     1       1.840  -1.333   8.461  0.00  0.00    +0.210 HD
ENDBRANCH  18  19
BRANCH  18  21
ATOM     21  C   UNL     1      -0.292  -0.433   9.754  0.00  0.00    +0.258 C 
BRANCH  21  22
ATOM     22  O   UNL     1      -0.363  -1.374  10.826  0.00  0.00    -0.489 OA
BRANCH  22  23
ATOM     23  C   UNL     1      -0.467  -0.870  12.083  0.00  0.00    +0.128 A 
ATOM     24  C   UNL     1      -0.505   0.481  12.282  0.00  0.00    +0.046 A 
ATOM     25  C   UNL     1      -0.611   1.014  13.563  0.00  0.00    +0.004 A 
ATOM     26  C   UNL     1      -0.681   0.204  14.656  0.00  0.00    +0.009 A 
ATOM     27  C   UNL     1      -0.645  -1.191  14.495  0.00  0.00    -0.014 A 
ATOM     28  C   UNL     1      -0.542  -1.738  13.192  0.00  0.00    +0.024 A 
ATOM     29  C   UNL     1      -0.511  -3.132  13.030  0.00  0.00    +0.012 A 
ATOM     30  C   UNL     1      -0.586  -3.939  14.124  0.00  0.00    +0.001 A 
ATOM     31  C   UNL     1      -0.693  -3.402  15.405  0.00  0.00    +0.001 A 
ATOM     32  C   UNL     1      -0.715  -2.055  15.601  0.00  0.00    +0.008 A 
ENDBRANCH  22  23
ENDBRANCH  21  22
ENDBRANCH  18  21
ENDBRANCH  17  18
ENDBRANCH   1  17
TORSDOF 9
