REMARK  Name = ZINC27988093
REMARK  10 active torsions:
REMARK  status: ('A' for Active; 'I' for Inactive)
REMARK    1  A    between atoms: C_1  and  O_2
REMARK    2  A    between atoms: O_2  and  C_3
REMARK    3  A    between atoms: C_3  and  C_4
REMARK    4  A    between atoms: C_4  and  N_5
REMARK    5  A    between atoms: C_6  and  C_30
REMARK    6  A    between atoms: C_8  and  C_13
REMARK    7  A    between atoms: C_13  and  C_15
REMARK    8  A    between atoms: C_18  and  S_21
REMARK    9  A    between atoms: S_21  and  N_24
REMARK   10  A    between atoms: C_34  and  O_36
REMARK                            x       y       z     vdW  Elec       q    Type
REMARK                         _______ _______ _______ _____ _____    ______ ____
ROOT
ATOM      1  N   UNL     1      -5.152   0.178   6.723  0.00  0.00    -0.281 N 
ATOM      2  C   UNL     1      -4.316   0.851   5.721  0.00  0.00    +0.145 C 
ATOM      3  C   UNL     1      -3.825   2.124   6.370  0.00  0.00    +0.076 C 
ATOM      4  C   UNL     1      -4.339   2.149   7.621  0.00  0.00    +0.249 C 
ATOM      5  C   UNL     1      -5.166   0.941   7.830  0.00  0.00    +0.288 C 
ATOM      6  O   UNL     1      -5.765   0.675   8.853  0.00  0.00    -0.266 OA
ATOM      7  O   UNL     1      -4.132   3.125   8.535  0.00  0.00    -0.282 OA
ENDROOT
BRANCH   2   8
ATOM      8  C   UNL     1      -5.132   1.175   4.496  0.00  0.00    -0.019 A 
ATOM      9  C   UNL     1      -6.410   1.685   4.633  0.00  0.00    +0.006 A 
ATOM     10  C   UNL     1      -7.161   1.984   3.511  0.00  0.00    +0.004 A 
ATOM     11  C   UNL     1      -6.636   1.772   2.250  0.00  0.00    +0.045 A 
ATOM     12  C   UNL     1      -5.354   1.260   2.111  0.00  0.00    +0.117 A 
ATOM     13  C   UNL     1      -4.601   0.967   3.239  0.00  0.00    +0.051 A 
BRANCH  12  14
ATOM     14  O   UNL     1      -4.835   1.052   0.872  0.00  0.00    -0.507 OA
ATOM     15  H   UNL     1      -3.819   0.646   0.763  0.00  0.00    +0.292 HD
ENDBRANCH  12  14
ENDBRANCH   2   8
BRANCH   3  16
ATOM     16  C   UNL     1      -2.954   3.134   5.762  0.00  0.00    +0.195 C 
ATOM     17  O   UNL     1      -3.379   4.253   5.546  0.00  0.00    -0.287 OA
BRANCH  16  18
ATOM     18  C   UNL     1      -1.558   2.793   5.412  0.00  0.00    +0.022 A 
ATOM     19  C   UNL     1      -0.748   3.729   4.765  0.00  0.00    +0.013 A 
ATOM     20  C   UNL     1       0.553   3.405   4.442  0.00  0.00    +0.029 A 
ATOM     21  C   UNL     1       1.056   2.155   4.758  0.00  0.00    +0.106 A 
ATOM     22  C   UNL     1       0.258   1.221   5.395  0.00  0.00    +0.029 A 
ATOM     23  C   UNL     1      -1.043   1.534   5.728  0.00  0.00    +0.013 A 
BRANCH  21  24
ATOM     24  S   UNL     1       2.719   1.749   4.342  0.00  0.00    +0.061 S 
ATOM     25  O   UNL     1       3.086   2.595   3.261  0.00  0.00    -0.153 OA
ATOM     26  O   UNL     1       2.782   0.332   4.255  0.00  0.00    -0.153 OA
BRANCH  24  27
ATOM     27  N   UNL     1       3.667   2.186   5.628  0.00  0.00    -0.177 NA
ATOM     28  C   UNL     1       4.255   3.530   5.702  0.00  0.00    +0.109 C 
ATOM     29  C   UNL     1       3.880   4.159   7.047  0.00  0.00    +0.017 C 
ATOM     30  C   UNL     1       4.308   3.223   8.180  0.00  0.00    +0.003 C 
ATOM     31  C   UNL     1       3.570   1.889   8.048  0.00  0.00    +0.017 C 
ATOM     32  C   UNL     1       3.941   1.234   6.713  0.00  0.00    +0.109 C 
ENDBRANCH  24  27
ENDBRANCH  21  24
ENDBRANCH  16  18
ENDBRANCH   3  16
BRANCH   1  33
ATOM     33  C   UNL     1      -5.849  -1.099   6.547  0.00  0.00    +0.137 C 
BRANCH  33  34
ATOM     34  C   UNL     1      -4.933  -2.244   6.982  0.00  0.00    +0.178 C 
BRANCH  34  36
ATOM     35  C   UNL     1      -3.827  -3.171   8.896  0.00  0.00    +0.194 C 
ATOM     36  O   UNL     1      -4.677  -2.143   8.384  0.00  0.00    -0.381 OA
ENDBRANCH  34  36
ENDBRANCH  33  34
ENDBRANCH   1  33
TORSDOF 9
