REMARK  Name = ZINC59169297
REMARK  11 active torsions:
REMARK  status: ('A' for Active; 'I' for Inactive)
REMARK    1  A    between atoms: C_4  and  O_7
REMARK    2  A    between atoms: O_7  and  C_8
REMARK    3  A    between atoms: C_11  and  N_14
REMARK    4  A    between atoms: N_14  and  C_15
REMARK    5  A    between atoms: C_15  and  N_17
REMARK    6  A    between atoms: N_17  and  C_18
REMARK    7  A    between atoms: N_17  and  C_26
REMARK    8  A    between atoms: C_18  and  C_19
REMARK    9  A    between atoms: C_19  and  C_20
REMARK   10  A    between atoms: C_20  and  N_21
REMARK   11  A    between atoms: C_26  and  C_27
REMARK                            x       y       z     vdW  Elec       q    Type
REMARK                         _______ _______ _______ _____ _____    ______ ____
ROOT
ATOM      1  C   UNL     1       4.258  -6.892   0.399  0.00  0.00    +0.137 C 
ATOM      2  S   UNL     1       5.804  -6.157   0.421  0.00  0.00    -0.018 S 
ENDROOT
BRANCH   1   3
ATOM      3  N   UNL     1       3.156  -6.138   0.218  0.00  0.00    -0.297 N 
ATOM      4  H   UNL     1       2.284  -6.559   0.161  0.00  0.00    +0.154 HD
BRANCH   3   8
ATOM      5  C   UNL     1       3.494  -1.994  -0.098  0.00  0.00    +0.129 A 
ATOM      6  C   UNL     1       4.365  -2.816  -0.798  0.00  0.00    +0.048 A 
ATOM      7  C   UNL     1       4.254  -4.189  -0.694  0.00  0.00    +0.027 A 
ATOM      8  C   UNL     1       3.270  -4.746   0.112  0.00  0.00    +0.033 A 
ATOM      9  C   UNL     1       2.398  -3.923   0.812  0.00  0.00    +0.027 A 
ATOM     10  C   UNL     1       2.513  -2.550   0.711  0.00  0.00    +0.048 A 
BRANCH   5  11
ATOM     11  O   UNL     1       3.604  -0.643  -0.201  0.00  0.00    -0.456 OA
BRANCH  11  15
ATOM     12  C   UNL     1       1.529   1.245  -3.226  0.00  0.00    +0.000 A 
ATOM     13  C   UNL     1       2.392   1.969  -2.425  0.00  0.00    +0.004 A 
ATOM     14  C   UNL     1       3.088   1.339  -1.411  0.00  0.00    +0.046 A 
ATOM     15  C   UNL     1       2.920  -0.021  -1.197  0.00  0.00    +0.128 A 
ATOM     16  C   UNL     1       2.053  -0.746  -2.002  0.00  0.00    +0.046 A 
ATOM     17  C   UNL     1       1.359  -0.111  -3.015  0.00  0.00    +0.004 A 
ENDBRANCH  11  15
ENDBRANCH   5  11
ENDBRANCH   3   8
ENDBRANCH   1   3
BRANCH   1  18
ATOM     18  N   UNL     1       4.144  -8.225   0.562  0.00  0.00    -0.312 N 
BRANCH  18  19
ATOM     19  C   UNL     1       5.342  -9.045   0.758  0.00  0.00    +0.108 C 
BRANCH  19  20
ATOM     20  C   UNL     1       5.651  -9.147   2.253  0.00  0.00    +0.040 C 
BRANCH  20  21
ATOM     21  C   UNL     1       6.902 -10.003   2.458  0.00  0.00    +0.124 C 
BRANCH  21  22
ATOM     22  N   UNL     1       7.197 -10.100   3.890  0.00  0.00    -0.338 N 
ATOM     23  C   UNL     1       7.985  -9.248   4.616  0.00  0.00    +0.104 A 
ATOM     24  C   UNL     1       7.985  -9.703   5.884  0.00  0.00    +0.101 A 
ATOM     25  N   UNL     1       7.218 -10.802   5.930  0.00  0.00    -0.352 N 
ATOM     26  C   UNL     1       6.739 -11.043   4.741  0.00  0.00    +0.173 A 
ATOM     27  H   UNL     1       7.044 -11.332   6.724  0.00  0.00    +0.166 HD
ENDBRANCH  21  22
ENDBRANCH  20  21
ENDBRANCH  19  20
ENDBRANCH  18  19
BRANCH  18  28
ATOM     28  C   UNL     1       2.821  -8.854   0.542  0.00  0.00    +0.110 C 
BRANCH  28  29
ATOM     29  C   UNL     1       2.468  -9.257  -0.891  0.00  0.00    +0.010 C 
ATOM     30  C   UNL     1       1.136 -10.018  -0.900  0.00  0.00    +0.009 C 
ATOM     31  C   UNL     1       0.899 -10.561  -2.311  0.00  0.00    +0.027 C 
ATOM     32  C   UNL     1       1.096  -9.472  -3.324  0.00  0.00    -0.031 C 
ATOM     33  C   UNL     1       1.716  -8.361  -3.083  0.00  0.00    -0.031 C 
ATOM     34  C   UNL     1       2.321  -8.004  -1.756  0.00  0.00    +0.032 C 
ENDBRANCH  28  29
ENDBRANCH  18  28
ENDBRANCH   1  18
TORSDOF 11
