REMARK  Name = ZINC38743126
REMARK  4 active torsions:
REMARK  status: ('A' for Active; 'I' for Inactive)
REMARK    1  A    between atoms: C_4  and  C_7
REMARK    2  A    between atoms: C_9  and  C_13
REMARK    3  A    between atoms: C_21  and  C_23
REMARK    4  A    between atoms: C_24  and  C_25
REMARK                            x       y       z     vdW  Elec       q    Type
REMARK                         _______ _______ _______ _____ _____    ______ ____
ROOT
ATOM      1  C   UNL     1       5.782  -3.012   1.181  0.00  0.00    +0.206 C 
ATOM      2  N   UNL     1       5.483  -2.225   2.402  0.00  0.00    -0.231 NA
ATOM      3  N   UNL     1       6.781  -1.878   3.005  0.00  0.00    -0.224 NA
ATOM      4  C   UNL     1       7.707  -1.935   1.855  0.00  0.00    +0.240 C 
ATOM      5  N   UNL     1       7.252  -3.192   1.172  0.00  0.00    -0.206 N 
ATOM      6  N   UNL     1       8.277  -4.061   0.868  0.00  0.00    -0.174 NA
ATOM      7  C   UNL     1       9.465  -3.967   1.400  0.00  0.00    +0.118 C 
ATOM      8  S   UNL     1       9.392  -2.430   2.374  0.00  0.00    -0.063 S 
ATOM      9  H   UNL     1       4.916  -2.757   3.045  0.00  0.00    +0.143 HD
ATOM     10  H   UNL     1       7.042  -2.548   3.713  0.00  0.00    +0.144 HD
ENDROOT
BRANCH   1  13
ATOM     11  C   UNL     1       3.699  -0.689  -0.037  0.00  0.00    +0.091 C 
ATOM     12  C   UNL     1       3.832  -2.029  -0.051  0.00  0.00    +0.034 C 
ATOM     13  C   UNL     1       5.335  -2.245  -0.065  0.00  0.00    +0.190 C 
ATOM     14  N   UNL     1       5.871  -0.874  -0.056  0.00  0.00    -0.176 NA
ATOM     15  N   UNL     1       4.919  -0.090  -0.047  0.00  0.00    -0.154 NA
BRANCH  11  19
ATOM     16  C   UNL     1      -0.017   1.379   0.010  0.00  0.00    +0.000 A 
ATOM     17  C   UNL     1       1.169   2.092   0.002  0.00  0.00    +0.001 A 
ATOM     18  C   UNL     1       2.377   1.426  -0.013  0.00  0.00    +0.010 A 
ATOM     19  C   UNL     1       2.402   0.033  -0.021  0.00  0.00    +0.002 A 
ATOM     20  C   UNL     1       1.205  -0.680  -0.013  0.00  0.00    +0.010 A 
ATOM     21  C   UNL     1       0.002  -0.004   0.002  0.00  0.00    +0.001 A 
ENDBRANCH  11  19
ENDBRANCH   1  13
BRANCH   7  22
ATOM     22  C   UNL     1      10.600  -4.881   1.242  0.00  0.00    +0.037 C 
ATOM     23  C   UNL     1      10.481  -5.976   0.467  0.00  0.00    +0.012 C 
BRANCH  23  24
ATOM     24  C   UNL     1      11.621  -6.894   0.309  0.00  0.00    -0.007 A 
ATOM     25  C   UNL     1      12.828  -6.635   0.966  0.00  0.00    +0.011 A 
ATOM     26  C   UNL     1      13.891  -7.499   0.813  0.00  0.00    +0.020 A 
ATOM     27  C   UNL     1      13.768  -8.621   0.011  0.00  0.00    +0.042 A 
ATOM     28  C   UNL     1      12.576  -8.885  -0.644  0.00  0.00    +0.040 A 
ATOM     29  C   UNL     1      11.500  -8.033  -0.495  0.00  0.00    +0.049 A 
ATOM     30 CL   UNL     1      10.005  -8.369  -1.309  0.00  0.00    -0.083 Cl
ATOM     31 CL   UNL     1      15.113  -9.702  -0.176  0.00  0.00    -0.083 Cl
ENDBRANCH  23  24
ENDBRANCH   7  22
TORSDOF 4
