REMARK  Name = ZINC03789223
REMARK  10 active torsions:
REMARK  status: ('A' for Active; 'I' for Inactive)
REMARK    1  A    between atoms: C_1  and  C_2
REMARK    2  A    between atoms: C_2  and  O_3
REMARK    3  A    between atoms: O_3  and  C_4
REMARK    4  A    between atoms: C_4  and  C_5
REMARK    5  A    between atoms: C_4  and  O_31
REMARK    6  A    between atoms: N_7  and  C_8
REMARK    7  A    between atoms: C_13  and  C_14
REMARK    8  A    between atoms: C_13  and  N_66
REMARK    9  A    between atoms: O_31  and  C_32
REMARK   10  A    between atoms: C_32  and  C_33
REMARK                            x       y       z     vdW  Elec       q    Type
REMARK                         _______ _______ _______ _____ _____    ______ ____
ROOT
ATOM      1  C   UNL     1       1.435  -4.554   1.480  0.00  0.00    +0.070 C 
ATOM      2  C   UNL     1       2.895  -4.691   1.040  0.00  0.00    +0.003 C 
ATOM      3  C   UNL     1       3.177  -3.703  -0.094  0.00  0.00    -0.077 C 
ATOM      4  C   UNL     1       1.506  -2.166   0.753  0.00  0.00    -0.077 C 
ATOM      5  C   UNL     1       1.174  -3.108   1.913  0.00  0.00    +0.003 C 
ATOM      6  N   UNL     1       2.931  -2.330   0.395  0.00  0.00    +0.381 N 
ATOM      7  H   UNL     1       3.505  -2.165   1.229  0.00  0.00    -0.082 HD
ENDROOT
BRANCH   1  10
ATOM      8  C   UNL     1      -0.077  -5.896   2.840  0.00  0.00    +0.270 C 
ATOM      9  O   UNL     1      -0.989  -5.544   2.121  0.00  0.00    -0.270 OA
ATOM     10  N   UNL     1       1.175  -5.456   2.604  0.00  0.00    -0.308 N 
ATOM     11  H   UNL     1       1.903  -5.737   3.179  0.00  0.00    +0.149 HD
BRANCH   8  12
ATOM     12  C   UNL     1      -0.345  -6.824   3.996  0.00  0.00    +0.339 C 
BRANCH  12  13
ATOM     13  O   UNL     1       0.514  -6.486   5.087  0.00  0.00    -0.344 OA
BRANCH  13  15
ATOM     14  C   UNL     1       1.625  -7.081   7.149  0.00  0.00    +0.034 C 
ATOM     15  C   UNL     1       0.812  -7.582   5.954  0.00  0.00    +0.160 C 
ENDBRANCH  13  15
ENDBRANCH  12  13
BRANCH  12  16
ATOM     16  O   UNL     1      -1.708  -6.695   4.405  0.00  0.00    -0.344 OA
BRANCH  16  17
ATOM     17  C   UNL     1      -2.134  -7.694   5.334  0.00  0.00    +0.160 C 
ATOM     18  C   UNL     1      -3.639  -7.560   5.573  0.00  0.00    +0.034 C 
ENDBRANCH  16  17
ENDBRANCH  12  16
ENDBRANCH   8  12
ENDBRANCH   1  10
BRANCH   6  19
ATOM     19  C   UNL     1       3.305  -1.350  -0.646  0.00  0.00    -0.062 C 
BRANCH  19  20
ATOM     20  C   UNL     1       2.938   0.055  -0.163  0.00  0.00    +0.007 C 
ATOM     21  C   UNL     1       3.311   0.439   1.321  0.00  0.00    +0.027 C 
ATOM     22  C   UNL     1       2.704   1.887   1.168  0.00  0.00    +0.051 C 
ATOM     23  C   UNL     1       1.305   1.525   0.662  0.00  0.00    -0.036 A 
ATOM     24  C   UNL     1       1.448   0.407  -0.151  0.00  0.00    -0.035 A 
ATOM     25  C   UNL     1       0.349  -0.153  -0.756  0.00  0.00    +0.005 A 
ATOM     26  C   UNL     1      -0.903   0.402  -0.551  0.00  0.00    +0.000 A 
ATOM     27  C   UNL     1      -1.045   1.514   0.257  0.00  0.00    +0.000 A 
ATOM     28  C   UNL     1       0.064   2.078   0.867  0.00  0.00    +0.004 A 
ATOM     29  C   UNL     1       3.449   2.344  -0.089  0.00  0.00    -0.036 A 
ATOM     30  C   UNL     1       3.591   1.225  -0.902  0.00  0.00    -0.034 A 
ATOM     31  C   UNL     1       4.229   1.327  -2.115  0.00  0.00    +0.024 A 
ATOM     32  C   UNL     1       4.730   2.553  -2.524  0.00  0.00    +0.041 A 
ATOM     33  C   UNL     1       4.587   3.667  -1.716  0.00  0.00    +0.020 A 
ATOM     34  C   UNL     1       3.943   3.561  -0.494  0.00  0.00    +0.006 A 
ATOM     35 CL   UNL     1       5.537   2.692  -4.055  0.00  0.00    -0.084 Cl
ENDBRANCH  19  20
ENDBRANCH   6  19
TORSDOF 8
