REMARK  Name = ZINC16724615
REMARK  9 active torsions:
REMARK  status: ('A' for Active; 'I' for Inactive)
REMARK    1  A    between atoms: C_1  and  C_2
REMARK    2  A    between atoms: C_5  and  C_36
REMARK    3  A    between atoms: C_6  and  N_8
REMARK    4  A    between atoms: C_9  and  C_11
REMARK    5  A    between atoms: C_11  and  C_13
REMARK    6  A    between atoms: C_11  and  S_14
REMARK    7  A    between atoms: S_14  and  C_15
REMARK    8  A    between atoms: N_28  and  C_29
REMARK    9  A    between atoms: C_34  and  C_35
REMARK                            x       y       z     vdW  Elec       q    Type
REMARK                         _______ _______ _______ _____ _____    ______ ____
ROOT
ATOM      1  C   UNL     1      -5.218   1.234  -0.500  0.00  0.00    +0.198 A 
ATOM      2  N   UNL     1      -5.346   0.023  -0.014  0.00  0.00    -0.120 NA
ATOM      3  N   UNL     1      -6.569  -0.361  -0.102  0.00  0.00    -0.109 NA
ATOM      4  C   UNL     1      -7.298   0.577  -0.658  0.00  0.00    +0.245 A 
ATOM      5  N   UNL     1      -6.457   1.625  -0.929  0.00  0.00    -0.255 N 
ATOM      6  C   UNL     1      -6.933   2.785  -1.528  0.00  0.00    +0.064 A 
ATOM      7  C   UNL     1      -6.090   3.850  -1.805  0.00  0.00    +0.027 A 
ATOM      8  C   UNL     1      -6.593   4.989  -2.401  0.00  0.00    +0.002 A 
ATOM      9  C   UNL     1      -7.938   5.081  -2.724  0.00  0.00    +0.001 A 
ATOM     10  C   UNL     1      -8.792   4.032  -2.455  0.00  0.00    +0.015 A 
ATOM     11  C   UNL     1      -8.296   2.877  -1.855  0.00  0.00    +0.064 A 
ATOM     12  C   UNL     1      -9.177   1.734  -1.551  0.00  0.00    +0.268 A 
ATOM     13  O   UNL     1     -10.362   1.779  -1.821  0.00  0.00    -0.267 OA
ATOM     14  N   UNL     1      -8.648   0.638  -0.970  0.00  0.00    -0.245 N 
ENDROOT
BRANCH  14  15
ATOM     15  C   UNL     1      -9.473  -0.454  -0.676  0.00  0.00    +0.056 A 
ATOM     16  C   UNL     1     -10.113  -0.533   0.554  0.00  0.00    +0.026 A 
ATOM     17  C   UNL     1     -10.927  -1.611   0.840  0.00  0.00    +0.002 A 
ATOM     18  C   UNL     1     -11.105  -2.612  -0.097  0.00  0.00    +0.000 A 
ATOM     19  C   UNL     1     -10.470  -2.537  -1.323  0.00  0.00    +0.005 A 
ATOM     20  C   UNL     1      -9.659  -1.458  -1.617  0.00  0.00    -0.026 A 
ATOM     21  C   UNL     1      -8.972  -1.374  -2.956  0.00  0.00    +0.046 C 
ENDBRANCH  14  15
BRANCH   1  22
ATOM     22  S   UNL     1      -3.732   2.176  -0.590  0.00  0.00    -0.073 S 
BRANCH  22  23
ATOM     23  C   UNL     1      -2.478   1.089   0.142  0.00  0.00    +0.137 C 
ATOM     24  C   UNL     1      -2.800   0.862   1.621  0.00  0.00    +0.029 C 
BRANCH  23  26
ATOM     25  N   UNL     1      -0.011   0.966   0.007  0.00  0.00    -0.284 N 
ATOM     26  C   UNL     1      -1.121   1.731   0.017  0.00  0.00    +0.230 C 
ATOM     27  O   UNL     1      -1.026   2.937  -0.076  0.00  0.00    -0.274 OA
ATOM     28  H   UNL     1      -0.089  -0.001   0.016  0.00  0.00    +0.155 HD
BRANCH  25  34
ATOM     29  C   UNL     1       2.902   4.629  -1.499  0.00  0.00    +0.044 C 
ATOM     30  C   UNL     1       2.693   3.342  -0.743  0.00  0.00    -0.049 A 
ATOM     31  C   UNL     1       3.752   2.753  -0.076  0.00  0.00    +0.004 A 
ATOM     32  C   UNL     1       3.564   1.572   0.619  0.00  0.00    +0.005 A 
ATOM     33  C   UNL     1       2.317   0.977   0.648  0.00  0.00    -0.029 A 
ATOM     34  C   UNL     1       1.253   1.566  -0.021  0.00  0.00    +0.037 A 
ATOM     35  C   UNL     1       1.446   2.749  -0.722  0.00  0.00    +0.027 A 
ATOM     36  C   UNL     1       2.114  -0.310   1.405  0.00  0.00    +0.045 C 
ENDBRANCH  25  34
ENDBRANCH  23  26
ENDBRANCH  22  23
ENDBRANCH   1  22
TORSDOF 5
