REMARK  Name = ZINC20130126
REMARK  8 active torsions:
REMARK  status: ('A' for Active; 'I' for Inactive)
REMARK    1  A    between atoms: C_1  and  O_2
REMARK    2  A    between atoms: O_2  and  C_3
REMARK    3  A    between atoms: C_8  and  C_9
REMARK    4  A    between atoms: C_11  and  C_26
REMARK    5  A    between atoms: N_15  and  C_16
REMARK    6  A    between atoms: C_20  and  C_22
REMARK    7  A    between atoms: C_26  and  C_28
REMARK    8  A    between atoms: C_29  and  C_30
REMARK                            x       y       z     vdW  Elec       q    Type
REMARK                         _______ _______ _______ _____ _____    ______ ____
ROOT
ATOM      1  C   UNL     1       0.049  -2.822   0.213  0.00  0.00    +0.153 C 
ATOM      2  C   UNL     1       0.579  -2.937  -1.198  0.00  0.00    +0.076 C 
ATOM      3  C   UNL     1       0.623  -4.258  -1.492  0.00  0.00    +0.250 C 
ATOM      4  C   UNL     1       0.142  -5.030  -0.329  0.00  0.00    +0.292 C 
ATOM      5  O   UNL     1       0.061  -6.242  -0.283  0.00  0.00    -0.266 OA
ATOM      6  N   UNL     1      -0.195  -4.195   0.672  0.00  0.00    -0.253 N 
ATOM      7  O   UNL     1       1.042  -4.786  -2.665  0.00  0.00    -0.282 OA
ENDROOT
BRANCH   1  13
ATOM      8  C   UNL     1      -1.211  -0.665   0.430  0.00  0.00    +0.125 A 
ATOM      9  C   UNL     1      -2.396   0.056   0.432  0.00  0.00    +0.046 A 
ATOM     10  C   UNL     1      -3.599  -0.593   0.230  0.00  0.00    +0.004 A 
ATOM     11  C   UNL     1      -3.622  -1.961   0.027  0.00  0.00    +0.001 A 
ATOM     12  C   UNL     1      -2.443  -2.682   0.025  0.00  0.00    +0.009 A 
ATOM     13  C   UNL     1      -1.237  -2.037   0.221  0.00  0.00    +0.020 A 
BRANCH   8  15
ATOM     14  C   UNL     1      -0.083   1.363   0.944  0.00  0.00    +0.277 C 
ATOM     15  O   UNL     1      -0.027  -0.029   0.628  0.00  0.00    -0.495 OA
ENDBRANCH   8  15
ENDBRANCH   1  13
BRANCH   6  16
ATOM     16  C   UNL     1      -0.689  -4.567   1.925  0.00  0.00    +0.038 A 
ATOM     17  C   UNL     1      -1.002  -3.593   2.867  0.00  0.00    +0.023 A 
ATOM     18  C   UNL     1      -1.491  -3.956   4.108  0.00  0.00    +0.003 A 
ATOM     19  C   UNL     1      -1.672  -5.288   4.421  0.00  0.00    +0.015 A 
ATOM     20  C   UNL     1      -1.361  -6.275   3.483  0.00  0.00    +0.065 A 
ATOM     21  C   UNL     1      -0.872  -5.908   2.228  0.00  0.00    +0.038 A 
BRANCH  20  22
ATOM     22  C   UNL     1      -1.553  -7.699   3.815  0.00  0.00    +0.387 C 
ATOM     23  O   UNL     1      -1.986  -8.018   4.914  0.00  0.00    -0.241 OA
ATOM     24  O   UNL     1      -1.280  -8.562   2.992  0.00  0.00    -0.241 OA
ENDBRANCH  20  22
ENDBRANCH   6  16
BRANCH   2  25
ATOM     25  C   UNL     1       0.971  -1.831  -2.079  0.00  0.00    +0.188 C 
ATOM     26  O   UNL     1       0.794  -0.678  -1.724  0.00  0.00    -0.287 OA
BRANCH  25  27
ATOM     27  C   UNL     1       1.573  -2.112  -3.383  0.00  0.00    +0.052 C 
ATOM     28  C   UNL     1       2.029  -1.097  -4.149  0.00  0.00    +0.011 C 
BRANCH  28  29
ATOM     29  C   UNL     1       2.527  -1.366  -5.506  0.00  0.00    -0.025 A 
ATOM     30  C   UNL     1       2.420  -2.650  -6.053  0.00  0.00    +0.008 A 
ATOM     31  C   UNL     1       2.889  -2.894  -7.326  0.00  0.00    +0.001 A 
ATOM     32  C   UNL     1       3.465  -1.874  -8.063  0.00  0.00    +0.000 A 
ATOM     33  C   UNL     1       3.574  -0.601  -7.530  0.00  0.00    +0.001 A 
ATOM     34  C   UNL     1       3.105  -0.339  -6.260  0.00  0.00    +0.008 A 
ENDBRANCH  28  29
ENDBRANCH  25  27
ENDBRANCH   2  25
TORSDOF 7
