REMARK  Name = ZINC14471679
REMARK  4 active torsions:
REMARK  status: ('A' for Active; 'I' for Inactive)
REMARK    1  A    between atoms: C_1  and  C_2
REMARK    2  A    between atoms: C_5  and  O_27
REMARK    3  A    between atoms: C_15  and  C_18
REMARK    4  A    between atoms: C_22  and  N_24
REMARK                            x       y       z     vdW  Elec       q    Type
REMARK                         _______ _______ _______ _____ _____    ______ ____
ROOT
ATOM      1  C   UNL     1       2.221  -2.943   0.020  0.00  0.00    +0.044 C 
ATOM      2  C   UNL     1       1.851  -1.484  -0.056  0.00  0.00    -0.045 A 
ATOM      3  C   UNL     1       0.522  -1.121  -0.136  0.00  0.00    +0.007 A 
ATOM      4  C   UNL     1       0.172   0.215  -0.205  0.00  0.00    +0.047 A 
ATOM      5  C   UNL     1       1.159   1.183  -0.196  0.00  0.00    +0.138 A 
ATOM      6  C   UNL     1       2.506   0.816  -0.117  0.00  0.00    +0.074 A 
ATOM      7  C   UNL     1       2.852  -0.520  -0.045  0.00  0.00    -0.013 A 
ATOM      8  C   UNL     1       4.275  -0.985   0.049  0.00  0.00    +0.049 C 
ATOM      9  C   UNL     1       4.572  -1.512   1.434  0.00  0.00    -0.023 C 
ATOM     10  C   UNL     1       5.773  -1.151   1.814  0.00  0.00    -0.030 C 
ATOM     11  C   UNL     1       6.452  -0.338   0.729  0.00  0.00    +0.033 C 
ATOM     12  C   UNL     1       5.267   0.183  -0.132  0.00  0.00    +0.029 C 
ATOM     13  C   UNL     1       4.700   1.427   0.556  0.00  0.00    +0.105 C 
ATOM     14  N   UNL     1       3.464   1.834  -0.114  0.00  0.00    -0.334 N 
ATOM     15  H   UNL     1       3.651   2.156  -1.052  0.00  0.00    +0.147 HD
ENDROOT
BRANCH  13  16
ATOM     16  C   UNL     1       4.407   1.113   2.001  0.00  0.00    -0.025 A 
ATOM     17  C   UNL     1       3.114   0.825   2.398  0.00  0.00    +0.005 A 
ATOM     18  C   UNL     1       2.847   0.532   3.722  0.00  0.00    +0.003 A 
ATOM     19  C   UNL     1       3.870   0.537   4.651  0.00  0.00    +0.033 A 
ATOM     20  C   UNL     1       5.162   0.830   4.256  0.00  0.00    +0.127 A 
ATOM     21  C   UNL     1       5.430   1.118   2.930  0.00  0.00    +0.038 A 
BRANCH  20  22
ATOM     22  N   UNL     1       6.257   0.837   5.251  0.00  0.00    +0.056 N 
ATOM     23  O   UNL     1       7.395   1.095   4.903  0.00  0.00    -0.126 OA
ATOM     24  O   UNL     1       6.021   0.583   6.419  0.00  0.00    -0.126 OA
ENDBRANCH  20  22
ENDBRANCH  13  16
BRANCH   5  25
ATOM     25  O   UNL     1       0.819   2.498  -0.265  0.00  0.00    -0.505 OA
ATOM     26  H   UNL     1       0.678   2.913   0.597  0.00  0.00    +0.292 HD
ENDBRANCH   5  25
TORSDOF 3
