REMARK  Name = ZINC45513064
REMARK  4 active torsions:
REMARK  status: ('A' for Active; 'I' for Inactive)
REMARK    1  A    between atoms: C_1  and  C_2
REMARK    2  A    between atoms: C_2  and  C_4
REMARK    3  A    between atoms: C_2  and  N_13
REMARK    4  A    between atoms: N_13  and  C_14
REMARK                            x       y       z     vdW  Elec       q    Type
REMARK                         _______ _______ _______ _____ _____    ______ ____
ROOT
ATOM      1  C   UNL     1      -0.019   1.526   0.010  0.00  0.00    +0.036 C 
ATOM      2  C   UNL     1       0.002  -0.004   0.002  0.00  0.00    +0.134 C 
ENDROOT
BRANCH   2   3
ATOM      3  C   UNL     1       0.731  -0.503   1.223  0.00  0.00    +0.126 A 
ATOM      4  C   UNL     1       2.005  -0.917   1.240  0.00  0.00    +0.055 A 
ATOM      5  C   UNL     1       2.290  -1.308   2.626  0.00  0.00    +0.020 A 
ATOM      6  C   UNL     1       3.410  -1.812   3.286  0.00  0.00    +0.011 A 
ATOM      7  C   UNL     1       3.343  -2.081   4.625  0.00  0.00    +0.001 A 
ATOM      8  C   UNL     1       2.169  -1.856   5.329  0.00  0.00    +0.004 A 
ATOM      9  C   UNL     1       1.052  -1.359   4.693  0.00  0.00    +0.047 A 
ATOM     10  C   UNL     1       1.098  -1.078   3.333  0.00  0.00    +0.135 A 
ATOM     11  O   UNL     1       0.199  -0.593   2.454  0.00  0.00    -0.458 OA
ENDBRANCH   2   3
BRANCH   2  12
ATOM     12  N   UNL     1      -1.372  -0.511   0.012  0.00  0.00    -0.332 N 
ATOM     13  H   UNL     1      -1.794  -0.752   0.852  0.00  0.00    +0.147 HD
BRANCH  12  14
ATOM     14  C   UNL     1      -2.070  -0.646  -1.176  0.00  0.00    +0.072 A 
ATOM     15  C   UNL     1      -1.460  -0.303  -2.402  0.00  0.00    +0.157 A 
ATOM     16  N   UNL     1      -2.114  -0.429  -3.522  0.00  0.00    -0.177 NA
ATOM     17  N   UNL     1      -3.429  -0.906  -3.540  0.00  0.00    -0.242 N 
ATOM     18  H   UNL     1      -3.898  -0.992  -4.385  0.00  0.00    +0.192 HD
ATOM     19  C   UNL     1      -4.050  -1.245  -2.393  0.00  0.00    +0.285 A 
ATOM     20  O   UNL     1      -5.199  -1.661  -2.416  0.00  0.00    -0.265 OA
ATOM     21  C   UNL     1      -3.367  -1.124  -1.174  0.00  0.00    +0.129 A 
ATOM     22 CL   UNL     1      -4.142  -1.562   0.317  0.00  0.00    -0.076 Cl
ENDBRANCH  12  14
ENDBRANCH   2  12
TORSDOF 3
