REMARK  Name = ZINC01375571
REMARK  15 active torsions:
REMARK  status: ('A' for Active; 'I' for Inactive)
REMARK    1  A    between atoms: C_1  and  C_2
REMARK    2  A    between atoms: C_2  and  C_3
REMARK    3  A    between atoms: C_3  and  C_5
REMARK    4  A    between atoms: C_3  and  N_15
REMARK    5  A    between atoms: N_9  and  C_10
REMARK    6  A    between atoms: C_10  and  C_11
REMARK    7  A    between atoms: C_10  and  C_12
REMARK    8  A    between atoms: C_10  and  C_13
REMARK    9  A    between atoms: C_13  and  C_14
REMARK   10  A    between atoms: N_15  and  C_16
REMARK   11  A    between atoms: N_15  and  C_26
REMARK   12  A    between atoms: C_16  and  C_17
REMARK   13  A    between atoms: C_26  and  C_27
REMARK   14  A    between atoms: C_30  and  C_40
REMARK   15  A    between atoms: C_33  and  C_39
REMARK                            x       y       z     vdW  Elec       q    Type
REMARK                         _______ _______ _______ _____ _____    ______ ____
ROOT
ATOM      1  N   UNL     1      -2.490   0.611  -1.701  0.00  0.00    -0.284 NA
ENDROOT
BRANCH   1   2
ATOM      2  C   UNL     1      -2.046  -0.535  -0.897  0.00  0.00    +0.127 C 
BRANCH   2   3
ATOM      3  C   UNL     1      -0.540  -0.588  -0.886  0.00  0.00    +0.169 A 
ATOM      4  N   UNL     1       0.279   0.436  -0.859  0.00  0.00    -0.112 NA
ATOM      5  N   UNL     1       1.484  -0.019  -0.858  0.00  0.00    -0.023 NA
ATOM      6  N   UNL     1       1.456  -1.306  -0.883  0.00  0.00    -0.043 NA
ATOM      7  N   UNL     1       0.226  -1.695  -0.896  0.00  0.00    -0.222 N 
BRANCH   7   8
ATOM      8  C   UNL     1      -0.248  -3.080  -0.920  0.00  0.00    +0.061 C 
ATOM      9  C   UNL     1      -1.224  -3.306   0.237  0.00  0.00    +0.036 C 
ATOM     10  C   UNL     1      -0.959  -3.353  -2.247  0.00  0.00    +0.036 C 
BRANCH   8  11
ATOM     11  C   UNL     1       0.943  -4.030  -0.775  0.00  0.00    +0.026 C 
ATOM     12  C   UNL     1       0.448  -5.477  -0.801  0.00  0.00    +0.006 C 
ENDBRANCH   8  11
ENDBRANCH   7   8
ENDBRANCH   2   3
BRANCH   2  14
ATOM     13  C   UNL     1      -4.088  -0.278   0.520  0.00  0.00    +0.006 C 
ATOM     14  C   UNL     1      -2.562  -0.384   0.536  0.00  0.00    +0.023 C 
ENDBRANCH   2  14
ENDBRANCH   1   2
BRANCH   1  15
ATOM     15  C   UNL     1      -3.840   0.387  -2.235  0.00  0.00    +0.120 C 
BRANCH  15  16
ATOM     16  C   UNL     1      -3.793  -0.694  -3.284  0.00  0.00    -0.030 A 
ATOM     17  C   UNL     1      -3.418  -0.385  -4.578  0.00  0.00    +0.009 A 
ATOM     18  C   UNL     1      -3.373  -1.373  -5.543  0.00  0.00    +0.050 A 
ATOM     19  C   UNL     1      -3.704  -2.678  -5.215  0.00  0.00    +0.166 A 
ATOM     20  C   UNL     1      -4.082  -2.990  -3.911  0.00  0.00    +0.167 A 
ATOM     21  C   UNL     1      -4.120  -1.995  -2.948  0.00  0.00    +0.054 A 
ATOM     22  O   UNL     1      -4.356  -4.325  -3.844  0.00  0.00    -0.453 OA
ATOM     23  C   UNL     1      -4.537  -4.750  -5.208  0.00  0.00    +0.466 C 
ATOM     24  O   UNL     1      -3.741  -3.818  -5.964  0.00  0.00    -0.453 OA
ENDBRANCH  15  16
ENDBRANCH   1  15
BRANCH   1  25
ATOM     25  C   UNL     1      -2.431   1.855  -0.922  0.00  0.00    +0.126 C 
BRANCH  25  26
ATOM     26  C   UNL     1      -1.016   2.370  -0.905  0.00  0.00    +0.032 A 
ATOM     27  C   UNL     1      -0.463   2.865  -2.040  0.00  0.00    +0.020 A 
ATOM     28  C   UNL     1       0.915   3.358  -1.990  0.00  0.00    +0.002 A 
ATOM     29  C   UNL     1       1.538   3.880  -3.128  0.00  0.00    -0.041 A 
ATOM     30  C   UNL     1       2.825   4.333  -3.048  0.00  0.00    +0.004 A 
ATOM     31  C   UNL     1       3.519   4.279  -1.847  0.00  0.00    +0.005 A 
ATOM     32  C   UNL     1       2.925   3.769  -0.713  0.00  0.00    -0.026 A 
ATOM     33  C   UNL     1       1.615   3.303  -0.770  0.00  0.00    +0.052 A 
ATOM     34  N   UNL     1       0.996   2.788   0.348  0.00  0.00    -0.322 N 
ATOM     35  H   UNL     1       1.480   2.751   1.188  0.00  0.00    +0.169 HD
ATOM     36  C   UNL     1      -0.271   2.342   0.294  0.00  0.00    +0.254 A 
ATOM     37  O   UNL     1      -0.789   1.898   1.304  0.00  0.00    -0.268 OA
ATOM     38  C   UNL     1       3.691   3.716   0.584  0.00  0.00    +0.046 C 
ATOM     39  C   UNL     1       0.794   3.942  -4.437  0.00  0.00    +0.044 C 
ENDBRANCH  25  26
ENDBRANCH   1  25
TORSDOF 9
