REMARK  Name = ZINC56905560
REMARK  6 active torsions:
REMARK  status: ('A' for Active; 'I' for Inactive)
REMARK    1  A    between atoms: C_1  and  C_2
REMARK    2  A    between atoms: C_10  and  C_11
REMARK    3  A    between atoms: C_11  and  C_13
REMARK    4  A    between atoms: C_11  and  N_14
REMARK    5  A    between atoms: N_17  and  N_18
REMARK    6  A    between atoms: C_19  and  C_21
REMARK                            x       y       z     vdW  Elec       q    Type
REMARK                         _______ _______ _______ _____ _____    ______ ____
ROOT
ATOM      1  N   UNL     1       1.025  -1.119   3.258  0.00  0.00    -0.289 N 
ATOM      2  C   UNL     1       1.577  -0.595   4.370  0.00  0.00    +0.316 C 
ATOM      3  O   UNL     1       1.250   0.514   4.747  0.00  0.00    -0.251 OA
ATOM      4  N   UNL     1       2.492  -1.300   5.065  0.00  0.00    -0.218 N 
ATOM      5  H   UNL     1       1.286  -2.003   2.958  0.00  0.00    +0.151 HD
ATOM      6  H   UNL     1       2.889  -0.923   5.866  0.00  0.00    +0.174 HD
ENDROOT
BRANCH   4   7
ATOM      7  N   UNL     1       2.869  -2.577   4.631  0.00  0.00    -0.233 N 
ATOM      8  C   UNL     1       3.784  -3.282   5.326  0.00  0.00    +0.234 C 
ATOM      9  O   UNL     1       4.280  -2.811   6.326  0.00  0.00    -0.274 OA
ATOM     10  H   UNL     1       2.471  -2.954   3.830  0.00  0.00    +0.173 HD
BRANCH   8  11
ATOM     11  C   UNL     1       4.189  -4.657   4.859  0.00  0.00    +0.099 C 
ATOM     12  C   UNL     1       2.966  -5.588   4.862  0.00  0.00    +0.037 C 
ATOM     13  C   UNL     1       3.422  -7.058   4.698  0.00  0.00    +0.166 C 
ATOM     14  S   UNL     1       5.109  -7.042   5.431  0.00  0.00    -0.030 S 
ATOM     15  O   UNL     1       5.094  -7.785   6.642  0.00  0.00    -0.174 OA
ATOM     16  O   UNL     1       6.054  -7.370   4.421  0.00  0.00    -0.174 OA
ATOM     17  C   UNL     1       5.251  -5.249   5.828  0.00  0.00    +0.178 C 
ENDBRANCH   8  11
ENDBRANCH   4   7
BRANCH   1  18
ATOM     18  C   UNL     1       0.030  -0.352   2.503  0.00  0.00    +0.138 C 
ATOM     19  C   UNL     1      -1.354  -0.570   3.116  0.00  0.00    +0.036 C 
BRANCH  18  29
ATOM     20  C   UNL     1      -0.018   1.503   0.010  0.00  0.00    +0.048 C 
ATOM     21  C   UNL     1       0.002  -0.004   0.002  0.00  0.00    +0.000 A 
ATOM     22  C   UNL     1       0.009  -0.879  -1.177  0.00  0.00    +0.023 A 
ATOM     23  C   UNL     1       0.000  -0.660  -2.553  0.00  0.00    +0.012 A 
ATOM     24  C   UNL     1       0.011  -1.726  -3.409  0.00  0.00    +0.001 A 
ATOM     25  C   UNL     1       0.031  -3.023  -2.916  0.00  0.00    +0.004 A 
ATOM     26  C   UNL     1       0.040  -3.259  -1.558  0.00  0.00    +0.047 A 
ATOM     27  C   UNL     1       0.029  -2.190  -0.671  0.00  0.00    +0.136 A 
ATOM     28  O   UNL     1       0.033  -2.100   0.674  0.00  0.00    -0.458 OA
ATOM     29  C   UNL     1       0.023  -0.814   1.069  0.00  0.00    +0.129 A 
ENDBRANCH  18  29
ENDBRANCH   1  18
TORSDOF 4
