REMARK  Name = ZINC15675690
REMARK  6 active torsions:
REMARK  status: ('A' for Active; 'I' for Inactive)
REMARK    1  A    between atoms: C_1  and  O_2
REMARK    2  A    between atoms: O_2  and  C_3
REMARK    3  A    between atoms: C_6  and  C_9
REMARK    4  A    between atoms: C_11  and  C_14
REMARK    5  A    between atoms: N_24  and  C_25
REMARK    6  A    between atoms: C_25  and  C_26
REMARK                            x       y       z     vdW  Elec       q    Type
REMARK                         _______ _______ _______ _____ _____    ______ ____
ROOT
ATOM      1  C   UNL     1       3.699  -5.494   6.082  0.00  0.00    +0.152 C 
ATOM      2  C   UNL     1       2.776  -5.835   7.261  0.00  0.00    +0.083 C 
ATOM      3  C   UNL     1       3.318  -7.073   7.928  0.00  0.00    +0.040 A 
ATOM      4  C   UNL     1       4.568  -7.546   7.720  0.00  0.00    +0.051 A 
ATOM      5  N   UNL     1       4.718  -8.648   8.457  0.00  0.00    -0.349 N 
ATOM      6  C   UNL     1       3.611  -8.877   9.116  0.00  0.00    +0.171 A 
ATOM      7  N   UNL     1       2.713  -7.911   8.809  0.00  0.00    -0.349 N 
ATOM      8  H   UNL     1       1.810  -7.832   9.154  0.00  0.00    +0.166 HD
ATOM      9  C   UNL     1       5.562  -6.882   6.801  0.00  0.00    +0.140 C 
ATOM     10  N   UNL     1       5.098  -5.510   6.531  0.00  0.00    -0.281 NA
ATOM     11  H   UNL     1       5.520  -9.192   8.498  0.00  0.00    +0.166 HD
ENDROOT
BRANCH   1  14
ATOM     12  C   UNL     1       2.577  -2.541   4.295  0.00  0.00    +0.202 A 
ATOM     13  N   UNL     1       2.707  -3.870   4.457  0.00  0.00    -0.190 NA
ATOM     14  C   UNL     1       3.357  -4.123   5.557  0.00  0.00    +0.245 A 
ATOM     15  O   UNL     1       3.669  -2.960   6.144  0.00  0.00    -0.336 OA
ATOM     16  N   UNL     1       3.157  -1.937   5.303  0.00  0.00    -0.056 NA
BRANCH  12  20
ATOM     17  C   UNL     1       0.625  -0.618   1.041  0.00  0.00    +0.120 A 
ATOM     18  C   UNL     1       1.202   0.142   2.050  0.00  0.00    +0.046 A 
ATOM     19  C   UNL     1       1.835  -0.479   3.106  0.00  0.00    +0.015 A 
ATOM     20  C   UNL     1       1.896  -1.870   3.160  0.00  0.00    +0.023 A 
ATOM     21  C   UNL     1       1.317  -2.630   2.145  0.00  0.00    +0.015 A 
ATOM     22  C   UNL     1       0.680  -2.005   1.095  0.00  0.00    +0.046 A 
BRANCH  17  24
ATOM     23  C   UNL     1      -0.017   1.425   0.010  0.00  0.00    +0.277 C 
ATOM     24  O   UNL     1       0.002  -0.004   0.002  0.00  0.00    -0.495 OA
ENDBRANCH  17  24
ENDBRANCH  12  20
ENDBRANCH   1  14
BRANCH  10  25
ATOM     25  C   UNL     1       5.971  -4.841   5.558  0.00  0.00    +0.120 C 
BRANCH  25  26
ATOM     26  C   UNL     1       7.343  -4.659   6.156  0.00  0.00    -0.033 A 
ATOM     27  C   UNL     1       7.639  -3.513   6.871  0.00  0.00    +0.006 A 
ATOM     28  C   UNL     1       8.896  -3.345   7.419  0.00  0.00    +0.020 A 
ATOM     29  C   UNL     1       9.859  -4.325   7.253  0.00  0.00    +0.041 A 
ATOM     30  C   UNL     1       9.562  -5.472   6.538  0.00  0.00    +0.020 A 
ATOM     31  C   UNL     1       8.303  -5.640   5.995  0.00  0.00    +0.006 A 
ATOM     32 CL   UNL     1      11.439  -4.115   7.941  0.00  0.00    -0.084 Cl
ENDBRANCH  25  26
ENDBRANCH  10  25
TORSDOF 5
