REMARK  Name = ZINC50901436
REMARK  8 active torsions:
REMARK  status: ('A' for Active; 'I' for Inactive)
REMARK    1  A    between atoms: C_1  and  C_2
REMARK    2  A    between atoms: C_2  and  C_3
REMARK    3  A    between atoms: C_3  and  C_4
REMARK    4  A    between atoms: C_4  and  C_6
REMARK    5  A    between atoms: C_4  and  N_7
REMARK    6  A    between atoms: C_8  and  C_10
REMARK    7  A    between atoms: N_15  and  C_17
REMARK    8  A    between atoms: C_17  and  N_18
REMARK                            x       y       z     vdW  Elec       q    Type
REMARK                         _______ _______ _______ _____ _____    ______ ____
ROOT
ATOM      1  C   UNL     1      -2.325  -4.294   1.028  0.00  0.00    +0.058 C 
ATOM      2  C   UNL     1      -2.706  -4.362   2.510  0.00  0.00    +0.009 C 
ATOM      3  C   UNL     1      -4.107  -4.966   2.639  0.00  0.00    -0.018 C 
ATOM      4  C   UNL     1      -4.126  -6.343   1.973  0.00  0.00    -0.077 C 
ATOM      5  N   UNL     1      -3.779  -6.208   0.553  0.00  0.00    +0.391 N 
ATOM      6  C   UNL     1      -2.410  -5.696   0.420  0.00  0.00    -0.064 C 
ATOM      7  H   UNL     1      -4.421  -5.568   0.110  0.00  0.00    -0.079 HD
ENDROOT
BRANCH   1   9
ATOM      8  N   UNL     1      -0.605  -2.548   1.364  0.00  0.00    -0.313 N 
ATOM      9  C   UNL     1      -0.918  -3.772   0.893  0.00  0.00    +0.215 C 
ATOM     10  O   UNL     1      -0.066  -4.453   0.362  0.00  0.00    -0.276 OA
ATOM     11  H   UNL     1      -1.286  -2.004   1.789  0.00  0.00    +0.149 HD
BRANCH   8  12
ATOM     12  C   UNL     1       0.763  -2.041   1.233  0.00  0.00    +0.070 C 
ATOM     13  C   UNL     1       1.608  -2.546   2.404  0.00  0.00    +0.028 C 
BRANCH  12  14
ATOM     14  C   UNL     1       0.742  -0.511   1.242  0.00  0.00    +0.022 C 
BRANCH  14  16
ATOM     15  C   UNL     1      -0.019   1.526   0.010  0.00  0.00    +0.004 C 
ATOM     16  C   UNL     1       0.002  -0.004   0.002  0.00  0.00    -0.002 C 
ENDBRANCH  14  16
ENDBRANCH  12  14
ENDBRANCH   8  12
ENDBRANCH   1   9
BRANCH   5  17
ATOM     17  C   UNL     1      -3.874  -7.521  -0.100  0.00  0.00    +0.043 C 
BRANCH  17  18
ATOM     18  N   UNL     1      -5.267  -7.976  -0.082  0.00  0.00    -0.241 N 
ATOM     19  C   UNL     1      -5.811  -8.706   0.910  0.00  0.00    +0.245 C 
ATOM     20  O   UNL     1      -5.261  -9.097   1.917  0.00  0.00    -0.273 OA
ATOM     21  C   UNL     1      -7.258  -8.938   0.508  0.00  0.00    +0.112 C 
ATOM     22  C   UNL     1      -8.155  -8.186   1.518  0.00  0.00    +0.035 C 
ATOM     23  C   UNL     1      -9.480  -7.897   0.869  0.00  0.00    +0.003 C 
ATOM     24  C   UNL     1     -10.538  -8.977   1.171  0.00  0.00    +0.000 C 
ATOM     25  C   UNL     1      -9.969 -10.407   1.100  0.00  0.00    +0.000 C 
ATOM     26  C   UNL     1      -9.036 -10.593  -0.067  0.00  0.00    +0.003 C 
ATOM     27  C   UNL     1      -7.594 -10.353   0.420  0.00  0.00    +0.035 C 
ATOM     28  N   UNL     1      -7.363  -8.245  -0.793  0.00  0.00    -0.285 N 
ATOM     29  C   UNL     1      -6.156  -7.711  -1.046  0.00  0.00    +0.308 C 
ATOM     30  O   UNL     1      -5.899  -7.064  -2.042  0.00  0.00    -0.252 OA
ATOM     31  H   UNL     1      -8.152  -8.185  -1.354  0.00  0.00    +0.151 HD
ENDBRANCH  17  18
ENDBRANCH   5  17
TORSDOF 6
