REMARK  Name = ZINC33534732
REMARK  6 active torsions:
REMARK  status: ('A' for Active; 'I' for Inactive)
REMARK    1  A    between atoms: C_1  and  C_2
REMARK    2  A    between atoms: C_6  and  N_8
REMARK    3  A    between atoms: C_9  and  C_11
REMARK    4  A    between atoms: N_16  and  C_26
REMARK    5  A    between atoms: N_18  and  C_19
REMARK    6  A    between atoms: C_26  and  C_27
REMARK                            x       y       z     vdW  Elec       q    Type
REMARK                         _______ _______ _______ _____ _____    ______ ____
ROOT
ATOM      1  C   UNL     1      -0.129  -4.898   3.686  0.00  0.00    +0.149 C 
ATOM      2  C   UNL     1      -0.907  -6.198   3.471  0.00  0.00    +0.120 C 
ATOM      3  C   UNL     1      -0.861  -7.092   4.662  0.00  0.00    +0.223 C 
ATOM      4  O   UNL     1      -1.810  -7.834   4.800  0.00  0.00    -0.275 OA
ATOM      5  N   UNL     1       0.080  -7.184   5.591  0.00  0.00    -0.246 N 
ATOM      6  C   UNL     1       1.164  -6.331   5.688  0.00  0.00    +0.164 C 
ATOM      7  N   UNL     1       1.883  -6.262   6.783  0.00  0.00    -0.226 NA
ATOM      8  S   UNL     1       1.542  -5.333   4.272  0.00  0.00    -0.077 S 
ENDROOT
BRANCH   7   9
ATOM      9  C   UNL     1       2.951  -5.407   6.849  0.00  0.00    +0.067 A 
ATOM     10  C   UNL     1       3.850  -5.325   5.784  0.00  0.00    +0.028 A 
ATOM     11  C   UNL     1       4.923  -4.461   5.856  0.00  0.00    +0.002 A 
ATOM     12  C   UNL     1       5.109  -3.678   6.981  0.00  0.00    +0.000 A 
ATOM     13  C   UNL     1       4.223  -3.754   8.040  0.00  0.00    +0.002 A 
ATOM     14  C   UNL     1       3.142  -4.610   7.979  0.00  0.00    +0.028 A 
ENDBRANCH   7   9
BRANCH   1  16
ATOM     15  N   UNL     1       0.052  -2.797   2.393  0.00  0.00    -0.285 N 
ATOM     16  C   UNL     1      -0.031  -4.143   2.385  0.00  0.00    +0.231 C 
ATOM     17  O   UNL     1      -0.028  -4.745   1.333  0.00  0.00    -0.274 OA
ATOM     18  H   UNL     1       0.127  -2.321   3.234  0.00  0.00    +0.155 HD
BRANCH  15  24
ATOM     19  C   UNL     1       1.524   1.061  -0.275  0.00  0.00    +0.044 C 
ATOM     20  C   UNL     1       0.735  -0.215  -0.134  0.00  0.00    -0.049 A 
ATOM     21  C   UNL     1      -0.011  -0.687  -1.199  0.00  0.00    +0.003 A 
ATOM     22  C   UNL     1      -0.736  -1.857  -1.074  0.00  0.00    +0.002 A 
ATOM     23  C   UNL     1      -0.717  -2.559   0.116  0.00  0.00    +0.023 A 
ATOM     24  C   UNL     1       0.031  -2.089   1.186  0.00  0.00    +0.034 A 
ATOM     25  C   UNL     1       0.763  -0.915   1.056  0.00  0.00    +0.026 A 
ENDBRANCH  15  24
ENDBRANCH   1  16
BRANCH   5  26
ATOM     26  C   UNL     1      -0.036  -8.260   6.579  0.00  0.00    +0.150 C 
BRANCH  26  27
ATOM     27  C   UNL     1       0.675  -9.488   6.071  0.00  0.00    -0.029 A 
ATOM     28  C   UNL     1      -0.009 -10.418   5.311  0.00  0.00    +0.008 A 
ATOM     29  C   UNL     1       0.642 -11.544   4.845  0.00  0.00    +0.038 A 
ATOM     30  C   UNL     1       1.981 -11.740   5.138  0.00  0.00    +0.123 A 
ATOM     31  C   UNL     1       2.666 -10.807   5.899  0.00  0.00    +0.038 A 
ATOM     32  C   UNL     1       2.013  -9.680   6.360  0.00  0.00    +0.008 A 
ATOM     33  F   UNL     1       2.619 -12.840   4.683  0.00  0.00    -0.205 F 
ENDBRANCH  26  27
ENDBRANCH   5  26
TORSDOF 5
