REMARK  Name = ZINC50321692
REMARK  8 active torsions:
REMARK  status: ('A' for Active; 'I' for Inactive)
REMARK    1  A    between atoms: C_1  and  C_2
REMARK    2  A    between atoms: C_7  and  C_9
REMARK    3  A    between atoms: C_7  and  C_10
REMARK    4  A    between atoms: C_11  and  C_13
REMARK    5  A    between atoms: C_14  and  N_22
REMARK    6  A    between atoms: C_15  and  C_19
REMARK    7  A    between atoms: C_19  and  C_20
REMARK    8  A    between atoms: C_19  and  C_21
REMARK                            x       y       z     vdW  Elec       q    Type
REMARK                         _______ _______ _______ _____ _____    ______ ____
ROOT
ATOM      1  C   UNL     1      -0.165  -2.224  -3.339  0.00  0.00    +0.168 A 
ATOM      2  C   UNL     1      -0.707  -2.966  -4.420  0.00  0.00    +0.078 A 
ATOM      3  C   UNL     1      -1.236  -2.041  -5.264  0.00  0.00    +0.060 A 
ATOM      4  N   UNL     1      -1.016  -0.821  -4.707  0.00  0.00    -0.279 N 
ATOM      5  H   UNL     1      -1.290   0.024  -5.096  0.00  0.00    +0.189 HD
ATOM      6  N   UNL     1      -0.399  -0.950  -3.587  0.00  0.00    -0.167 NA
ENDROOT
BRANCH   1  16
ATOM      7  C   UNL     1      -0.089   1.498   0.047  0.00  0.00    +0.039 C 
ATOM      8  C   UNL     1      -0.042  -0.032   0.026  0.00  0.00    +0.133 C 
ATOM      9  C   UNL     1       0.684  -0.504  -1.239  0.00  0.00    +0.139 C 
ATOM     10  N   UNL     1       0.881  -1.959  -1.145  0.00  0.00    -0.291 N 
ATOM     11  C   UNL     1       1.481  -2.498   0.086  0.00  0.00    +0.142 C 
ATOM     12  C   UNL     1       0.716  -1.928   1.286  0.00  0.00    +0.080 C 
ATOM     13  O   UNL     1       0.661  -0.504   1.178  0.00  0.00    -0.368 OA
ATOM     14  C   UNL     1       1.435  -2.314   2.580  0.00  0.00    +0.043 C 
ATOM     15  C   UNL     1      -0.705  -2.494   1.302  0.00  0.00    +0.043 C 
ATOM     16  C   UNL     1       0.523  -2.775  -2.156  0.00  0.00    +0.269 C 
ATOM     17  O   UNL     1       0.767  -3.964  -2.094  0.00  0.00    -0.268 OA
ENDBRANCH   1  16
BRANCH   3  18
ATOM     18  C   UNL     1      -1.933  -2.316  -6.572  0.00  0.00    +0.033 C 
ATOM     19  C   UNL     1      -3.364  -1.779  -6.509  0.00  0.00    +0.014 C 
ATOM     20  C   UNL     1      -1.178  -1.623  -7.708  0.00  0.00    +0.014 C 
ENDBRANCH   3  18
BRANCH   2  21
ATOM     21  N   UNL     1      -0.698  -4.359  -4.584  0.00  0.00    -0.355 N 
ATOM     22  H   UNL     1      -0.288  -4.924  -3.910  0.00  0.00    +0.142 HD
ATOM     23  H   UNL     1      -1.101  -4.757  -5.371  0.00  0.00    +0.142 HD
ENDBRANCH   2  21
TORSDOF 3
