REMARK  Name = ZINC43548544
REMARK  10 active torsions:
REMARK  status: ('A' for Active; 'I' for Inactive)
REMARK    1  A    between atoms: C_1  and  C_2
REMARK    2  A    between atoms: N_9  and  C_10
REMARK    3  A    between atoms: C_10  and  C_11
REMARK    4  A    between atoms: C_11  and  C_12
REMARK    5  A    between atoms: C_19  and  C_41
REMARK    6  A    between atoms: C_22  and  O_40
REMARK    7  A    between atoms: C_24  and  C_28
REMARK    8  A    between atoms: C_28  and  C_30
REMARK    9  A    between atoms: C_28  and  C_31
REMARK   10  A    between atoms: N_36  and  C_39
REMARK                            x       y       z     vdW  Elec       q    Type
REMARK                         _______ _______ _______ _____ _____    ______ ____
ROOT
ATOM      1  C   UNL     1       1.039   1.688  -1.029  0.00  0.00    +0.014 C 
ATOM      2  C   UNL     1       0.572   0.248  -0.808  0.00  0.00    +0.042 C 
ATOM      3  C   UNL     1      -0.942   0.220  -0.677  0.00  0.00    +0.057 A 
ATOM      4  C   UNL     1      -1.541  -0.573   0.246  0.00  0.00    +0.015 A 
ATOM      5  S   UNL     1      -3.261  -0.241  -0.014  0.00  0.00    -0.057 S 
ATOM      6  C   UNL     1      -3.082   0.873  -1.265  0.00  0.00    +0.159 A 
ATOM      7  N   UNL     1      -1.778   0.939  -1.423  0.00  0.00    -0.229 NA
ATOM      8  N   UNL     1      -4.070   1.554  -1.960  0.00  0.00    -0.323 N 
ATOM      9  C   UNL     1      -0.882  -1.484   1.224  0.00  0.00    +0.051 C 
ATOM     10  C   UNL     1       0.585  -1.661   0.825  0.00  0.00    -0.022 C 
ATOM     11  C   UNL     1       1.203  -0.303   0.476  0.00  0.00    +0.033 C 
ATOM     12  C   UNL     1       2.701  -0.523   0.210  0.00  0.00    +0.123 C 
ATOM     13  C   UNL     1       2.855  -1.457  -0.993  0.00  0.00    +0.029 C 
ATOM     14  C   UNL     1       2.192  -2.803  -0.699  0.00  0.00    +0.007 C 
ATOM     15  C   UNL     1       0.709  -2.591  -0.380  0.00  0.00    +0.008 C 
ATOM     16  C   UNL     1       1.359  -2.256   2.003  0.00  0.00    +0.012 C 
ATOM     17  H   UNL     1      -3.827   2.174  -2.666  0.00  0.00    +0.148 HD
ENDROOT
BRANCH  13  18
ATOM     18  C   UNL     1       4.342  -1.677  -1.278  0.00  0.00    +0.078 C 
ATOM     19  C   UNL     1       5.007  -0.334  -1.585  0.00  0.00    +0.017 C 
BRANCH  18  20
ATOM     20  C   UNL     1       4.495  -2.596  -2.463  0.00  0.00    +0.219 C 
ATOM     21  O   UNL     1       3.628  -2.644  -3.309  0.00  0.00    -0.275 OA
ATOM     22  N   UNL     1       5.596  -3.365  -2.582  0.00  0.00    -0.299 N 
ATOM     23  C   UNL     1       6.708  -3.244  -1.627  0.00  0.00    +0.123 C 
ATOM     24  C   UNL     1       7.052  -4.641  -1.100  0.00  0.00    +0.103 C 
ATOM     25  N   UNL     1       7.303  -5.540  -2.235  0.00  0.00    -0.302 NA
ATOM     26  C   UNL     1       6.100  -5.701  -3.063  0.00  0.00    +0.103 C 
ATOM     27  C   UNL     1       5.714  -4.351  -3.666  0.00  0.00    +0.123 C 
ATOM     28  C   UNL     1       7.803  -6.842  -1.774  0.00  0.00    +0.105 C 
ENDBRANCH  18  20
ENDBRANCH  13  18
BRANCH  12  29
ATOM     29  O   UNL     1       3.310  -1.115   1.360  0.00  0.00    -0.391 OA
ATOM     30  H   UNL     1       4.257  -1.282   1.262  0.00  0.00    +0.210 HD
ENDBRANCH  12  29
BRANCH   8  31
ATOM     31  C   UNL     1      -5.480   1.339  -1.628  0.00  0.00    +0.109 C 
BRANCH  31  32
ATOM     32  C   UNL     1      -6.356   2.205  -2.535  0.00  0.00    +0.074 C 
BRANCH  32  33
ATOM     33  C   UNL     1      -7.807   1.983  -2.194  0.00  0.00    +0.043 A 
ATOM     34  C   UNL     1      -8.607   3.064  -1.876  0.00  0.00    +0.023 A 
ATOM     35  C   UNL     1      -9.941   2.849  -1.563  0.00  0.00    +0.003 A 
ATOM     36  C   UNL     1     -10.421   1.548  -1.582  0.00  0.00    +0.020 A 
ATOM     37  C   UNL     1      -9.562   0.517  -1.909  0.00  0.00    +0.111 A 
ATOM     38  N   UNL     1      -8.300   0.760  -2.206  0.00  0.00    -0.260 NA
ENDBRANCH  32  33
ENDBRANCH  31  32
ENDBRANCH   8  31
TORSDOF 6
