REMARK  Name = ZINC52596012
REMARK  8 active torsions:
REMARK  status: ('A' for Active; 'I' for Inactive)
REMARK    1  A    between atoms: C_1  and  C_2
REMARK    2  A    between atoms: C_2  and  C_3
REMARK    3  A    between atoms: C_3  and  C_4
REMARK    4  A    between atoms: C_8  and  C_36
REMARK    5  A    between atoms: C_10  and  C_35
REMARK    6  A    between atoms: N_13  and  C_14
REMARK    7  A    between atoms: C_14  and  C_15
REMARK    8  A    between atoms: C_29  and  C_30
REMARK                            x       y       z     vdW  Elec       q    Type
REMARK                         _______ _______ _______ _____ _____    ______ ____
ROOT
ATOM      1  C   UNL     1      -0.041  -3.418   4.219  0.00  0.00    -0.030 A 
ATOM      2  C   UNL     1      -1.395  -3.277   3.968  0.00  0.00    +0.006 A 
ATOM      3  C   UNL     1      -2.271  -4.279   4.326  0.00  0.00    +0.009 A 
ATOM      4  C   UNL     1      -1.795  -5.442   4.942  0.00  0.00    -0.011 A 
ATOM      5  C   UNL     1      -0.433  -5.580   5.186  0.00  0.00    -0.035 A 
ATOM      6  C   UNL     1       0.436  -4.567   4.820  0.00  0.00    +0.009 A 
ATOM      7  C   UNL     1       0.121  -6.817   5.831  0.00  0.00    +0.071 C 
ATOM      8  C   UNL     1      -0.104  -8.018   4.958  0.00  0.00    -0.036 A 
ATOM      9  C   UNL     1       0.992  -8.687   4.444  0.00  0.00    +0.004 A 
ATOM     10  C   UNL     1       0.820  -9.792   3.631  0.00  0.00    +0.000 A 
ATOM     11  C   UNL     1      -0.454 -10.239   3.325  0.00  0.00    +0.001 A 
ATOM     12  C   UNL     1      -1.555  -9.585   3.831  0.00  0.00    +0.008 A 
ATOM     13  C   UNL     1      -1.389  -8.464   4.660  0.00  0.00    -0.021 A 
ATOM     14  C   UNL     1      -2.575  -7.801   5.197  0.00  0.00    +0.020 C 
ATOM     15  C   UNL     1      -2.755  -6.490   5.321  0.00  0.00    +0.031 C 
ENDROOT
BRANCH  15  16
ATOM     16  C   UNL     1      -4.040  -6.044   5.893  0.00  0.00    +0.207 A 
ATOM     17  N   UNL     1      -4.428  -4.782   6.098  0.00  0.00    -0.106 NA
ATOM     18  N   UNL     1      -5.611  -4.820   6.611  0.00  0.00    -0.021 NA
ATOM     19  N   UNL     1      -5.981  -6.046   6.736  0.00  0.00    -0.021 NA
ATOM     20  N   UNL     1      -5.047  -6.821   6.301  0.00  0.00    -0.106 NA
ENDBRANCH  15  16
BRANCH   1  21
ATOM     21  C   UNL     1       0.914  -2.320   3.830  0.00  0.00    +0.143 C 
BRANCH  21  30
ATOM     22  C   UNL     1       0.763  -2.041   1.233  0.00  0.00    +0.160 C 
ATOM     23  N   UNL     1       1.598  -2.530   0.129  0.00  0.00    -0.323 N 
ATOM     24  C   UNL     1       2.640  -3.272   0.698  0.00  0.00    +0.070 A 
ATOM     25  C   UNL     1       3.702  -3.949   0.109  0.00  0.00    -0.025 A 
ATOM     26  C   UNL     1       4.602  -4.612   0.930  0.00  0.00    +0.026 A 
ATOM     27  C   UNL     1       4.417  -4.579   2.298  0.00  0.00    +0.015 A 
ATOM     28  N   UNL     1       3.401  -3.929   2.831  0.00  0.00    -0.346 N 
ATOM     29  C   UNL     1       2.515  -3.280   2.086  0.00  0.00    +0.122 A 
ATOM     30  N   UNL     1       1.387  -2.546   2.462  0.00  0.00    -0.292 N 
ATOM     31  C   UNL     1       5.392  -5.298   3.195  0.00  0.00    +0.063 C 
ATOM     32  C   UNL     1       3.870  -3.963  -1.389  0.00  0.00    +0.046 C 
ATOM     33  H   UNL     1       1.454  -2.370  -0.817  0.00  0.00    +0.148 HD
ATOM     34  H   UNL     1       3.299  -3.926   3.796  0.00  0.00    +0.167 HD
BRANCH  22  35
ATOM     35  C   UNL     1       0.742  -0.511   1.242  0.00  0.00    +0.042 C 
BRANCH  35  37
ATOM     36  C   UNL     1      -0.019   1.526   0.010  0.00  0.00    +0.004 C 
ATOM     37  C   UNL     1       0.002  -0.004   0.002  0.00  0.00    +0.000 C 
ENDBRANCH  35  37
ENDBRANCH  22  35
ENDBRANCH  21  30
ENDBRANCH   1  21
TORSDOF 5
