REMARK  Name = ZINC47777640
REMARK  9 active torsions:
REMARK  status: ('A' for Active; 'I' for Inactive)
REMARK    1  A    between atoms: C_1  and  C_2
REMARK    2  A    between atoms: C_2  and  N_3
REMARK    3  A    between atoms: C_4  and  C_6
REMARK    4  A    between atoms: C_9  and  C_12
REMARK    5  A    between atoms: C_12  and  N_13
REMARK    6  A    between atoms: N_16  and  C_17
REMARK    7  A    between atoms: C_17  and  C_18
REMARK    8  A    between atoms: C_18  and  C_19
REMARK    9  A    between atoms: C_18  and  N_24
REMARK                            x       y       z     vdW  Elec       q    Type
REMARK                         _______ _______ _______ _____ _____    ______ ____
ROOT
ATOM      1  N   UNL     1       5.043  -4.213  -5.395  0.00  0.00    -0.295 N 
ATOM      2  C   UNL     1       5.804  -4.497  -6.470  0.00  0.00    +0.300 C 
ATOM      3  O   UNL     1       5.282  -4.682  -7.553  0.00  0.00    -0.253 OA
ATOM      4  N   UNL     1       7.144  -4.576  -6.346  0.00  0.00    -0.301 N 
ATOM      5  H   UNL     1       5.460  -4.066  -4.531  0.00  0.00    +0.151 HD
ATOM      6  H   UNL     1       7.561  -4.428  -5.482  0.00  0.00    +0.150 HD
ENDROOT
BRANCH   1   7
ATOM      7  C   UNL     1       3.587  -4.128  -5.530  0.00  0.00    +0.141 C 
BRANCH   7  11
ATOM      8  C   UNL     1       1.855  -3.199  -1.732  0.00  0.00    +0.037 A 
ATOM      9  C   UNL     1       2.231  -2.173  -2.600  0.00  0.00    +0.013 A 
ATOM     10  C   UNL     1       2.789  -2.480  -3.824  0.00  0.00    +0.006 A 
ATOM     11  C   UNL     1       2.977  -3.800  -4.191  0.00  0.00    -0.030 A 
ATOM     12  C   UNL     1       2.606  -4.822  -3.335  0.00  0.00    +0.006 A 
ATOM     13  C   UNL     1       2.052  -4.529  -2.106  0.00  0.00    +0.013 A 
BRANCH   8  15
ATOM     14  N   UNL     1       1.067  -1.593  -0.060  0.00  0.00    -0.312 N 
ATOM     15  C   UNL     1       1.256  -2.878  -0.419  0.00  0.00    +0.244 C 
ATOM     16  O   UNL     1       0.934  -3.774   0.338  0.00  0.00    -0.270 OA
ATOM     17  H   UNL     1       1.324  -0.878  -0.664  0.00  0.00    +0.149 HD
BRANCH  14  19
ATOM     18  C   UNL     1       0.371   0.244   1.397  0.00  0.00    +0.024 C 
ATOM     19  C   UNL     1       0.474  -1.275   1.241  0.00  0.00    +0.101 C 
ENDBRANCH  14  19
ENDBRANCH   8  15
ENDBRANCH   7  11
ENDBRANCH   1   7
BRANCH   4  20
ATOM     20  C   UNL     1       7.971  -4.885  -7.515  0.00  0.00    +0.098 C 
BRANCH  20  21
ATOM     21  C   UNL     1       9.450  -4.785  -7.134  0.00  0.00    +0.016 C 
BRANCH  21  22
ATOM     22  N   UNL     1       9.716  -3.467  -6.544  0.00  0.00    +0.387 N 
ATOM     23  C   UNL     1       9.398  -2.421  -7.524  0.00  0.00    -0.078 C 
ATOM     24  C   UNL     1       9.596  -1.043  -6.888  0.00  0.00    -0.019 C 
ATOM     25  C   UNL     1      11.054  -0.899  -6.440  0.00  0.00    -0.004 C 
ATOM     26  C   UNL     1      11.396  -2.038  -5.475  0.00  0.00    -0.019 C 
ATOM     27  C   UNL     1      11.131  -3.379  -6.164  0.00  0.00    -0.078 C 
ATOM     28  H   UNL     1       9.140  -3.343  -5.725  0.00  0.00    -0.081 HD
ENDBRANCH  21  22
BRANCH  21  29
ATOM     29  C   UNL     1       9.784  -5.860  -6.132  0.00  0.00    +0.093 A 
ATOM     30  C   UNL     1      10.394  -7.028  -6.405  0.00  0.00    +0.043 A 
ATOM     31  C   UNL     1      10.507  -7.727  -5.181  0.00  0.00    +0.041 A 
ATOM     32  C   UNL     1       9.959  -6.944  -4.234  0.00  0.00    +0.195 A 
ATOM     33  O   UNL     1       9.528  -5.813  -4.814  0.00  0.00    -0.469 OA
ENDBRANCH  21  29
ENDBRANCH  20  21
ENDBRANCH   4  20
TORSDOF 8
