REMARK  Name = ZINC44019589
REMARK  9 active torsions:
REMARK  status: ('A' for Active; 'I' for Inactive)
REMARK    1  A    between atoms: C_5  and  C_7
REMARK    2  A    between atoms: C_7  and  C_9
REMARK    3  A    between atoms: C_7  and  N_29
REMARK    4  A    between atoms: C_9  and  O_11
REMARK    5  A    between atoms: O_11  and  C_12
REMARK    6  A    between atoms: C_14  and  O_28
REMARK    7  A    between atoms: C_16  and  O_27
REMARK    8  A    between atoms: C_18  and  O_26
REMARK    9  A    between atoms: C_20  and  C_23
REMARK                            x       y       z     vdW  Elec       q    Type
REMARK                         _______ _______ _______ _____ _____    ______ ____
ROOT
ATOM      1  C   UNL     1       1.624  -2.689  -1.386  0.00  0.00    +0.331 C 
ATOM      2  O   UNL     1       0.904  -3.458  -1.978  0.00  0.00    -0.249 OA
ENDROOT
BRANCH   1   3
ATOM      3  C   UNL     1       1.229  -2.186  -0.022  0.00  0.00    +0.199 C 
BRANCH   3   4
ATOM      4  N   UNL     1       0.488  -3.235   0.692  0.00  0.00    -0.282 NA
ATOM      5  C   UNL     1       0.125  -2.795   2.046  0.00  0.00    +0.091 C 
ATOM      6  C   UNL     1      -0.973  -3.724   2.591  0.00  0.00    +0.058 C 
ATOM      7  C   UNL     1      -0.556  -5.132   2.316  0.00  0.00    -0.005 A 
ATOM      8  C   UNL     1       0.437  -5.537   1.477  0.00  0.00    -0.023 A 
ATOM      9  C   UNL     1       0.650  -6.910   1.381  0.00  0.00    +0.013 A 
ATOM     10  C   UNL     1      -0.114  -7.765   2.100  0.00  0.00    +0.046 A 
ATOM     11  S   UNL     1      -1.201  -6.645   2.971  0.00  0.00    -0.101 S 
ATOM     12  C   UNL     1       1.242  -4.495   0.704  0.00  0.00    +0.121 C 
ENDBRANCH   3   4
BRANCH   3  17
ATOM     13  C   UNL     1      -1.821   0.014  -0.360  0.00  0.00    +0.000 A 
ATOM     14  C   UNL     1      -1.248   1.270  -0.443  0.00  0.00    +0.001 A 
ATOM     15  C   UNL     1       0.126   1.408  -0.389  0.00  0.00    +0.020 A 
ATOM     16  C   UNL     1       0.929   0.289  -0.253  0.00  0.00    +0.046 A 
ATOM     17  C   UNL     1       0.355  -0.967  -0.170  0.00  0.00    -0.001 A 
ATOM     18  C   UNL     1      -1.019  -1.104  -0.224  0.00  0.00    +0.007 A 
ATOM     19 CL   UNL     1       2.655   0.462  -0.186  0.00  0.00    -0.083 Cl
ENDBRANCH   3  17
ENDBRANCH   1   3
BRANCH   1  20
ATOM     20  O   UNL     1       2.776  -2.284  -1.943  0.00  0.00    -0.431 OA
BRANCH  20  21
ATOM     21  C   UNL     1       3.087  -2.801  -3.238  0.00  0.00    +0.343 C 
ATOM     22  C   UNL     1       4.529  -2.435  -3.601  0.00  0.00    +0.214 C 
ATOM     23  C   UNL     1       4.659  -0.910  -3.666  0.00  0.00    +0.180 C 
ATOM     24  C   UNL     1       3.648  -0.365  -4.680  0.00  0.00    +0.186 C 
ATOM     25  C   UNL     1       2.240  -0.811  -4.275  0.00  0.00    +0.266 C 
ATOM     26  O   UNL     1       2.196  -2.238  -4.204  0.00  0.00    -0.322 OA
BRANCH  25  27
ATOM     27  C   UNL     1       1.246  -0.329  -5.300  0.00  0.00    +0.387 C 
ATOM     28  O   UNL     1       0.628  -1.133  -5.976  0.00  0.00    -0.243 OA
ATOM     29  O   UNL     1       1.059   0.866  -5.452  0.00  0.00    -0.243 OA
ENDBRANCH  25  27
BRANCH  24  30
ATOM     30  O   UNL     1       3.955  -0.871  -5.980  0.00  0.00    -0.386 OA
ATOM     31  H   UNL     1       3.353  -0.566  -6.673  0.00  0.00    +0.210 HD
ENDBRANCH  24  30
BRANCH  23  32
ATOM     32  O   UNL     1       4.394  -0.352  -2.377  0.00  0.00    -0.386 OA
ATOM     33  H   UNL     1       4.995  -0.660  -1.685  0.00  0.00    +0.210 HD
ENDBRANCH  23  32
BRANCH  22  34
ATOM     34  O   UNL     1       4.859  -2.998  -4.872  0.00  0.00    -0.383 OA
ATOM     35  H   UNL     1       4.794  -3.962  -4.904  0.00  0.00    +0.210 HD
ENDBRANCH  22  34
ENDBRANCH  20  21
ENDBRANCH   1  20
TORSDOF 9
