REMARK  Name = ZINC08601982
REMARK  8 active torsions:
REMARK  status: ('A' for Active; 'I' for Inactive)
REMARK    1  A    between atoms: C_1  and  O_2
REMARK    2  A    between atoms: O_2  and  C_3
REMARK    3  A    between atoms: C_3  and  C_5
REMARK    4  A    between atoms: C_10  and  C_12
REMARK    5  A    between atoms: C_10  and  C_19
REMARK    6  A    between atoms: C_10  and  N_53
REMARK    7  A    between atoms: C_20  and  O_32
REMARK    8  A    between atoms: C_25  and  C_27
REMARK                            x       y       z     vdW  Elec       q    Type
REMARK                         _______ _______ _______ _____ _____    ______ ____
ROOT
ATOM      1  C   UNL     1      -2.524   1.637   0.023  0.00  0.00    +0.007 C 
ENDROOT
BRANCH   1   2
ATOM      2  C   UNL     1      -2.865   1.181   1.418  0.00  0.00    +0.045 A 
ATOM      3  C   UNL     1      -2.699  -0.023   1.978  0.00  0.00    +0.225 A 
ATOM      4  N   UNL     1      -3.076  -0.249   3.279  0.00  0.00    -0.173 N 
ATOM      5  C   UNL     1      -3.621   0.802   3.962  0.00  0.00    +0.199 A 
ATOM      6  S   UNL     1      -3.592   2.111   2.760  0.00  0.00    -0.050 S 
ATOM      7  N   UNL     1      -3.924   0.430   5.174  0.00  0.00    -0.197 NA
ATOM      8  C   UNL     1      -3.597  -0.859   5.337  0.00  0.00    +0.218 A 
ATOM      9  N   UNL     1      -3.079  -1.315   4.216  0.00  0.00    -0.138 NA
BRANCH   8  10
ATOM     10  C   UNL     1      -3.786  -1.643   6.575  0.00  0.00    +0.173 A 
ATOM     11  C   UNL     1      -4.320  -1.181   7.737  0.00  0.00    +0.053 A 
ATOM     12  C   UNL     1      -4.310  -2.259   8.645  0.00  0.00    +0.042 A 
ATOM     13  C   UNL     1      -3.775  -3.314   7.999  0.00  0.00    +0.196 A 
ATOM     14  O   UNL     1      -3.466  -2.939   6.747  0.00  0.00    -0.460 OA
ENDBRANCH   8  10
BRANCH   3  15
ATOM     15  O   UNL     1      -2.151  -1.033   1.250  0.00  0.00    -0.492 OA
ATOM     16  H   UNL     1      -1.188  -1.086   1.314  0.00  0.00    +0.294 HD
ENDBRANCH   3  15
ENDBRANCH   1   2
BRANCH   1  22
ATOM     17  C   UNL     1      -5.894   2.624  -2.416  0.00  0.00    +0.094 C 
ATOM     18  C   UNL     1      -4.612   3.455  -2.529  0.00  0.00    -0.004 C 
ATOM     19  C   UNL     1      -3.435   2.644  -1.980  0.00  0.00    -0.077 C 
ATOM     20  C   UNL     1      -4.891   1.458  -0.449  0.00  0.00    -0.077 C 
ATOM     21  C   UNL     1      -6.112   2.233  -0.952  0.00  0.00    -0.004 C 
ATOM     22  N   UNL     1      -3.696   2.320  -0.562  0.00  0.00    +0.388 N 
ATOM     23  H   UNL     1      -3.864   3.192  -0.046  0.00  0.00    -0.080 HD
BRANCH  17  24
ATOM     24  C   UNL     1      -7.066   3.438  -2.901  0.00  0.00    +0.310 C 
ATOM     25  O   UNL     1      -6.895   4.567  -3.296  0.00  0.00    -0.251 OA
BRANCH  24  27
ATOM     26  C   UNL     1      -9.380   3.751  -3.374  0.00  0.00    +0.280 C 
ATOM     27  O   UNL     1      -8.299   2.910  -2.893  0.00  0.00    -0.468 OA
ENDBRANCH  24  27
ENDBRANCH  17  24
ENDBRANCH   1  22
BRANCH   1  28
ATOM     28  C   UNL     1      -1.373   2.608   0.079  0.00  0.00    -0.038 A 
ATOM     29  C   UNL     1      -1.618   3.967   0.152  0.00  0.00    +0.004 A 
ATOM     30  C   UNL     1      -0.563   4.858   0.198  0.00  0.00    +0.000 A 
ATOM     31  C   UNL     1       0.738   4.392   0.177  0.00  0.00    +0.001 A 
ATOM     32  C   UNL     1       0.985   3.034   0.110  0.00  0.00    +0.020 A 
ATOM     33  C   UNL     1      -0.071   2.140   0.064  0.00  0.00    +0.043 A 
ATOM     34 CL   UNL     1       0.237   0.434  -0.019  0.00  0.00    -0.083 Cl
ENDBRANCH   1  28
TORSDOF 7
