REMARK  Name = ZINC08707721
REMARK  6 active torsions:
REMARK  status: ('A' for Active; 'I' for Inactive)
REMARK    1  A    between atoms: C_1  and  C_2
REMARK    2  A    between atoms: C_12  and  C_14
REMARK    3  A    between atoms: C_14  and  C_16
REMARK    4  A    between atoms: C_14  and  S_17
REMARK    5  A    between atoms: S_17  and  C_18
REMARK    6  A    between atoms: C_22  and  N_23
REMARK                            x       y       z     vdW  Elec       q    Type
REMARK                         _______ _______ _______ _____ _____    ______ ____
ROOT
ATOM      1  C   UNL     1       3.873  -1.392  -0.001  0.00  0.00    +0.137 C 
ATOM      2  C   UNL     1       3.701  -0.435  -1.183  0.00  0.00    +0.029 C 
ENDROOT
BRANCH   1  13
ATOM      3  C   UNL     1       7.950  -2.496   1.484  0.00  0.00    +0.029 C 
ATOM      4  C   UNL     1       7.699  -1.322   0.535  0.00  0.00    +0.083 C 
ATOM      5  C   UNL     1       8.372  -0.047   1.069  0.00  0.00    +0.059 C 
ATOM      6  C   UNL     1       7.232   0.920   1.294  0.00  0.00    -0.024 A 
ATOM      7  C   UNL     1       7.226   2.219   1.766  0.00  0.00    +0.005 A 
ATOM      8  C   UNL     1       6.034   2.908   1.884  0.00  0.00    +0.000 A 
ATOM      9  C   UNL     1       4.846   2.296   1.528  0.00  0.00    +0.002 A 
ATOM     10  C   UNL     1       4.848   1.001   1.056  0.00  0.00    +0.024 A 
ATOM     11  C   UNL     1       6.048   0.297   0.934  0.00  0.00    +0.040 A 
ATOM     12  N   UNL     1       6.268  -1.008   0.483  0.00  0.00    -0.267 N 
ATOM     13  C   UNL     1       5.306  -1.854   0.066  0.00  0.00    +0.233 C 
ATOM     14  O   UNL     1       5.593  -2.988  -0.254  0.00  0.00    -0.274 OA
ENDBRANCH   1  13
BRANCH   1  15
ATOM     15  S   UNL     1       2.787  -2.823  -0.221  0.00  0.00    -0.073 S 
BRANCH  15  16
ATOM     16  C   UNL     1       1.215  -2.033  -0.116  0.00  0.00    +0.192 A 
ATOM     17  N   UNL     1       0.080  -2.781  -0.235  0.00  0.00    -0.207 NA
ATOM     18  C   UNL     1      -1.155  -2.186  -0.156  0.00  0.00    +0.122 A 
ATOM     19  C   UNL     1      -1.232  -0.842   0.042  0.00  0.00    +0.086 A 
ATOM     20  C   UNL     1      -0.030  -0.099   0.161  0.00  0.00    +0.122 A 
ATOM     21  N   UNL     1       1.158  -0.733   0.070  0.00  0.00    -0.207 NA
ATOM     22  N   UNL     1      -2.303  -2.940  -0.275  0.00  0.00    -0.343 N 
ATOM     23  H   UNL     1      -3.288  -2.456  -0.211  0.00  0.00    +0.144 HD
ATOM     24  H   UNL     1      -2.233  -4.026  -0.435  0.00  0.00    +0.144 HD
BRANCH  20  25
ATOM     25  N   UNL     1      -0.072   1.209   0.354  0.00  0.00    -0.343 N 
ATOM     26  H   UNL     1       0.862   1.782   0.446  0.00  0.00    +0.144 HD
ATOM     27  H   UNL     1      -1.042   1.724   0.423  0.00  0.00    +0.144 HD
ENDBRANCH  20  25
ENDBRANCH  15  16
ENDBRANCH   1  15
TORSDOF 4
