REMARK  Name = ZINC33526041
REMARK  7 active torsions:
REMARK  status: ('A' for Active; 'I' for Inactive)
REMARK    1  A    between atoms: C_6  and  C_7
REMARK    2  A    between atoms: N_8  and  N_9
REMARK    3  A    between atoms: N_11  and  C_28
REMARK    4  A    between atoms: C_14  and  C_17
REMARK    5  A    between atoms: C_17  and  C_18
REMARK    6  A    between atoms: N_20  and  C_21
REMARK    7  A    between atoms: C_31  and  O_34
REMARK                            x       y       z     vdW  Elec       q    Type
REMARK                         _______ _______ _______ _____ _____    ______ ____
ROOT
ATOM      1  N   UNL     1       5.352  -7.037   2.708  0.00  0.00    -0.126 NA
ATOM      2  C   UNL     1       4.979  -6.241   1.727  0.00  0.00    +0.190 C 
ATOM      3  N   UNL     1       4.930  -6.519   0.377  0.00  0.00    -0.217 N 
ATOM      4  C   UNL     1       4.533  -5.626  -0.516  0.00  0.00    +0.239 C 
ATOM      5  O   UNL     1       4.492  -5.873  -1.702  0.00  0.00    -0.274 OA
ATOM      6  C   UNL     1       4.131  -4.270   0.041  0.00  0.00    +0.149 C 
ATOM      7  S   UNL     1       4.415  -4.549   1.833  0.00  0.00    -0.075 S 
ENDROOT
BRANCH   3   8
ATOM      8  C   UNL     1       5.316  -7.792  -0.067  0.00  0.00    +0.043 A 
ATOM      9  C   UNL     1       6.639  -8.196   0.046  0.00  0.00    +0.027 A 
ATOM     10  C   UNL     1       7.017  -9.451  -0.386  0.00  0.00    +0.047 A 
ATOM     11  C   UNL     1       6.077 -10.306  -0.942  0.00  0.00    +0.117 A 
ATOM     12  C   UNL     1       4.755  -9.901  -1.061  0.00  0.00    +0.047 A 
ATOM     13  C   UNL     1       4.375  -8.648  -0.624  0.00  0.00    +0.027 A 
BRANCH  11  14
ATOM     14  O   UNL     1       6.450 -11.541  -1.372  0.00  0.00    -0.507 OA
ATOM     15  H   UNL     1       5.705 -12.219  -1.813  0.00  0.00    +0.292 HD
ENDBRANCH  11  14
ENDBRANCH   3   8
BRANCH   1  17
ATOM     16  C   UNL     1       6.693  -8.814   3.014  0.00  0.00    +0.143 C 
ATOM     17  N   UNL     1       5.642  -8.270   2.463  0.00  0.00    -0.155 NA
BRANCH  16  23
ATOM     18  C   UNL     1       6.040 -11.053   2.147  0.00  0.00    +0.011 A 
ATOM     19  C   UNL     1       6.295 -12.397   1.980  0.00  0.00    +0.020 A 
ATOM     20  C   UNL     1       7.449 -12.957   2.502  0.00  0.00    +0.041 A 
ATOM     21  C   UNL     1       8.358 -12.170   3.190  0.00  0.00    +0.020 A 
ATOM     22  C   UNL     1       8.119 -10.823   3.361  0.00  0.00    +0.011 A 
ATOM     23  C   UNL     1       6.956 -10.251   2.836  0.00  0.00    -0.005 A 
ATOM     24 CL   UNL     1       7.759 -14.652   2.292  0.00  0.00    -0.084 Cl
ENDBRANCH  16  23
ENDBRANCH   1  17
BRANCH   6  25
ATOM     25  C   UNL     1       2.659  -3.968  -0.246  0.00  0.00    +0.120 C 
BRANCH  25  26
ATOM     26  C   UNL     1       2.311  -2.605   0.295  0.00  0.00    +0.219 C 
ATOM     27  O   UNL     1       3.157  -1.941   0.855  0.00  0.00    -0.275 OA
ATOM     28  N   UNL     1       1.059  -2.124   0.156  0.00  0.00    -0.285 N 
ATOM     29  H   UNL     1       0.271  -2.759  -0.274  0.00  0.00    +0.155 HD
BRANCH  28  30
ATOM     30  C   UNL     1       0.763  -0.817   0.560  0.00  0.00    +0.033 A 
ATOM     31  C   UNL     1       1.757   0.153   0.561  0.00  0.00    +0.025 A 
ATOM     32  C   UNL     1       1.462   1.442   0.960  0.00  0.00    +0.022 A 
ATOM     33  C   UNL     1       0.177   1.767   1.359  0.00  0.00    +0.041 A 
ATOM     34  C   UNL     1      -0.815   0.802   1.359  0.00  0.00    +0.022 A 
ATOM     35  C   UNL     1      -0.525  -0.488   0.961  0.00  0.00    +0.025 A 
ATOM     36 CL   UNL     1      -0.190   3.388   1.861  0.00  0.00    -0.084 Cl
ENDBRANCH  28  30
ENDBRANCH  25  26
ENDBRANCH   6  25
TORSDOF 7
