REMARK  Name = ZINC01868688
REMARK  5 active torsions:
REMARK  status: ('A' for Active; 'I' for Inactive)
REMARK    1  A    between atoms: C_4  and  C_7
REMARK    2  A    between atoms: C_18  and  C_19
REMARK    3  A    between atoms: C_21  and  C_34
REMARK    4  A    between atoms: C_25  and  C_27
REMARK    5  A    between atoms: C_38  and  N_40
REMARK                            x       y       z     vdW  Elec       q    Type
REMARK                         _______ _______ _______ _____ _____    ______ ____
ROOT
ATOM      1  C   UNL     1       3.138   3.933   2.083  0.00  0.00    +0.056 C 
ATOM      2  C   UNL     1       3.441   4.447   3.276  0.00  0.00    +0.027 C 
ATOM      3  C   UNL     1       3.825   3.296   4.178  0.00  0.00    +0.152 C 
ATOM      4  N   UNL     1       3.703   2.098   3.331  0.00  0.00    -0.207 N 
ATOM      5  N   UNL     1       3.283   2.553   2.074  0.00  0.00    -0.260 N 
ATOM      6  C   UNL     1       3.946   0.823   3.692  0.00  0.00    +0.265 C 
ATOM      7  O   UNL     1       3.842  -0.071   2.874  0.00  0.00    -0.268 OA
ATOM      8  H   UNL     1       3.118   1.983   1.306  0.00  0.00    +0.170 HD
ENDROOT
BRANCH   1  20
ATOM      9  C   UNL     1       1.523   5.461   0.959  0.00  0.00    +0.005 A 
ATOM     10  C   UNL     1       1.140   6.236  -0.230  0.00  0.00    +0.008 A 
ATOM     11  C   UNL     1      -0.038   6.990  -0.238  0.00  0.00    +0.030 A 
ATOM     12  C   UNL     1      -0.378   7.714  -1.360  0.00  0.00    +0.042 A 
ATOM     13  C   UNL     1       0.447   7.703  -2.477  0.00  0.00    +0.022 A 
ATOM     14  C   UNL     1       1.614   6.971  -2.482  0.00  0.00    +0.028 A 
ATOM     15  C   UNL     1       1.977   6.231  -1.359  0.00  0.00    +0.050 A 
ATOM     16  N   UNL     1       3.146   5.496  -1.361  0.00  0.00    -0.322 N 
ATOM     17  H   UNL     1       3.724   5.503  -2.177  0.00  0.00    +0.169 HD
ATOM     18  C   UNL     1       3.526   4.771  -0.295  0.00  0.00    +0.259 A 
ATOM     19  O   UNL     1       4.566   4.137  -0.341  0.00  0.00    -0.267 OA
ATOM     20  C   UNL     1       2.710   4.732   0.918  0.00  0.00    +0.070 A 
ATOM     21 CL   UNL     1      -1.843   8.645  -1.376  0.00  0.00    -0.084 Cl
BRANCH   9  25
ATOM     22  C   UNL     1      -0.935   5.429   4.423  0.00  0.00    +0.000 A 
ATOM     23  C   UNL     1      -0.277   6.590   4.056  0.00  0.00    +0.001 A 
ATOM     24  C   UNL     1       0.522   6.607   2.932  0.00  0.00    +0.008 A 
ATOM     25  C   UNL     1       0.668   5.450   2.164  0.00  0.00    -0.016 A 
ATOM     26  C   UNL     1       0.002   4.281   2.541  0.00  0.00    +0.008 A 
ATOM     27  C   UNL     1      -0.795   4.278   3.667  0.00  0.00    +0.001 A 
ENDBRANCH   9  25
ENDBRANCH   1  20
BRANCH   6  28
ATOM     28  C   UNL     1       4.339   0.510   5.081  0.00  0.00    +0.057 A 
ATOM     29  C   UNL     1       4.318   1.507   6.058  0.00  0.00    +0.014 A 
ATOM     30  C   UNL     1       4.686   1.209   7.353  0.00  0.00    +0.001 A 
ATOM     31  C   UNL     1       5.076  -0.077   7.687  0.00  0.00    +0.001 A 
ATOM     32  C   UNL     1       5.100  -1.071   6.726  0.00  0.00    +0.021 A 
ATOM     33  C   UNL     1       4.728  -0.787   5.426  0.00  0.00    +0.053 A 
ATOM     34 CL   UNL     1       4.751  -2.037   4.221  0.00  0.00    -0.083 Cl
ENDBRANCH   6  28
BRANCH   3  35
ATOM     35  C   UNL     1       5.245   3.459   4.655  0.00  0.00    -0.019 A 
ATOM     36  C   UNL     1       6.296   3.094   3.834  0.00  0.00    +0.006 A 
ATOM     37  C   UNL     1       7.599   3.248   4.269  0.00  0.00    +0.003 A 
ATOM     38  C   UNL     1       7.851   3.757   5.529  0.00  0.00    +0.033 A 
ATOM     39  C   UNL     1       6.801   4.117   6.352  0.00  0.00    +0.127 A 
ATOM     40  C   UNL     1       5.498   3.968   5.915  0.00  0.00    +0.038 A 
BRANCH  39  41
ATOM     41  N   UNL     1       7.071   4.662   7.701  0.00  0.00    +0.056 N 
ATOM     42  O   UNL     1       6.145   4.980   8.427  0.00  0.00    -0.126 OA
ATOM     43  O   UNL     1       8.219   4.794   8.086  0.00  0.00    -0.126 OA
ENDBRANCH  39  41
ENDBRANCH   3  35
TORSDOF 5
