REMARK  Name = ZINC08868835
REMARK  10 active torsions:
REMARK  status: ('A' for Active; 'I' for Inactive)
REMARK    1  A    between atoms: C_1  and  C_2
REMARK    2  A    between atoms: C_5  and  S_8
REMARK    3  A    between atoms: S_8  and  N_11
REMARK    4  A    between atoms: C_15  and  C_17
REMARK    5  A    between atoms: N_19  and  C_20
REMARK    6  A    between atoms: C_20  and  C_21
REMARK    7  A    between atoms: C_21  and  C_22
REMARK    8  A    between atoms: C_22  and  N_63
REMARK    9  A    between atoms: C_23  and  N_63
REMARK   10  A    between atoms: C_24  and  N_63
REMARK                            x       y       z     vdW  Elec       q    Type
REMARK                         _______ _______ _______ _____ _____    ______ ____
ROOT
ATOM      1  C   UNL     1      -0.427  -0.039   3.065  0.00  0.00    +0.240 C 
ATOM      2  O   UNL     1      -0.218  -0.089   4.258  0.00  0.00    -0.273 OA
ATOM      3  N   UNL     1       0.327   0.758   2.282  0.00  0.00    -0.249 N 
ATOM      4  C   UNL     1       1.405   1.440   2.822  0.00  0.00    +0.168 A 
ATOM      5  N   UNL     1       2.193   2.320   2.250  0.00  0.00    -0.221 NA
ATOM      6  C   UNL     1       3.215   2.914   2.905  0.00  0.00    +0.115 A 
ATOM      7  C   UNL     1       4.129   3.875   2.410  0.00  0.00    +0.150 A 
ATOM      8  C   UNL     1       5.121   4.377   3.214  0.00  0.00    +0.040 A 
ATOM      9  C   UNL     1       5.264   3.965   4.531  0.00  0.00    +0.004 A 
ATOM     10  C   UNL     1       4.389   3.027   5.046  0.00  0.00    +0.017 A 
ATOM     11  C   UNL     1       3.392   2.519   4.249  0.00  0.00    +0.044 A 
ATOM     12  S   UNL     1       2.083   1.338   4.473  0.00  0.00    -0.052 S 
ATOM     13  F   UNL     1       4.023   4.303   1.133  0.00  0.00    -0.203 F 
ENDROOT
BRANCH   1  18
ATOM     14  N   UNL     1      -1.712  -2.103   3.232  0.00  0.00    -0.165 NA
ATOM     15  C   UNL     1      -3.078  -2.118   3.785  0.00  0.00    +0.110 C 
ATOM     16  C   UNL     1      -3.896  -1.199   2.844  0.00  0.00    +0.019 C 
ATOM     17  C   UNL     1      -2.862  -0.091   2.514  0.00  0.00    +0.031 C 
ATOM     18  C   UNL     1      -1.530  -0.867   2.457  0.00  0.00    +0.166 C 
BRANCH  14  19
ATOM     19  S   UNL     1      -0.571  -3.284   3.447  0.00  0.00    +0.062 S 
ATOM     20  O   UNL     1      -1.276  -4.483   3.739  0.00  0.00    -0.153 OA
ATOM     21  O   UNL     1       0.333  -3.179   2.356  0.00  0.00    -0.153 OA
BRANCH  19  26
ATOM     22  C   UNL     1       2.551  -1.868   8.413  0.00  0.00    +0.044 C 
ATOM     23  C   UNL     1       1.771  -2.221   7.173  0.00  0.00    -0.050 A 
ATOM     24  C   UNL     1       0.639  -3.010   7.269  0.00  0.00    +0.005 A 
ATOM     25  C   UNL     1      -0.076  -3.334   6.131  0.00  0.00    +0.029 A 
ATOM     26  C   UNL     1       0.341  -2.870   4.897  0.00  0.00    +0.106 A 
ATOM     27  C   UNL     1       1.475  -2.086   4.801  0.00  0.00    +0.029 A 
ATOM     28  C   UNL     1       2.187  -1.758   5.939  0.00  0.00    +0.005 A 
ENDBRANCH  19  26
ENDBRANCH  14  19
ENDBRANCH   1  18
BRANCH   3  29
ATOM     29  C   UNL     1       0.006   0.904   0.860  0.00  0.00    +0.114 C 
BRANCH  29  30
ATOM     30  C   UNL     1       0.821  -0.105   0.047  0.00  0.00    +0.001 C 
BRANCH  30  31
ATOM     31  C   UNL     1       0.485   0.047  -1.438  0.00  0.00    -0.078 C 
BRANCH  31  34
ATOM     32  C   UNL     1       0.862  -2.298  -1.907  0.00  0.00    -0.097 C 
ATOM     33  C   UNL     1       1.155  -0.651  -3.657  0.00  0.00    -0.097 C 
ATOM     34  N   UNL     1       1.295  -0.918  -2.211  0.00  0.00    +0.376 N 
ATOM     35  H   UNL     1       2.282  -0.812  -1.946  0.00  0.00    -0.083 HD
ENDBRANCH  31  34
ENDBRANCH  30  31
ENDBRANCH  29  30
ENDBRANCH   3  29
TORSDOF 7
