REMARK  Name = ZINC34761347
REMARK  11 active torsions:
REMARK  status: ('A' for Active; 'I' for Inactive)
REMARK    1  A    between atoms: C_1  and  C_2
REMARK    2  A    between atoms: C_2  and  C_3
REMARK    3  A    between atoms: C_3  and  C_4
REMARK    4  A    between atoms: C_4  and  S_5
REMARK    5  A    between atoms: S_5  and  C_6
REMARK    6  A    between atoms: C_10  and  C_16
REMARK    7  A    between atoms: C_11  and  C_15
REMARK    8  A    between atoms: C_16  and  C_17
REMARK    9  A    between atoms: N_21  and  C_24
REMARK   10  A    between atoms: C_24  and  C_25
REMARK   11  A    between atoms: C_25  and  C_27
REMARK                            x       y       z     vdW  Elec       q    Type
REMARK                         _______ _______ _______ _____ _____    ______ ____
ROOT
ATOM      1  C   UNL     1       1.327  -4.198  -2.873  0.00  0.00    +0.191 A 
ATOM      2  N   UNL     1       1.912  -4.933  -3.812  0.00  0.00    -0.206 NA
ATOM      3  C   UNL     1       2.056  -6.241  -3.691  0.00  0.00    +0.134 A 
ATOM      4  C   UNL     1       1.571  -6.891  -2.522  0.00  0.00    +0.051 A 
ATOM      5  C   UNL     1       1.610  -8.297  -2.159  0.00  0.00    -0.025 A 
ATOM      6  C   UNL     1       1.085  -8.686  -0.988  0.00  0.00    -0.007 A 
ATOM      7  S   UNL     1       0.489  -7.165  -0.274  0.00  0.00    -0.073 S 
ATOM      8  C   UNL     1       0.962  -6.048  -1.567  0.00  0.00    +0.115 A 
ATOM      9  N   UNL     1       0.861  -4.748  -1.760  0.00  0.00    -0.215 NA
ATOM     10  C   UNL     1       1.014 -10.077  -0.413  0.00  0.00    +0.052 C 
ATOM     11  N   UNL     1       2.671  -6.972  -4.692  0.00  0.00    -0.318 N 
ATOM     12  C   UNL     1       1.896  -7.507  -5.823  0.00  0.00    +0.088 C 
ATOM     13  C   UNL     1       2.599  -7.108  -7.125  0.00  0.00    -0.059 C 
ATOM     14  N   UNL     1       3.997  -7.555  -7.082  0.00  0.00    +0.384 N 
ATOM     15  C   UNL     1       4.715  -6.849  -6.013  0.00  0.00    -0.059 C 
ATOM     16  C   UNL     1       4.119  -7.230  -4.659  0.00  0.00    +0.088 C 
ATOM     17  H   UNL     1       4.026  -8.548  -6.906  0.00  0.00    -0.081 HD
ENDROOT
BRANCH   5  18
ATOM     18  C   UNL     1       2.232  -9.308  -3.088  0.00  0.00    +0.033 C 
ATOM     19  C   UNL     1       3.682  -9.561  -2.668  0.00  0.00    +0.009 C 
ENDBRANCH   5  18
BRANCH   1  20
ATOM     20  S   UNL     1       1.173  -2.458  -3.108  0.00  0.00    -0.086 S 
BRANCH  20  21
ATOM     21  C   UNL     1       0.339  -1.884  -1.603  0.00  0.00    +0.077 C 
BRANCH  21  22
ATOM     22  C   UNL     1       0.140  -0.369  -1.677  0.00  0.00    +0.011 C 
BRANCH  22  24
ATOM     23  C   UNL     1      -0.763   1.630  -0.481  0.00  0.00    +0.004 C 
ATOM     24  C   UNL     1      -0.564   0.115  -0.407  0.00  0.00    -0.003 C 
ENDBRANCH  22  24
ENDBRANCH  21  22
ENDBRANCH  20  21
ENDBRANCH   1  20
BRANCH  14  25
ATOM     25  C   UNL     1       4.639  -7.270  -8.372  0.00  0.00    -0.048 C 
BRANCH  25  26
ATOM     26  C   UNL     1       6.036  -7.838  -8.374  0.00  0.00    -0.096 C 
ATOM     27  C   UNL     1       6.259  -9.025  -8.879  0.00  0.00    +0.005 C 
ATOM     28  C   UNL     1       7.174  -7.038  -7.794  0.00  0.00    +0.036 C 
ENDBRANCH  25  26
ENDBRANCH  14  25
TORSDOF 7
