REMARK  Name = ZINC09046345
REMARK  11 active torsions:
REMARK  status: ('A' for Active; 'I' for Inactive)
REMARK    1  A    between atoms: C_1  and  C_2
REMARK    2  A    between atoms: C_2  and  C_4
REMARK    3  A    between atoms: C_4  and  O_40
REMARK    4  A    between atoms: C_9  and  C_39
REMARK    5  A    between atoms: N_21  and  O_22
REMARK    6  A    between atoms: O_22  and  C_23
REMARK    7  A    between atoms: C_23  and  C_24
REMARK    8  A    between atoms: N_26  and  C_27
REMARK    9  A    between atoms: C_27  and  C_28
REMARK   10  A    between atoms: C_28  and  C_29
REMARK   11  A    between atoms: C_37  and  C_38
REMARK                            x       y       z     vdW  Elec       q    Type
REMARK                         _______ _______ _______ _____ _____    ______ ____
ROOT
ATOM      1  C   UNL     1       0.338  -0.646   1.128  0.00  0.00    +0.129 C 
ATOM      2  C   UNL     1      -1.169  -0.592   1.480  0.00  0.00    +0.043 C 
ATOM      3  C   UNL     1      -1.550  -2.001   2.008  0.00  0.00    +0.008 C 
ATOM      4  C   UNL     1      -0.186  -2.655   2.280  0.00  0.00    +0.002 C 
ATOM      5  C   UNL     1       0.654  -2.154   1.088  0.00  0.00    +0.007 C 
ATOM      6  C   UNL     1       2.114  -2.504   1.240  0.00  0.00    +0.010 C 
ATOM      7  C   UNL     1       2.271  -3.716   2.182  0.00  0.00    +0.005 C 
ATOM      8  C   UNL     1       1.151  -4.697   1.877  0.00  0.00    +0.002 C 
ATOM      9  C   UNL     1      -0.167  -4.144   2.433  0.00  0.00    -0.003 C 
ATOM     10  C   UNL     1      -1.319  -4.914   1.804  0.00  0.00    +0.008 C 
ATOM     11  C   UNL     1      -1.224  -6.360   2.318  0.00  0.00    +0.031 C 
ATOM     12  C   UNL     1       0.155  -6.920   2.027  0.00  0.00    -0.062 C 
ATOM     13  C   UNL     1       0.214  -8.105   1.432  0.00  0.00    +0.026 C 
ATOM     14  C   UNL     1       1.501  -8.756   1.149  0.00  0.00    +0.080 C 
ATOM     15  N   UNL     1       1.581  -9.790   0.368  0.00  0.00    -0.089 NA
ATOM     16  C   UNL     1       2.730  -8.183   1.825  0.00  0.00    +0.059 C 
ATOM     17  C   UNL     1       2.651  -6.663   1.750  0.00  0.00    +0.017 C 
ATOM     18  C   UNL     1       1.380  -6.118   2.387  0.00  0.00    -0.007 C 
ATOM     19  C   UNL     1       1.563  -6.120   3.902  0.00  0.00    +0.016 C 
ATOM     20  C   UNL     1       0.119  -2.685  -0.246  0.00  0.00    +0.015 C 
ENDROOT
BRANCH   1  22
ATOM     21  C   UNL     1       1.136   1.369  -0.322  0.00  0.00    +0.089 C 
ATOM     22  C   UNL     1       0.587  -0.031  -0.222  0.00  0.00    +0.162 C 
ATOM     23  O   UNL     1       0.348  -0.659  -1.225  0.00  0.00    -0.295 OA
ENDBRANCH   1  22
BRANCH   1  24
ATOM     24  O   UNL     1       1.111  -0.001   2.135  0.00  0.00    -0.381 OA
ATOM     25  H   UNL     1       0.932   0.946   2.223  0.00  0.00    +0.211 HD
ENDBRANCH   1  24
BRANCH  15  26
ATOM     26  O   UNL     1       0.411 -10.316  -0.232  0.00  0.00    -0.384 OA
BRANCH  26  27
ATOM     27  C   UNL     1       0.645 -11.453  -1.065  0.00  0.00    +0.358 C 
BRANCH  27  28
ATOM     28  C   UNL     1      -0.661 -11.926  -1.649  0.00  0.00    +0.253 C 
ATOM     29  O   UNL     1      -1.692 -11.347  -1.378  0.00  0.00    -0.272 OA
ATOM     30  N   UNL     1      -0.684 -12.993  -2.472  0.00  0.00    -0.312 N 
ATOM     31  H   UNL     1       0.140 -13.456  -2.689  0.00  0.00    +0.149 HD
BRANCH  30  32
ATOM     32  C   UNL     1      -1.954 -13.453  -3.039  0.00  0.00    +0.110 C 
BRANCH  32  33
ATOM     33  C   UNL     1      -1.703 -14.670  -3.931  0.00  0.00    +0.075 C 
BRANCH  33  34
ATOM     34  C   UNL     1      -3.009 -15.143  -4.515  0.00  0.00    +0.060 A 
ATOM     35  C   UNL     1      -3.278 -15.306  -5.824  0.00  0.00    +0.107 A 
ATOM     36  N   UNL     1      -4.570 -15.751  -5.911  0.00  0.00    -0.351 N 
ATOM     37  H   UNL     1      -5.067 -15.972  -6.751  0.00  0.00    +0.166 HD
ATOM     38  C   UNL     1      -5.049 -15.836  -4.651  0.00  0.00    +0.196 A 
ATOM     39  N   UNL     1      -4.110 -15.471  -3.821  0.00  0.00    -0.241 NA
ENDBRANCH  33  34
ENDBRANCH  32  33
ENDBRANCH  30  32
ENDBRANCH  27  28
ENDBRANCH  26  27
ENDBRANCH  15  26
TORSDOF 8
