REMARK  Name = ZINC58852984
REMARK  10 active torsions:
REMARK  status: ('A' for Active; 'I' for Inactive)
REMARK    1  A    between atoms: C_1  and  C_2
REMARK    2  A    between atoms: C_4  and  C_15
REMARK    3  A    between atoms: C_5  and  C_14
REMARK    4  A    between atoms: N_6  and  C_7
REMARK    5  A    between atoms: N_16  and  N_17
REMARK    6  A    between atoms: C_18  and  C_20
REMARK    7  A    between atoms: C_20  and  N_21
REMARK    8  A    between atoms: N_21  and  C_22
REMARK    9  A    between atoms: N_21  and  S_28
REMARK   10  A    between atoms: S_28  and  C_31
REMARK                            x       y       z     vdW  Elec       q    Type
REMARK                         _______ _______ _______ _____ _____    ______ ____
ROOT
ATOM      1  N   UNL     1       0.146  -5.698  -0.598  0.00  0.00    -0.206 N 
ATOM      2  C   UNL     1       0.129  -7.031  -0.402  0.00  0.00    +0.251 C 
ATOM      3  O   UNL     1       0.100  -7.478   0.726  0.00  0.00    -0.272 OA
ATOM      4  H   UNL     1       0.169  -5.341  -1.500  0.00  0.00    +0.177 HD
ENDROOT
BRANCH   1   6
ATOM      5  C   UNL     1       0.147  -3.544   0.310  0.00  0.00    +0.140 C 
ATOM      6  N   UNL     1       0.131  -4.828   0.499  0.00  0.00    -0.188 NA
BRANCH   5  10
ATOM      7  C   UNL     1       0.125   0.694   3.156  0.00  0.00    +0.064 C 
ATOM      8  C   UNL     1       0.121  -0.744   2.704  0.00  0.00    +0.022 A 
ATOM      9  C   UNL     1       0.145  -1.163   1.426  0.00  0.00    +0.032 A 
ATOM     10  C   UNL     1       0.131  -2.628   1.465  0.00  0.00    +0.016 A 
ATOM     11  C   UNL     1       0.099  -2.976   2.785  0.00  0.00    +0.030 A 
ATOM     12  N   UNL     1       0.099  -1.834   3.526  0.00  0.00    -0.316 N 
ATOM     13  C   UNL     1       0.073  -4.381   3.329  0.00  0.00    +0.064 C 
BRANCH  12  14
ATOM     14  C   UNL     1       0.077  -1.785   4.927  0.00  0.00    +0.065 A 
ATOM     15  C   UNL     1      -1.136  -1.758   5.603  0.00  0.00    +0.027 A 
ATOM     16  C   UNL     1      -1.155  -1.709   6.983  0.00  0.00    +0.002 A 
ATOM     17  C   UNL     1       0.032  -1.688   7.693  0.00  0.00    +0.002 A 
ATOM     18  C   UNL     1       1.241  -1.715   7.024  0.00  0.00    +0.022 A 
ATOM     19  C   UNL     1       1.268  -1.770   5.643  0.00  0.00    +0.065 A 
ATOM     20 CL   UNL     1       2.787  -1.811   4.803  0.00  0.00    -0.081 Cl
ENDBRANCH  12  14
ENDBRANCH   5  10
ENDBRANCH   1   6
BRANCH   2  21
ATOM     21  C   UNL     1       0.145  -7.968  -1.583  0.00  0.00    +0.229 C 
BRANCH  21  22
ATOM     22  N   UNL     1       0.122  -9.353  -1.108  0.00  0.00    -0.193 N 
BRANCH  22  23
ATOM     23  C   UNL     1      -1.096  -9.968  -0.808  0.00  0.00    +0.070 A 
ATOM     24  C   UNL     1      -1.343 -10.461   0.472  0.00  0.00    +0.028 A 
ATOM     25  C   UNL     1      -2.566 -11.062   0.721  0.00  0.00    +0.022 A 
ATOM     26  C   UNL     1      -3.494 -11.153  -0.300  0.00  0.00    +0.111 A 
ATOM     27  N   UNL     1      -3.230 -10.677  -1.501  0.00  0.00    -0.261 NA
ATOM     28  C   UNL     1      -2.081 -10.092  -1.779  0.00  0.00    +0.135 A 
ENDBRANCH  22  23
BRANCH  22  29
ATOM     29  S   UNL     1       1.539 -10.191  -0.926  0.00  0.00    +0.075 S 
ATOM     30  O   UNL     1       1.193 -11.568  -0.876  0.00  0.00    -0.150 OA
ATOM     31  O   UNL     1       2.446  -9.667  -1.887  0.00  0.00    -0.150 OA
BRANCH  29  32
ATOM     32  C   UNL     1       2.190  -9.777   0.658  0.00  0.00    +0.109 A 
ATOM     33  C   UNL     1       3.042  -8.698   0.794  0.00  0.00    +0.029 A 
ATOM     34  C   UNL     1       3.553  -8.373   2.037  0.00  0.00    +0.002 A 
ATOM     35  C   UNL     1       3.210  -9.127   3.144  0.00  0.00    +0.000 A 
ATOM     36  C   UNL     1       2.357 -10.206   3.007  0.00  0.00    +0.002 A 
ATOM     37  C   UNL     1       1.843 -10.528   1.765  0.00  0.00    +0.029 A 
ENDBRANCH  29  32
ENDBRANCH  22  29
ENDBRANCH  21  22
ENDBRANCH   2  21
TORSDOF 8
