REMARK  Name = ZINC07640134
REMARK  8 active torsions:
REMARK  status: ('A' for Active; 'I' for Inactive)
REMARK    1  A    between atoms: C_1  and  N_52
REMARK    2  A    between atoms: C_2  and  C_3
REMARK    3  A    between atoms: C_2  and  N_52
REMARK    4  A    between atoms: C_12  and  C_13
REMARK    5  A    between atoms: C_12  and  N_52
REMARK    6  A    between atoms: N_15  and  C_16
REMARK    7  A    between atoms: C_21  and  C_22
REMARK    8  A    between atoms: C_22  and  C_24
REMARK                            x       y       z     vdW  Elec       q    Type
REMARK                         _______ _______ _______ _____ _____    ______ ____
ROOT
ATOM      1  C   UNL     1       8.078  -2.267   0.722  0.00  0.00    +0.201 C 
ATOM      2  O   UNL     1       7.681  -2.440  -0.411  0.00  0.00    -0.278 OA
ATOM      3  N   UNL     1       9.342  -2.597   1.051  0.00  0.00    -0.286 N 
ATOM      4  H   UNL     1       9.681  -2.395   1.937  0.00  0.00    +0.155 HD
ENDROOT
BRANCH   3   5
ATOM      5  C   UNL     1      10.162  -3.229   0.119  0.00  0.00    +0.044 A 
ATOM      6  C   UNL     1      10.049  -2.923  -1.230  0.00  0.00    +0.024 A 
ATOM      7  C   UNL     1      10.863  -3.550  -2.152  0.00  0.00    +0.002 A 
ATOM      8  C   UNL     1      11.797  -4.488  -1.741  0.00  0.00    +0.001 A 
ATOM      9  C   UNL     1      11.923  -4.805  -0.406  0.00  0.00    +0.013 A 
ATOM     10  C   UNL     1      11.110  -4.175   0.540  0.00  0.00    +0.043 A 
BRANCH  10  11
ATOM     11  C   UNL     1      11.245  -4.504   1.971  0.00  0.00    +0.195 C 
ATOM     12  O   UNL     1      12.184  -4.070   2.609  0.00  0.00    -0.287 OA
BRANCH  11  13
ATOM     13  C   UNL     1      10.238  -5.363   2.629  0.00  0.00    +0.022 A 
ATOM     14  C   UNL     1       9.102  -5.776   1.929  0.00  0.00    +0.012 A 
ATOM     15  C   UNL     1       8.170  -6.582   2.547  0.00  0.00    +0.001 A 
ATOM     16  C   UNL     1       8.351  -6.972   3.862  0.00  0.00    +0.000 A 
ATOM     17  C   UNL     1       9.471  -6.562   4.564  0.00  0.00    +0.001 A 
ATOM     18  C   UNL     1      10.415  -5.761   3.956  0.00  0.00    +0.012 A 
ENDBRANCH  11  13
ENDBRANCH  10  11
ENDBRANCH   3   5
BRANCH   1  19
ATOM     19  C   UNL     1       7.157  -1.682   1.761  0.00  0.00    +0.019 C 
BRANCH  19  21
ATOM     20  C   UNL     1       5.943  -0.353   0.142  0.00  0.00    -0.095 C 
ATOM     21  N   UNL     1       5.837  -1.435   1.144  0.00  0.00    +0.386 N 
ATOM     22  H   UNL     1       5.521  -2.293   0.676  0.00  0.00    -0.081 HD
BRANCH  21  23
ATOM     23  C   UNL     1       4.854  -1.065   2.184  0.00  0.00    -0.043 C 
BRANCH  23  24
ATOM     24  C   UNL     1       3.480  -1.034   1.565  0.00  0.00    -0.060 A 
ATOM     25  C   UNL     1       2.710  -2.182   1.537  0.00  0.00    +0.005 A 
ATOM     26  C   UNL     1       1.450  -2.159   0.971  0.00  0.00    +0.050 A 
ATOM     27  C   UNL     1       0.954  -0.984   0.429  0.00  0.00    +0.166 A 
ATOM     28  C   UNL     1       1.729   0.172   0.458  0.00  0.00    +0.166 A 
ATOM     29  C   UNL     1       2.992   0.142   1.027  0.00  0.00    +0.051 A 
ATOM     30  O   UNL     1       1.026   1.183  -0.131  0.00  0.00    -0.453 OA
ATOM     31  C   UNL     1      -0.343   0.738  -0.153  0.00  0.00    +0.466 C 
ATOM     32  O   UNL     1      -0.235  -0.698  -0.178  0.00  0.00    -0.453 OA
ENDBRANCH  23  24
ENDBRANCH  21  23
ENDBRANCH  19  21
ENDBRANCH   1  19
TORSDOF 7
