REMARK  Name = ZINC63557202
REMARK  9 active torsions:
REMARK  status: ('A' for Active; 'I' for Inactive)
REMARK    1  A    between atoms: C_1  and  C_2
REMARK    2  A    between atoms: C_2  and  C_3
REMARK    3  A    between atoms: C_3  and  C_4
REMARK    4  A    between atoms: C_4  and  C_5
REMARK    5  A    between atoms: C_9  and  N_12
REMARK    6  A    between atoms: C_13  and  C_15
REMARK    7  A    between atoms: N_20  and  C_22
REMARK    8  A    between atoms: C_22  and  C_23
REMARK    9  A    between atoms: C_23  and  C_24
REMARK                            x       y       z     vdW  Elec       q    Type
REMARK                         _______ _______ _______ _____ _____    ______ ____
ROOT
ATOM      1  C   UNL     1      -5.569  -6.224  -4.412  0.00  0.00    +0.101 C 
ATOM      2  C   UNL     1      -5.959  -5.274  -5.568  0.00  0.00    +0.110 C 
ATOM      3  C   UNL     1      -6.764  -6.143  -6.508  0.00  0.00    +0.216 C 
ATOM      4  O   UNL     1      -7.020  -5.868  -7.662  0.00  0.00    -0.276 OA
ATOM      5  N   UNL     1      -7.154  -7.266  -5.880  0.00  0.00    -0.300 N 
ATOM      6  C   UNL     1      -6.686  -7.289  -4.489  0.00  0.00    +0.121 C 
ENDROOT
BRANCH   1   8
ATOM      7  N   UNL     1      -4.741  -4.494  -2.851  0.00  0.00    -0.290 N 
ATOM      8  C   UNL     1      -5.600  -5.505  -3.089  0.00  0.00    +0.220 C 
ATOM      9  O   UNL     1      -6.397  -5.836  -2.236  0.00  0.00    -0.275 OA
ATOM     10  H   UNL     1      -4.104  -4.229  -3.533  0.00  0.00    +0.151 HD
BRANCH   7  14
ATOM     11  C   UNL     1      -2.848  -2.593   0.015  0.00  0.00    +0.130 C 
ATOM     12  N   UNL     1      -2.882  -4.088   0.016  0.00  0.00    -0.241 NA
ATOM     13  N   UNL     1      -4.129  -4.609  -0.504  0.00  0.00    -0.227 NA
ATOM     14  C   UNL     1      -4.771  -3.794  -1.565  0.00  0.00    +0.216 C 
ATOM     15  S   UNL     1      -3.694  -2.296  -1.602  0.00  0.00    -0.102 S 
ATOM     16  H   UNL     1      -2.694  -4.454   0.937  0.00  0.00    +0.142 HD
ATOM     17  H   UNL     1      -4.778  -4.806   0.242  0.00  0.00    +0.143 HD
BRANCH  11  18
ATOM     18  C   UNL     1      -1.413  -2.063   0.004  0.00  0.00    +0.031 C 
BRANCH  18  19
ATOM     19  C   UNL     1      -1.433  -0.534   0.013  0.00  0.00    +0.002 C 
BRANCH  19  21
ATOM     20  C   UNL     1      -0.019   1.526   0.010  0.00  0.00    +0.004 C 
ATOM     21  C   UNL     1       0.002  -0.004   0.002  0.00  0.00    -0.003 C 
ENDBRANCH  19  21
ENDBRANCH  18  19
ENDBRANCH  11  18
ENDBRANCH   7  14
ENDBRANCH   1   8
BRANCH   5  22
ATOM     22  C   UNL     1      -7.942  -8.331  -6.505  0.00  0.00    +0.112 C 
BRANCH  22  23
ATOM     23  C   UNL     1      -7.002  -9.358  -7.139  0.00  0.00    +0.052 C 
BRANCH  23  24
ATOM     24  C   UNL     1      -7.814 -10.453  -7.781  0.00  0.00    -0.040 C 
ATOM     25  C   UNL     1      -8.185 -10.535  -9.079  0.00  0.00    +0.002 A 
ATOM     26  C   UNL     1      -7.955  -9.663 -10.236  0.00  0.00    +0.048 A 
ATOM     27  C   UNL     1      -8.466 -10.018 -11.439  0.00  0.00    +0.124 A 
ATOM     28  C   UNL     1      -9.209 -11.198 -11.605  0.00  0.00    +0.040 A 
ATOM     29  C   UNL     1      -9.462 -12.048 -10.588  0.00  0.00    +0.029 A 
ATOM     30  C   UNL     1      -8.972 -11.773  -9.281  0.00  0.00    +0.043 A 
ATOM     31  N   UNL     1      -9.083 -12.430  -8.152  0.00  0.00    -0.380 N 
ATOM     32  C   UNL     1      -8.372 -11.686  -7.106  0.00  0.00    +0.144 C 
ATOM     33  F   UNL     1      -8.255  -9.217 -12.506  0.00  0.00    -0.205 F 
ATOM     34  H   UNL     1      -9.553 -13.270  -8.029  0.00  0.00    +0.160 HD
ENDBRANCH  23  24
ENDBRANCH  22  23
ENDBRANCH   5  22
TORSDOF 8
