REMARK  Name = ZINC21241002
REMARK  9 active torsions:
REMARK  status: ('A' for Active; 'I' for Inactive)
REMARK    1  A    between atoms: C_1  and  C_2
REMARK    2  A    between atoms: C_2  and  O_3
REMARK    3  A    between atoms: O_3  and  C_4
REMARK    4  A    between atoms: C_7  and  C_12
REMARK    5  A    between atoms: C_9  and  O_10
REMARK    6  A    between atoms: O_10  and  C_11
REMARK    7  A    between atoms: C_17  and  C_23
REMARK    8  A    between atoms: C_26  and  C_32
REMARK    9  A    between atoms: C_27  and  N_29
REMARK                            x       y       z     vdW  Elec       q    Type
REMARK                         _______ _______ _______ _____ _____    ______ ____
ROOT
ATOM      1  C   UNL     1       3.257   4.115  -0.388  0.00  0.00    +0.032 C 
ATOM      2  C   UNL     1       2.081   3.557   0.417  0.00  0.00    +0.059 C 
ATOM      3  C   UNL     1       1.789   2.145  -0.026  0.00  0.00    +0.018 C 
ATOM      4  C   UNL     1       2.775   1.345  -0.484  0.00  0.00    +0.020 C 
ATOM      5  C   UNL     1       2.460  -0.069  -0.912  0.00  0.00    +0.063 C 
ATOM      6  C   UNL     1       1.352  -0.634  -0.021  0.00  0.00    +0.109 C 
ATOM      7  C   UNL     1       0.230   0.368   0.067  0.00  0.00    +0.218 C 
ATOM      8  O   UNL     1      -0.917  -0.014   0.155  0.00  0.00    -0.275 OA
ATOM      9  N   UNL     1       0.498   1.685   0.048  0.00  0.00    -0.289 N 
ATOM     10  C   UNL     1       4.101   1.799  -0.576  0.00  0.00    +0.162 C 
ATOM     11  O   UNL     1       4.964   1.046  -0.983  0.00  0.00    -0.292 OA
ATOM     12  C   UNL     1       4.470   3.203  -0.178  0.00  0.00    +0.088 C 
ATOM     13  H   UNL     1      -0.338   2.399   0.093  0.00  0.00    +0.155 HD
ENDROOT
BRANCH   5  14
ATOM     14  C   UNL     1       2.000  -0.069  -2.347  0.00  0.00    -0.037 A 
ATOM     15  C   UNL     1       0.875   0.645  -2.713  0.00  0.00    +0.004 A 
ATOM     16  C   UNL     1       0.456   0.648  -4.030  0.00  0.00    +0.006 A 
ATOM     17  C   UNL     1       1.157  -0.071  -4.980  0.00  0.00    -0.020 A 
ATOM     18  C   UNL     1       2.280  -0.789  -4.613  0.00  0.00    +0.129 A 
ATOM     19  C   UNL     1       2.701  -0.789  -3.297  0.00  0.00    +0.037 A 
ATOM     20  C   UNL     1       0.698  -0.072  -6.415  0.00  0.00    +0.046 C 
BRANCH  18  21
ATOM     21  N   UNL     1       3.031  -1.559  -5.630  0.00  0.00    +0.057 N 
ATOM     22  O   UNL     1       2.434  -2.128  -6.527  0.00  0.00    -0.126 OA
ATOM     23  O   UNL     1       4.246  -1.623  -5.571  0.00  0.00    -0.126 OA
ENDBRANCH  18  21
ENDBRANCH   5  14
BRANCH   1  27
ATOM     24  C   UNL     1       4.182   8.063   0.972  0.00  0.00    +0.162 A 
ATOM     25  C   UNL     1       4.233   6.994   1.852  0.00  0.00    +0.050 A 
ATOM     26  C   UNL     1       3.933   5.719   1.409  0.00  0.00    +0.008 A 
ATOM     27  C   UNL     1       3.582   5.507   0.089  0.00  0.00    -0.040 A 
ATOM     28  C   UNL     1       3.534   6.568  -0.796  0.00  0.00    +0.053 A 
ATOM     29  C   UNL     1       3.828   7.849  -0.357  0.00  0.00    +0.162 A 
BRANCH  29  30
ATOM     30  O   UNL     1       3.777   8.895  -1.225  0.00  0.00    -0.491 OA
ATOM     31  C   UNL     1       3.407   8.602  -2.574  0.00  0.00    +0.277 C 
ENDBRANCH  29  30
BRANCH  24  32
ATOM     32  O   UNL     1       4.477   9.318   1.405  0.00  0.00    -0.489 OA
BRANCH  32  34
ATOM     33  C   UNL     1       5.127  10.932   3.082  0.00  0.00    +0.048 C 
ATOM     34  C   UNL     1       4.832   9.461   2.782  0.00  0.00    +0.226 C 
ENDBRANCH  32  34
ENDBRANCH  24  32
ENDBRANCH   1  27
TORSDOF 6
