REMARK  Name = ZINC16918083
REMARK  12 active torsions:
REMARK  status: ('A' for Active; 'I' for Inactive)
REMARK    1  A    between atoms: C_1  and  C_2
REMARK    2  A    between atoms: C_2  and  N_3
REMARK    3  A    between atoms: C_7  and  C_8
REMARK    4  A    between atoms: C_11  and  O_17
REMARK    5  A    between atoms: C_12  and  O_14
REMARK    6  A    between atoms: O_14  and  C_15
REMARK    7  A    between atoms: C_15  and  C_16
REMARK    8  A    between atoms: O_17  and  C_18
REMARK    9  A    between atoms: C_18  and  C_20
REMARK   10  A    between atoms: C_18  and  C_21
REMARK   11  A    between atoms: N_25  and  C_26
REMARK   12  A    between atoms: C_29  and  C_31
REMARK                            x       y       z     vdW  Elec       q    Type
REMARK                         _______ _______ _______ _____ _____    ______ ____
ROOT
ATOM      1  N   UNL     1      -4.226   5.978   5.072  0.00  0.00    -0.246 N 
ATOM      2  C   UNL     1      -5.367   5.561   5.593  0.00  0.00    +0.259 C 
ATOM      3  O   UNL     1      -5.890   6.142   6.527  0.00  0.00    -0.269 OA
ATOM      4  C   UNL     1      -5.980   4.362   4.992  0.00  0.00    +0.078 C 
ATOM      5  C   UNL     1      -7.132   3.725   5.322  0.00  0.00    +0.028 C 
ATOM      6  S   UNL     1      -4.800   3.976   3.706  0.00  0.00    -0.049 S 
ATOM      7  C   UNL     1      -3.651   5.308   4.015  0.00  0.00    +0.171 C 
ATOM      8  N   UNL     1      -2.529   5.584   3.383  0.00  0.00    -0.198 NA
ENDROOT
BRANCH   5   9
ATOM      9  C   UNL     1      -7.876   4.129   6.522  0.00  0.00    -0.020 A 
ATOM     10  C   UNL     1      -7.188   4.502   7.683  0.00  0.00    +0.012 A 
ATOM     11  C   UNL     1      -7.888   4.881   8.807  0.00  0.00    +0.050 A 
ATOM     12  C   UNL     1      -9.277   4.893   8.793  0.00  0.00    +0.163 A 
ATOM     13  C   UNL     1      -9.970   4.523   7.641  0.00  0.00    +0.162 A 
ATOM     14  C   UNL     1      -9.276   4.147   6.508  0.00  0.00    +0.057 A 
BRANCH  13  15
ATOM     15  O   UNL     1     -11.330   4.538   7.632  0.00  0.00    -0.489 OA
BRANCH  15  16
ATOM     16  C   UNL     1     -11.975   4.147   6.418  0.00  0.00    +0.226 C 
ATOM     17  C   UNL     1     -13.492   4.226   6.599  0.00  0.00    +0.048 C 
ENDBRANCH  15  16
ENDBRANCH  13  15
BRANCH  12  18
ATOM     18  O   UNL     1      -9.962   5.268   9.904  0.00  0.00    -0.474 OA
BRANCH  18  19
ATOM     19  C   UNL     1      -9.190   5.622  11.054  0.00  0.00    +0.283 C 
ATOM     20  C   UNL     1      -8.801   7.100  10.971  0.00  0.00    +0.064 C 
BRANCH  19  21
ATOM     21  C   UNL     1     -10.005   5.386  12.299  0.00  0.00    +0.395 C 
ATOM     22  O   UNL     1     -11.132   4.958  12.211  0.00  0.00    -0.242 OA
ATOM     23  O   UNL     1      -9.480   5.651  13.505  0.00  0.00    -0.242 OA
ENDBRANCH  19  21
ENDBRANCH  18  19
ENDBRANCH  12  18
ENDBRANCH   5   9
BRANCH   8  24
ATOM     24  C   UNL     1      -2.119   4.800   2.353  0.00  0.00    +0.217 A 
ATOM     25  N   UNL     1      -2.685   3.716   1.821  0.00  0.00    -0.121 NA
ATOM     26  N   UNL     1      -2.161   3.106   0.850  0.00  0.00    -0.145 NA
ATOM     27  C   UNL     1      -1.021   3.490   0.309  0.00  0.00    +0.101 A 
ATOM     28  S   UNL     1      -0.661   4.924   1.319  0.00  0.00    -0.031 S 
ATOM     29  C   UNL     1      -0.245   2.895  -0.837  0.00  0.00    +0.075 C 
ENDBRANCH   8  24
BRANCH   1  31
ATOM     30  C   UNL     1      -4.064   8.411   4.890  0.00  0.00    +0.025 C 
ATOM     31  C   UNL     1      -3.567   7.164   5.623  0.00  0.00    +0.112 C 
ENDBRANCH   1  31
TORSDOF 8
