REMARK  Name = ZINC08765814
REMARK  12 active torsions:
REMARK  status: ('A' for Active; 'I' for Inactive)
REMARK    1  A    between atoms: C_1  and  C_2
REMARK    2  A    between atoms: C_2  and  C_3
REMARK    3  A    between atoms: C_6  and  S_9
REMARK    4  A    between atoms: S_9  and  N_12
REMARK    5  A    between atoms: N_12  and  C_13
REMARK    6  A    between atoms: C_19  and  C_23
REMARK    7  A    between atoms: C_20  and  C_22
REMARK    8  A    between atoms: C_23  and  O_25
REMARK    9  A    between atoms: O_25  and  C_26
REMARK   10  A    between atoms: C_26  and  C_27
REMARK   11  A    between atoms: C_28  and  C_30
REMARK   12  A    between atoms: C_31  and  C_32
REMARK                            x       y       z     vdW  Elec       q    Type
REMARK                         _______ _______ _______ _____ _____    ______ ____
ROOT
ATOM      1  N   UNL     1       2.416   1.167  -0.117  0.00  0.00    -0.136 N 
ATOM      2  C   UNL     1       1.277   1.799   0.231  0.00  0.00    +0.263 C 
ATOM      3  O   UNL     1       0.235   1.176   0.309  0.00  0.00    -0.269 OA
ENDROOT
BRANCH   1   4
ATOM      4  C   UNL     1       3.633   1.859  -0.101  0.00  0.00    +0.061 A 
ATOM      5  C   UNL     1       3.826   2.948  -0.947  0.00  0.00    +0.029 A 
ATOM      6  C   UNL     1       5.018   3.637  -0.942  0.00  0.00    +0.049 A 
ATOM      7  C   UNL     1       6.043   3.249  -0.087  0.00  0.00    +0.136 A 
ATOM      8  C   UNL     1       5.850   2.153   0.766  0.00  0.00    +0.036 A 
ATOM      9  C   UNL     1       4.642   1.463   0.761  0.00  0.00    +0.037 A 
ATOM     10  C   UNL     1       7.110   2.015   1.523  0.00  0.00    +0.107 A 
ATOM     11  C   UNL     1       7.922   3.011   1.071  0.00  0.00    +0.117 A 
ATOM     12  O   UNL     1       7.288   3.723   0.133  0.00  0.00    -0.459 OA
ATOM     13  C   UNL     1       9.325   3.272   1.556  0.00  0.00    +0.087 C 
BRANCH  10  14
ATOM     14  C   UNL     1       7.423   1.014   2.551  0.00  0.00    +0.343 C 
ATOM     15  O   UNL     1       7.929  -0.045   2.233  0.00  0.00    -0.245 OA
BRANCH  14  16
ATOM     16  O   UNL     1       7.150   1.268   3.846  0.00  0.00    -0.461 OA
BRANCH  16  17
ATOM     17  C   UNL     1       7.486   0.233   4.807  0.00  0.00    +0.229 C 
ATOM     18  C   UNL     1       7.106   0.699   6.214  0.00  0.00    +0.048 C 
ENDBRANCH  16  17
ENDBRANCH  14  16
ENDBRANCH  10  14
ENDBRANCH   1   4
BRANCH   1  19
ATOM     19  S   UNL     1       2.375  -0.427  -0.563  0.00  0.00    +0.081 S 
ATOM     20  O   UNL     1       3.708  -0.910  -0.465  0.00  0.00    -0.149 OA
ATOM     21  O   UNL     1       1.296  -1.019   0.146  0.00  0.00    -0.149 OA
BRANCH  19  25
ATOM     22  C   UNL     1       1.269  -0.561  -4.950  0.00  0.00    -0.048 A 
ATOM     23  C   UNL     1       2.598  -0.488  -4.574  0.00  0.00    +0.005 A 
ATOM     24  C   UNL     1       2.935  -0.447  -3.234  0.00  0.00    +0.029 A 
ATOM     25  C   UNL     1       1.945  -0.479  -2.271  0.00  0.00    +0.109 A 
ATOM     26  C   UNL     1       0.617  -0.558  -2.647  0.00  0.00    +0.029 A 
ATOM     27  C   UNL     1       0.279  -0.594  -3.986  0.00  0.00    +0.005 A 
BRANCH  22  29
ATOM     28  C   UNL     1       0.849  -2.060  -6.881  0.00  0.00    +0.009 C 
ATOM     29  C   UNL     1       0.901  -0.605  -6.411  0.00  0.00    +0.032 C 
ENDBRANCH  22  29
ENDBRANCH  19  25
ENDBRANCH   1  19
BRANCH   2  30
ATOM     30  C   UNL     1       1.294   3.235   0.515  0.00  0.00    +0.070 C 
ATOM     31  C   UNL     1       0.142   3.885   0.777  0.00  0.00    +0.013 C 
BRANCH  31  32
ATOM     32  C   UNL     1       0.160   5.327   1.068  0.00  0.00    -0.025 A 
ATOM     33  C   UNL     1       1.371   6.027   1.080  0.00  0.00    +0.008 A 
ATOM     34  C   UNL     1       1.379   7.379   1.349  0.00  0.00    +0.001 A 
ATOM     35  C   UNL     1       0.194   8.042   1.617  0.00  0.00    +0.000 A 
ATOM     36  C   UNL     1      -1.008   7.356   1.612  0.00  0.00    +0.001 A 
ATOM     37  C   UNL     1      -1.033   6.004   1.340  0.00  0.00    +0.008 A 
ENDBRANCH  31  32
ENDBRANCH   2  30
TORSDOF 9
