REMARK  Name = ZINC39363077
REMARK  11 active torsions:
REMARK  status: ('A' for Active; 'I' for Inactive)
REMARK    1  A    between atoms: C_1  and  C_2
REMARK    2  A    between atoms: C_2  and  C_3
REMARK    3  A    between atoms: C_2  and  C_4
REMARK    4  A    between atoms: C_4  and  C_5
REMARK    5  A    between atoms: C_7  and  C_11
REMARK    6  A    between atoms: C_11  and  N_12
REMARK    7  A    between atoms: C_24  and  N_29
REMARK    8  A    between atoms: C_26  and  O_28
REMARK    9  A    between atoms: C_30  and  C_32
REMARK   10  A    between atoms: C_37  and  O_38
REMARK   11  A    between atoms: O_38  and  C_39
REMARK                            x       y       z     vdW  Elec       q    Type
REMARK                         _______ _______ _______ _____ _____    ______ ____
ROOT
ATOM      1  N   UNL     1      -0.100  -6.296  -0.043  0.00  0.00    +0.381 N 
ATOM      2  C   UNL     1      -1.248  -7.141   0.311  0.00  0.00    -0.078 C 
ATOM      3  C   UNL     1      -1.218  -8.422  -0.527  0.00  0.00    -0.005 C 
ATOM      4  C   UNL     1       0.087  -9.168  -0.262  0.00  0.00    +0.021 C 
ATOM      5  C   UNL     1       1.281  -8.259  -0.538  0.00  0.00    -0.005 C 
ATOM      6  C   UNL     1       1.151  -6.984   0.300  0.00  0.00    -0.078 C 
ATOM      7  C   UNL     1       0.164 -10.412  -1.114  0.00  0.00    -0.034 A 
ATOM      8  C   UNL     1       0.475 -10.569  -2.455  0.00  0.00    +0.004 A 
ATOM      9  C   UNL     1       0.484 -11.827  -3.024  0.00  0.00    +0.000 A 
ATOM     10  C   UNL     1       0.181 -12.935  -2.255  0.00  0.00    +0.000 A 
ATOM     11  C   UNL     1      -0.130 -12.781  -0.918  0.00  0.00    +0.006 A 
ATOM     12  C   UNL     1      -0.140 -11.521  -0.345  0.00  0.00    -0.021 A 
ATOM     13  C   UNL     1      -0.446 -11.091   1.074  0.00  0.00    +0.133 C 
ATOM     14  C   UNL     1       0.125  -9.661   1.196  0.00  0.00    +0.149 C 
ATOM     15  H   UNL     1      -0.118  -6.107  -1.034  0.00  0.00    -0.082 HD
ENDROOT
BRANCH  13  16
ATOM     16  N   UNL     1       0.211 -11.986   2.030  0.00  0.00    -0.302 N 
ATOM     17  C   UNL     1      -0.400 -13.122   2.419  0.00  0.00    +0.248 C 
ATOM     18  O   UNL     1      -1.497 -13.405   1.978  0.00  0.00    -0.270 OA
ATOM     19  H   UNL     1       1.087 -11.761   2.382  0.00  0.00    +0.150 HD
BRANCH  17  20
ATOM     20  C   UNL     1       0.263 -14.024   3.381  0.00  0.00    +0.078 A 
ATOM     21  C   UNL     1       1.521 -13.700   3.895  0.00  0.00    +0.017 A 
ATOM     22  C   UNL     1       2.134 -14.546   4.793  0.00  0.00    +0.001 A 
ATOM     23  C   UNL     1       1.509 -15.717   5.190  0.00  0.00    +0.004 A 
ATOM     24  C   UNL     1       0.265 -16.049   4.690  0.00  0.00    +0.046 A 
ATOM     25  C   UNL     1      -0.369 -15.206   3.789  0.00  0.00    +0.132 A 
BRANCH  25  26
ATOM     26  O   UNL     1      -1.593 -15.528   3.300  0.00  0.00    -0.494 OA
ATOM     27  C   UNL     1      -2.175 -16.749   3.762  0.00  0.00    +0.277 C 
ENDBRANCH  25  26
ENDBRANCH  17  20
ENDBRANCH  13  16
BRANCH  14  28
ATOM     28  O   UNL     1      -0.707  -8.851   2.028  0.00  0.00    -0.389 OA
ATOM     29  H   UNL     1      -0.717  -9.121   2.957  0.00  0.00    +0.210 HD
ENDBRANCH  14  28
BRANCH   1  30
ATOM     30  C   UNL     1      -0.180  -5.030   0.698  0.00  0.00    -0.046 C 
BRANCH  30  33
ATOM     31  C   UNL     1      -1.416  -2.035  -0.119  0.00  0.00    +0.062 C 
ATOM     32  C   UNL     1      -1.465  -2.886   0.907  0.00  0.00    +0.024 C 
ATOM     33  C   UNL     1      -1.420  -4.254   0.250  0.00  0.00    +0.136 C 
ATOM     34  N   UNL     1      -1.346  -3.930  -1.185  0.00  0.00    -0.182 NA
ATOM     35  N   UNL     1      -1.355  -2.701  -1.293  0.00  0.00    -0.159 NA
BRANCH  31  36
ATOM     36  C   UNL     1      -1.433  -0.534   0.013  0.00  0.00    +0.060 C 
BRANCH  36  38
ATOM     37  C   UNL     1      -0.019   1.526   0.010  0.00  0.00    +0.007 C 
ATOM     38  C   UNL     1       0.002  -0.004   0.002  0.00  0.00    -0.011 C 
ATOM     39  C   UNL     1       0.742  -0.511   1.242  0.00  0.00    +0.007 C 
ENDBRANCH  36  38
ENDBRANCH  31  36
ENDBRANCH  30  33
ENDBRANCH   1  30
TORSDOF 8
