REMARK  Name = ZINC13123075
REMARK  3 active torsions:
REMARK  status: ('A' for Active; 'I' for Inactive)
REMARK    1  A    between atoms: C_1  and  C_2
REMARK    2  A    between atoms: C_6  and  N_8
REMARK    3  A    between atoms: C_12  and  C_15
REMARK                            x       y       z     vdW  Elec       q    Type
REMARK                         _______ _______ _______ _____ _____    ______ ____
ROOT
ATOM      1  N   UNL     1       0.050  -2.791   2.363  0.00  0.00    -0.225 NA
ATOM      2  C   UNL     1      -0.809  -3.766   2.561  0.00  0.00    +0.174 C 
ATOM      3  N   UNL     1      -1.681  -4.205   1.574  0.00  0.00    -0.215 N 
ATOM      4  N   UNL     1      -2.963  -4.618   1.925  0.00  0.00    -0.184 NA
ATOM      5  C   UNL     1      -3.447  -4.790   3.089  0.00  0.00    +0.079 C 
ATOM      6  C   UNL     1      -2.742  -4.554   4.396  0.00  0.00    +0.134 C 
ATOM      7  S   UNL     1      -0.938  -4.627   4.110  0.00  0.00    -0.083 S 
ATOM      8  H   UNL     1      -1.398  -4.224   0.646  0.00  0.00    +0.176 HD
ENDROOT
BRANCH   5   9
ATOM      9  C   UNL     1      -4.838  -5.268   3.164  0.00  0.00    +0.024 A 
ATOM     10  C   UNL     1      -5.553  -5.513   4.294  0.00  0.00    +0.093 A 
ATOM     11  N   UNL     1      -6.804  -5.943   3.962  0.00  0.00    -0.360 N 
ATOM     12  H   UNL     1      -7.497  -6.179   4.599  0.00  0.00    +0.165 HD
ATOM     13  C   UNL     1      -6.944  -5.991   2.591  0.00  0.00    +0.047 A 
ATOM     14  C   UNL     1      -5.728  -5.569   2.029  0.00  0.00    +0.009 A 
ATOM     15  C   UNL     1      -5.582  -5.512   0.644  0.00  0.00    +0.010 A 
ATOM     16  C   UNL     1      -6.635  -5.870  -0.168  0.00  0.00    +0.001 A 
ATOM     17  C   UNL     1      -7.838  -6.285   0.386  0.00  0.00    +0.002 A 
ATOM     18  C   UNL     1      -7.994  -6.352   1.754  0.00  0.00    +0.026 A 
ENDBRANCH   5   9
BRANCH   1  24
ATOM     19  C   UNL     1      -2.470  -0.199  -0.940  0.00  0.00    +0.044 C 
ATOM     20  C   UNL     1      -1.183  -0.811  -0.448  0.00  0.00    -0.048 A 
ATOM     21  C   UNL     1      -0.021  -0.660  -1.185  0.00  0.00    +0.003 A 
ATOM     22  C   UNL     1       1.164  -1.219  -0.741  0.00  0.00    +0.002 A 
ATOM     23  C   UNL     1       1.195  -1.931   0.441  0.00  0.00    +0.028 A 
ATOM     24  C   UNL     1       0.026  -2.086   1.190  0.00  0.00    +0.067 A 
ATOM     25  C   UNL     1      -1.166  -1.514   0.738  0.00  0.00    +0.031 A 
ENDBRANCH   1  24
TORSDOF 2
