REMARK  Name = ZINC20558346
REMARK  5 active torsions:
REMARK  status: ('A' for Active; 'I' for Inactive)
REMARK    1  A    between atoms: C_1  and  C_2
REMARK    2  A    between atoms: C_7  and  C_8
REMARK    3  A    between atoms: C_10  and  C_27
REMARK    4  A    between atoms: C_11  and  N_26
REMARK    5  A    between atoms: N_18  and  C_25
REMARK                            x       y       z     vdW  Elec       q    Type
REMARK                         _______ _______ _______ _____ _____    ______ ____
ROOT
ATOM      1  C   UNL     1       0.362   1.039   0.283  0.00  0.00    +0.118 C 
ATOM      2  C   UNL     1      -0.139   1.551  -1.040  0.00  0.00    +0.099 C 
ATOM      3  C   UNL     1       0.485   2.589  -1.651  0.00  0.00    +0.199 C 
ATOM      4  O   UNL     1       1.554   3.183  -1.097  0.00  0.00    -0.439 OA
ATOM      5  C   UNL     1       2.288   2.534  -0.153  0.00  0.00    +0.162 C 
ATOM      6  C   UNL     1       1.768   1.515   0.524  0.00  0.00    +0.141 C 
ATOM      7  S   UNL     1       2.764   0.702   1.740  0.00  0.00    +0.075 S 
ATOM      8  O   UNL     1       2.589   1.408   2.960  0.00  0.00    -0.150 OA
ATOM      9  O   UNL     1       2.516  -0.692   1.614  0.00  0.00    -0.150 OA
ATOM     10  N   UNL     1       4.331   0.964   1.244  0.00  0.00    -0.206 N 
ATOM     11  C   UNL     1       4.636   2.237   0.747  0.00  0.00    +0.062 A 
ATOM     12  C   UNL     1       3.674   3.003   0.088  0.00  0.00    +0.042 A 
ATOM     13  C   UNL     1       4.024   4.275  -0.382  0.00  0.00    +0.013 A 
ATOM     14  C   UNL     1       5.303   4.755  -0.200  0.00  0.00    +0.001 A 
ATOM     15  C   UNL     1       6.253   3.986   0.450  0.00  0.00    +0.002 A 
ATOM     16  C   UNL     1       5.922   2.731   0.922  0.00  0.00    +0.025 A 
ATOM     17  C   UNL     1       5.347  -0.089   1.327  0.00  0.00    +0.157 C 
ENDROOT
BRANCH   1  24
ATOM     18  C   UNL     1      -1.265  -0.812   1.790  0.00  0.00    +0.044 C 
ATOM     19  C   UNL     1      -1.312   0.661   2.105  0.00  0.00    -0.046 A 
ATOM     20  C   UNL     1      -2.129   1.126   3.118  0.00  0.00    +0.003 A 
ATOM     21  C   UNL     1      -2.176   2.478   3.403  0.00  0.00    +0.000 A 
ATOM     22  C   UNL     1      -1.401   3.364   2.678  0.00  0.00    +0.000 A 
ATOM     23  C   UNL     1      -0.579   2.898   1.669  0.00  0.00    +0.005 A 
ATOM     24  C   UNL     1      -0.533   1.546   1.384  0.00  0.00    -0.030 A 
ENDBRANCH   1  24
BRANCH   3  25
ATOM     25  N   UNL     1       0.014   3.041  -2.858  0.00  0.00    -0.328 N 
ATOM     26  H   UNL     1       0.512   3.882  -3.363  0.00  0.00    +0.145 HD
ATOM     27  H   UNL     1      -0.861   2.562  -3.322  0.00  0.00    +0.145 HD
ENDBRANCH   3  25
BRANCH   2  28
ATOM     28  C   UNL     1      -1.279   0.940  -1.655  0.00  0.00    +0.101 C 
ATOM     29  N   UNL     1      -2.183   0.456  -2.144  0.00  0.00    -0.191 NA
ENDBRANCH   2  28
TORSDOF 3
