REMARK  Name = ZINC36342220
REMARK  8 active torsions:
REMARK  status: ('A' for Active; 'I' for Inactive)
REMARK    1  A    between atoms: C_1  and  C_2
REMARK    2  A    between atoms: C_2  and  N_3
REMARK    3  A    between atoms: N_3  and  C_4
REMARK    4  A    between atoms: N_3  and  C_27
REMARK    5  A    between atoms: C_4  and  C_5
REMARK    6  A    between atoms: C_8  and  C_20
REMARK    7  A    between atoms: C_11  and  C_13
REMARK    8  A    between atoms: C_23  and  C_26
REMARK                            x       y       z     vdW  Elec       q    Type
REMARK                         _______ _______ _______ _____ _____    ______ ____
ROOT
ATOM      1  C   UNL     1      -1.883   1.456  -1.528  0.00  0.00    +0.219 C 
ATOM      2  O   UNL     1      -1.475   2.148  -0.619  0.00  0.00    -0.276 OA
ATOM      3  N   UNL     1      -2.253   2.024  -2.693  0.00  0.00    -0.187 N 
ATOM      4  C   UNL     1      -2.208   3.463  -2.996  0.00  0.00    +0.137 C 
ATOM      5  C   UNL     1      -2.736   3.545  -4.442  0.00  0.00    +0.087 C 
ATOM      6  C   UNL     1      -3.029   2.106  -4.804  0.00  0.00    +0.069 C 
ATOM      7  N   UNL     1      -2.736   1.343  -3.809  0.00  0.00    -0.181 NA
ENDROOT
BRANCH   6   8
ATOM      8  C   UNL     1      -3.561   1.647  -6.101  0.00  0.00    -0.002 A 
ATOM      9  C   UNL     1      -3.830   2.569  -7.115  0.00  0.00    +0.012 A 
ATOM     10  C   UNL     1      -4.328   2.134  -8.325  0.00  0.00    +0.039 A 
ATOM     11  C   UNL     1      -4.561   0.784  -8.536  0.00  0.00    +0.123 A 
ATOM     12  C   UNL     1      -4.296  -0.136  -7.533  0.00  0.00    +0.039 A 
ATOM     13  C   UNL     1      -3.792   0.287  -6.321  0.00  0.00    +0.012 A 
ATOM     14  F   UNL     1      -5.049   0.363  -9.723  0.00  0.00    -0.205 F 
ENDBRANCH   6   8
BRANCH   4  15
ATOM     15  C   UNL     1      -3.102   4.231  -2.057  0.00  0.00    -0.025 A 
ATOM     16  C   UNL     1      -4.318   3.700  -1.672  0.00  0.00    +0.006 A 
ATOM     17  C   UNL     1      -5.138   4.405  -0.811  0.00  0.00    +0.004 A 
ATOM     18  C   UNL     1      -4.742   5.641  -0.335  0.00  0.00    -0.050 A 
ATOM     19  C   UNL     1      -3.525   6.172  -0.720  0.00  0.00    +0.004 A 
ATOM     20  C   UNL     1      -2.703   5.465  -1.577  0.00  0.00    +0.006 A 
ATOM     21  C   UNL     1      -5.636   6.410   0.603  0.00  0.00    +0.044 C 
ENDBRANCH   4  15
BRANCH   1  22
ATOM     22  C   UNL     1      -1.976  -0.038  -1.355  0.00  0.00    +0.021 C 
BRANCH  22  23
ATOM     23  N   UNL     1      -1.379  -0.420  -0.068  0.00  0.00    +0.387 N 
ATOM     24  H   UNL     1      -1.801   0.120   0.672  0.00  0.00    -0.081 HD
BRANCH  23  25
ATOM     25  C   UNL     1      -1.612  -1.850   0.175  0.00  0.00    -0.068 C 
ATOM     26  C   UNL     1      -3.117  -2.123   0.210  0.00  0.00    -0.015 C 
ATOM     27  C   UNL     1      -3.360  -3.612   0.463  0.00  0.00    -0.002 C 
ATOM     28  C   UNL     1      -2.738  -4.010   1.803  0.00  0.00    -0.000 C 
ATOM     29  C   UNL     1      -1.233  -3.737   1.768  0.00  0.00    -0.002 C 
ATOM     30  C   UNL     1      -0.990  -2.248   1.515  0.00  0.00    -0.015 C 
ENDBRANCH  23  25
BRANCH  23  32
ATOM     31  C   UNL     1       0.727  -1.077  -1.132  0.00  0.00    -0.017 C 
ATOM     32  C   UNL     1       0.066  -0.158  -0.102  0.00  0.00    -0.081 C 
ENDBRANCH  23  32
ENDBRANCH  22  23
ENDBRANCH   1  22
TORSDOF 6
