REMARK  Name = ZINC15726961
REMARK  8 active torsions:
REMARK  status: ('A' for Active; 'I' for Inactive)
REMARK    1  A    between atoms: C_1  and  C_2
REMARK    2  A    between atoms: C_5  and  C_34
REMARK    3  A    between atoms: C_6  and  N_8
REMARK    4  A    between atoms: C_14  and  C_16
REMARK    5  A    between atoms: N_19  and  C_26
REMARK    6  A    between atoms: C_20  and  C_21
REMARK    7  A    between atoms: C_29  and  O_32
REMARK    8  A    between atoms: O_32  and  C_33
REMARK                            x       y       z     vdW  Elec       q    Type
REMARK                         _______ _______ _______ _____ _____    ______ ____
ROOT
ATOM      1  C   UNL     1       0.736   1.751   3.338  0.00  0.00    +0.078 A 
ATOM      2  C   UNL     1       1.163   0.896   4.379  0.00  0.00    +0.148 A 
ATOM      3  N   UNL     1       0.680  -0.294   4.149  0.00  0.00    -0.174 NA
ATOM      4  N   UNL     1      -0.072  -0.258   2.969  0.00  0.00    -0.236 N 
ATOM      5  C   UNL     1      -0.030   0.992   2.475  0.00  0.00    +0.060 A 
ENDROOT
BRANCH   1  12
ATOM      6  N   UNL     1       4.891   4.215   2.309  0.00  0.00    -0.327 N 
ATOM      7  C   UNL     1       3.765   5.069   1.911  0.00  0.00    +0.124 C 
ATOM      8  C   UNL     1       2.676   5.009   2.988  0.00  0.00    +0.127 C 
ATOM      9  N   UNL     1       2.333   3.599   3.227  0.00  0.00    -0.294 N 
ATOM     10  C   UNL     1       3.426   2.654   3.503  0.00  0.00    +0.127 C 
ATOM     11  C   UNL     1       4.485   2.806   2.400  0.00  0.00    +0.124 C 
ATOM     12  C   UNL     1       1.051   3.184   3.198  0.00  0.00    +0.250 C 
ATOM     13  O   UNL     1       0.154   3.993   3.058  0.00  0.00    -0.270 OA
BRANCH   6  19
ATOM     14  C   UNL     1       6.727   3.918  -2.240  0.00  0.00    +0.044 C 
ATOM     15  C   UNL     1       6.889   4.233  -0.775  0.00  0.00    -0.049 A 
ATOM     16  C   UNL     1       8.107   4.678  -0.295  0.00  0.00    +0.004 A 
ATOM     17  C   UNL     1       8.260   4.968   1.048  0.00  0.00    +0.005 A 
ATOM     18  C   UNL     1       7.194   4.820   1.914  0.00  0.00    -0.029 A 
ATOM     19  C   UNL     1       5.970   4.370   1.436  0.00  0.00    +0.033 A 
ATOM     20  C   UNL     1       5.820   4.079   0.085  0.00  0.00    +0.026 A 
ATOM     21  C   UNL     1       7.360   5.143   3.376  0.00  0.00    +0.045 C 
ENDBRANCH   6  19
ENDBRANCH   1  12
BRANCH   5  22
ATOM     22  C   UNL     1      -0.701   1.477   1.216  0.00  0.00    +0.035 C 
ATOM     23  C   UNL     1      -1.812   2.467   1.577  0.00  0.00    -0.010 C 
ATOM     24  C   UNL     1      -2.449   3.002   0.292  0.00  0.00    -0.082 C 
ATOM     25  C   UNL     1      -0.372   2.724  -0.923  0.00  0.00    -0.082 C 
ATOM     26  C   UNL     1       0.328   2.181   0.325  0.00  0.00    -0.010 C 
ATOM     27  N   UNL     1      -1.425   3.678  -0.527  0.00  0.00    +0.379 N 
ATOM     28  H   UNL     1      -1.005   4.440   0.018  0.00  0.00    -0.086 HD
ATOM     29  H   UNL     1      -1.867   4.063  -1.370  0.00  0.00    -0.086 HD
ENDBRANCH   5  22
BRANCH   4  30
ATOM     30  C   UNL     1      -0.752  -1.343   2.397  0.00  0.00    +0.066 A 
ATOM     31  C   UNL     1      -2.035  -1.171   1.894  0.00  0.00    +0.031 A 
ATOM     32  C   UNL     1      -2.702  -2.239   1.327  0.00  0.00    +0.048 A 
ATOM     33  C   UNL     1      -2.095  -3.485   1.269  0.00  0.00    +0.120 A 
ATOM     34  C   UNL     1      -0.815  -3.658   1.776  0.00  0.00    +0.048 A 
ATOM     35  C   UNL     1      -0.145  -2.590   2.338  0.00  0.00    +0.031 A 
BRANCH  33  36
ATOM     36  O   UNL     1      -2.755  -4.537   0.716  0.00  0.00    -0.495 OA
ATOM     37  C   UNL     1      -4.069  -4.287   0.214  0.00  0.00    +0.277 C 
ENDBRANCH  33  36
ENDBRANCH   4  30
TORSDOF 5
