REMARK  Name = ZINC14551250
REMARK  3 active torsions:
REMARK  status: ('A' for Active; 'I' for Inactive)
REMARK    1  A    between atoms: C_4  and  C_7
REMARK    2  A    between atoms: C_17  and  N_24
REMARK    3  A    between atoms: C_20  and  O_23
REMARK                            x       y       z     vdW  Elec       q    Type
REMARK                         _______ _______ _______ _____ _____    ______ ____
ROOT
ATOM      1  C   UNL     1       2.949  -0.597  -0.220  0.00  0.00    +0.105 C 
ATOM      2  C   UNL     1       3.402  -0.849   1.207  0.00  0.00    +0.029 C 
ATOM      3  C   UNL     1       3.222   0.297   2.211  0.00  0.00    +0.033 C 
ATOM      4  C   UNL     1       3.039  -0.469   3.523  0.00  0.00    -0.030 C 
ATOM      5  C   UNL     1       2.556  -1.681   3.277  0.00  0.00    -0.023 C 
ATOM      6  C   UNL     1       2.361  -1.843   1.804  0.00  0.00    +0.051 C 
ATOM      7  C   UNL     1       2.522  -3.139   1.108  0.00  0.00    +0.014 A 
ATOM      8  C   UNL     1       2.346  -4.349   1.748  0.00  0.00    +0.132 A 
ATOM      9  C   UNL     1       2.493  -5.535   1.053  0.00  0.00    +0.037 A 
ATOM     10  C   UNL     1       2.818  -5.513  -0.291  0.00  0.00    +0.049 A 
ATOM     11  C   UNL     1       3.002  -4.306  -0.941  0.00  0.00    +0.138 A 
ATOM     12  C   UNL     1       2.862  -3.106  -0.246  0.00  0.00    +0.076 A 
ATOM     13  N   UNL     1       3.089  -1.893  -0.920  0.00  0.00    -0.334 N 
ATOM     14  H   UNL     1       3.341  -1.904  -1.856  0.00  0.00    +0.147 HD
ENDROOT
BRANCH   1  18
ATOM     15  C   UNL     1      -1.129   0.676  -0.274  0.00  0.00    +0.000 A 
ATOM     16  C   UNL     1      -0.116   1.607  -0.137  0.00  0.00    +0.000 A 
ATOM     17  C   UNL     1       1.204   1.195  -0.119  0.00  0.00    +0.005 A 
ATOM     18  C   UNL     1       1.510  -0.148  -0.238  0.00  0.00    -0.027 A 
ATOM     19  C   UNL     1       0.498  -1.079  -0.374  0.00  0.00    +0.005 A 
ATOM     20  C   UNL     1      -0.822  -0.667  -0.393  0.00  0.00    +0.000 A 
ENDBRANCH   1  18
BRANCH   8  21
ATOM     21  N   UNL     1       1.997  -4.377   3.186  0.00  0.00    +0.057 N 
ATOM     22  O   UNL     1       2.658  -5.036   3.955  0.00  0.00    -0.126 OA
ATOM     23  O   UNL     1       1.052  -3.741   3.591  0.00  0.00    -0.126 OA
ENDBRANCH   8  21
BRANCH  11  24
ATOM     24  O   UNL     1       3.321  -4.290  -2.264  0.00  0.00    -0.505 OA
ATOM     25  H   UNL     1       2.554  -4.266  -2.853  0.00  0.00    +0.292 HD
ENDBRANCH  11  24
TORSDOF 3
