REMARK  Name = ZINC63720191
REMARK  6 active torsions:
REMARK  status: ('A' for Active; 'I' for Inactive)
REMARK    1  A    between atoms: C_4  and  C_7
REMARK    2  A    between atoms: C_7  and  C_9
REMARK    3  A    between atoms: C_7  and  O_41
REMARK    4  A    between atoms: C_9  and  N_10
REMARK    5  A    between atoms: C_30  and  C_32
REMARK    6  A    between atoms: C_36  and  N_38
REMARK                            x       y       z     vdW  Elec       q    Type
REMARK                         _______ _______ _______ _____ _____    ______ ____
ROOT
ATOM      1  N   UNL     1       5.310  -1.965   1.214  0.00  0.00    -0.288 N 
ATOM      2  C   UNL     1       5.483  -3.393   1.007  0.00  0.00    +0.203 C 
ATOM      3  C   UNL     1       6.915  -3.806   1.088  0.00  0.00    +0.234 C 
ATOM      4  O   UNL     1       7.172  -4.981   0.929  0.00  0.00    -0.274 OA
ATOM      5  N   UNL     1       7.935  -2.973   1.323  0.00  0.00    -0.279 N 
ATOM      6  C   UNL     1       7.749  -1.543   1.549  0.00  0.00    +0.167 C 
ATOM      7  C   UNL     1       6.319  -1.128   1.453  0.00  0.00    +0.237 C 
ATOM      8  O   UNL     1       6.057   0.046   1.607  0.00  0.00    -0.274 OA
ATOM      9  C   UNL     1       8.317  -1.150   2.925  0.00  0.00    +0.065 C 
ATOM     10  C   UNL     1       9.672  -1.804   3.033  0.00  0.00    -0.034 C 
ATOM     11  C   UNL     1      10.864  -1.312   3.348  0.00  0.00    -0.001 A 
ATOM     12  C   UNL     1      11.283   0.020   3.814  0.00  0.00    +0.010 A 
ATOM     13  C   UNL     1      12.615   0.190   4.026  0.00  0.00    +0.001 A 
ATOM     14  C   UNL     1      13.561  -0.819   3.823  0.00  0.00    +0.002 A 
ATOM     15  C   UNL     1      13.264  -2.076   3.405  0.00  0.00    +0.026 A 
ATOM     16  C   UNL     1      11.894  -2.378   3.158  0.00  0.00    +0.043 A 
ATOM     17  N   UNL     1      11.333  -3.489   2.780  0.00  0.00    -0.375 N 
ATOM     18  C   UNL     1       9.884  -3.285   2.742  0.00  0.00    +0.131 C 
ATOM     19  C   UNL     1       9.301  -3.544   1.351  0.00  0.00    +0.133 C 
ATOM     20  H   UNL     1      11.796  -4.312   2.560  0.00  0.00    +0.160 HD
ENDROOT
BRANCH  19  21
ATOM     21  C   UNL     1      10.156  -2.875   0.305  0.00  0.00    -0.023 A 
ATOM     22  C   UNL     1      10.350  -1.506   0.343  0.00  0.00    +0.005 A 
ATOM     23  C   UNL     1      11.134  -0.893  -0.615  0.00  0.00    +0.003 A 
ATOM     24  C   UNL     1      11.725  -1.647  -1.612  0.00  0.00    +0.033 A 
ATOM     25  C   UNL     1      11.531  -3.016  -1.649  0.00  0.00    +0.127 A 
ATOM     26  C   UNL     1      10.751  -3.630  -0.688  0.00  0.00    +0.038 A 
BRANCH  25  27
ATOM     27  N   UNL     1      12.163  -3.823  -2.716  0.00  0.00    +0.056 N 
ATOM     28  O   UNL     1      12.849  -3.287  -3.555  0.00  0.00    -0.126 OA
ATOM     29  O   UNL     1      11.994  -5.020  -2.749  0.00  0.00    -0.126 OA
ENDBRANCH  25  27
ENDBRANCH  19  21
BRANCH   1  30
ATOM     30  C   UNL     1       3.954  -1.415   1.151  0.00  0.00    +0.144 C 
BRANCH  30  31
ATOM     31  C   UNL     1       3.637  -1.005  -0.289  0.00  0.00    +0.162 C 
BRANCH  31  35
ATOM     32  C   UNL     1      -0.177   0.916  -0.417  0.00  0.00    +0.000 A 
ATOM     33  C   UNL     1       0.979   1.674  -0.418  0.00  0.00    +0.000 A 
ATOM     34  C   UNL     1       2.213   1.052  -0.377  0.00  0.00    +0.006 A 
ATOM     35  C   UNL     1       2.291  -0.327  -0.333  0.00  0.00    -0.018 A 
ATOM     36  C   UNL     1       1.135  -1.085  -0.332  0.00  0.00    +0.006 A 
ATOM     37  C   UNL     1      -0.099  -0.464  -0.375  0.00  0.00    +0.000 A 
ENDBRANCH  31  35
BRANCH  31  38
ATOM     38  O   UNL     1       3.613  -2.166  -1.121  0.00  0.00    -0.386 OA
ATOM     39  H   UNL     1       2.953  -2.824  -0.859  0.00  0.00    +0.210 HD
ENDBRANCH  31  38
ENDBRANCH  30  31
ENDBRANCH   1  30
TORSDOF 6
