REMARK  Name = ZINC07487253
REMARK  8 active torsions:
REMARK  status: ('A' for Active; 'I' for Inactive)
REMARK    1  A    between atoms: C_1  and  C_2
REMARK    2  A    between atoms: C_2  and  N_61
REMARK    3  A    between atoms: C_3  and  C_4
REMARK    4  A    between atoms: C_3  and  N_61
REMARK    5  A    between atoms: C_16  and  C_17
REMARK    6  A    between atoms: C_16  and  N_61
REMARK    7  A    between atoms: N_19  and  C_20
REMARK    8  A    between atoms: N_19  and  C_26
REMARK                            x       y       z     vdW  Elec       q    Type
REMARK                         _______ _______ _______ _____ _____    ______ ____
ROOT
ATOM      1  N   UNL     1       2.846  -2.848   1.776  0.00  0.00    +0.390 N 
ATOM      2  H   UNL     1       2.312  -3.715   1.906  0.00  0.00    -0.081 HD
ENDROOT
BRANCH   1   4
ATOM      3  C   UNL     1       4.961  -1.902   0.913  0.00  0.00    -0.017 C 
ATOM      4  C   UNL     1       4.145  -3.175   1.150  0.00  0.00    -0.081 C 
ENDBRANCH   1   4
BRANCH   1   5
ATOM      5  C   UNL     1       3.065  -2.216   3.094  0.00  0.00    -0.003 C 
BRANCH   5   6
ATOM      6  C   UNL     1       3.522  -3.272   4.067  0.00  0.00    +0.094 A 
ATOM      7  N   UNL     1       3.784  -2.898   5.347  0.00  0.00    -0.312 N 
ATOM      8  H   UNL     1       3.671  -1.942   5.617  0.00  0.00    +0.170 HD
ATOM      9  C   UNL     1       4.197  -3.809   6.260  0.00  0.00    +0.259 A 
ATOM     10  O   UNL     1       4.435  -3.488   7.409  0.00  0.00    -0.267 OA
ATOM     11  C   UNL     1       4.347  -5.200   5.808  0.00  0.00    +0.065 A 
ATOM     12  C   UNL     1       4.766  -6.213   6.668  0.00  0.00    +0.015 A 
ATOM     13  C   UNL     1       4.888  -7.500   6.192  0.00  0.00    +0.001 A 
ATOM     14  C   UNL     1       4.598  -7.793   4.866  0.00  0.00    +0.002 A 
ATOM     15  C   UNL     1       4.183  -6.807   4.000  0.00  0.00    +0.028 A 
ATOM     16  C   UNL     1       4.052  -5.495   4.458  0.00  0.00    +0.078 A 
ATOM     17  N   UNL     1       3.641  -4.493   3.641  0.00  0.00    -0.236 NA
ENDBRANCH   5   6
ENDBRANCH   1   5
BRANCH   1  18
ATOM     18  C   UNL     1       2.079  -1.938   0.900  0.00  0.00    +0.020 C 
BRANCH  18  19
ATOM     19  C   UNL     1       1.681  -2.684  -0.347  0.00  0.00    +0.203 C 
ATOM     20  O   UNL     1       1.927  -3.868  -0.451  0.00  0.00    -0.277 OA
ATOM     21  N   UNL     1       1.052  -2.037  -1.348  0.00  0.00    -0.270 N 
BRANCH  21  22
ATOM     22  C   UNL     1       0.577  -2.751  -2.454  0.00  0.00    +0.036 A 
ATOM     23  C   UNL     1       0.062  -2.073  -3.551  0.00  0.00    +0.023 A 
ATOM     24  C   UNL     1      -0.401  -2.781  -4.643  0.00  0.00    +0.002 A 
ATOM     25  C   UNL     1      -0.362  -4.163  -4.640  0.00  0.00    +0.000 A 
ATOM     26  C   UNL     1       0.146  -4.841  -3.547  0.00  0.00    +0.002 A 
ATOM     27  C   UNL     1       0.616  -4.139  -2.454  0.00  0.00    +0.023 A 
ENDBRANCH  21  22
BRANCH  21  28
ATOM     28  C   UNL     1       0.866  -0.586  -1.279  0.00  0.00    +0.081 C 
ATOM     29  C   UNL     1       1.680   0.087  -2.386  0.00  0.00    +0.023 C 
ATOM     30  C   UNL     1       1.485   1.603  -2.313  0.00  0.00    +0.002 C 
ATOM     31  C   UNL     1       0.003   1.936  -2.496  0.00  0.00    +0.000 C 
ATOM     32  C   UNL     1      -0.811   1.264  -1.388  0.00  0.00    +0.002 C 
ATOM     33  C   UNL     1      -0.616  -0.252  -1.461  0.00  0.00    +0.023 C 
ENDBRANCH  21  28
ENDBRANCH  18  19
ENDBRANCH   1  18
TORSDOF 7
