REMARK  Name = ZINC58147948
REMARK  9 active torsions:
REMARK  status: ('A' for Active; 'I' for Inactive)
REMARK    1  A    between atoms: C_1  and  C_2
REMARK    2  A    between atoms: C_5  and  C_8
REMARK    3  A    between atoms: C_8  and  C_10
REMARK    4  A    between atoms: C_8  and  N_31
REMARK    5  A    between atoms: C_10  and  N_11
REMARK    6  A    between atoms: C_12  and  C_14
REMARK    7  A    between atoms: C_20  and  C_22
REMARK    8  A    between atoms: C_27  and  O_28
REMARK    9  A    between atoms: O_28  and  C_29
REMARK                            x       y       z     vdW  Elec       q    Type
REMARK                         _______ _______ _______ _____ _____    ______ ____
ROOT
ATOM      1  N   UNL     1       1.213  -6.627   0.455  0.00  0.00    -0.315 N 
ATOM      2  C   UNL     1       2.344  -7.357   0.533  0.00  0.00    +0.234 C 
ATOM      3  O   UNL     1       3.413  -6.804   0.678  0.00  0.00    -0.274 OA
ATOM      4  H   UNL     1       0.358  -7.069   0.338  0.00  0.00    +0.149 HD
ENDROOT
BRANCH   2   5
ATOM      5  C   UNL     1       2.278  -8.859   0.439  0.00  0.00    +0.162 C 
ATOM      6  C   UNL     1       1.437  -9.422   1.604  0.00  0.00    +0.033 C 
ATOM      7  C   UNL     1       2.201 -10.715   1.992  0.00  0.00    +0.021 C 
ATOM      8  C   UNL     1       3.672 -10.290   1.756  0.00  0.00    +0.109 C 
ATOM      9  N   UNL     1       3.629  -9.427   0.558  0.00  0.00    -0.286 N 
ATOM     10  C   UNL     1       4.655  -9.197  -0.286  0.00  0.00    +0.251 C 
ATOM     11  O   UNL     1       4.479  -8.534  -1.290  0.00  0.00    -0.270 OA
BRANCH  10  12
ATOM     12  C   UNL     1       5.990  -9.750   0.009  0.00  0.00    +0.080 A 
ATOM     13  C   UNL     1       6.449  -9.815   1.327  0.00  0.00    +0.036 A 
ATOM     14  C   UNL     1       7.698 -10.333   1.595  0.00  0.00    +0.042 A 
ATOM     15  C   UNL     1       8.502 -10.790   0.562  0.00  0.00    +0.023 A 
ATOM     16  C   UNL     1       8.060 -10.731  -0.745  0.00  0.00    +0.048 A 
ATOM     17  C   UNL     1       6.804 -10.219  -1.032  0.00  0.00    +0.132 A 
ATOM     18 CL   UNL     1       8.267 -10.413   3.233  0.00  0.00    -0.084 Cl
BRANCH  17  19
ATOM     19  O   UNL     1       6.367 -10.166  -2.315  0.00  0.00    -0.494 OA
ATOM     20  C   UNL     1       7.251 -10.661  -3.322  0.00  0.00    +0.277 C 
ENDBRANCH  17  19
ENDBRANCH  10  12
ENDBRANCH   2   5
BRANCH   1  21
ATOM     21  C   UNL     1       1.277  -5.166   0.545  0.00  0.00    +0.093 C 
BRANCH  21  22
ATOM     22  C   UNL     1      -0.141  -4.592   0.528  0.00  0.00    -0.020 C 
BRANCH  22  27
ATOM     23  C   UNL     1      -2.618  -5.722  -4.569  0.00  0.00    +0.044 C 
ATOM     24  C   UNL     1      -1.972  -5.427  -3.240  0.00  0.00    -0.050 A 
ATOM     25  C   UNL     1      -2.265  -6.212  -2.140  0.00  0.00    +0.003 A 
ATOM     26  C   UNL     1      -1.672  -5.942  -0.921  0.00  0.00    +0.002 A 
ATOM     27  C   UNL     1      -0.786  -4.887  -0.801  0.00  0.00    -0.059 A 
ATOM     28  C   UNL     1      -0.493  -4.103  -1.901  0.00  0.00    +0.002 A 
ATOM     29  C   UNL     1      -1.082  -4.376  -3.122  0.00  0.00    +0.003 A 
ENDBRANCH  22  27
BRANCH  22  30
ATOM     30  N   UNL     1      -0.084  -3.138   0.732  0.00  0.00    +0.385 N 
ATOM     31  C   UNL     1      -1.454  -2.565   0.725  0.00  0.00    -0.078 C 
ATOM     32  C   UNL     1      -1.282  -1.226   1.485  0.00  0.00    -0.020 C 
ATOM     33  C   UNL     1      -0.261  -1.583   2.589  0.00  0.00    -0.020 C 
ATOM     34  C   UNL     1       0.474  -2.832   2.067  0.00  0.00    -0.078 C 
ATOM     35  H   UNL     1       0.479  -2.708   0.013  0.00  0.00    -0.081 HD
ENDBRANCH  22  30
ENDBRANCH  21  22
ENDBRANCH   1  21
TORSDOF 7
