REMARK  Name = ZINC64520853
REMARK  10 active torsions:
REMARK  status: ('A' for Active; 'I' for Inactive)
REMARK    1  A    between atoms: C_1  and  C_2
REMARK    2  A    between atoms: C_4  and  S_9
REMARK    3  A    between atoms: C_5  and  C_8
REMARK    4  A    between atoms: S_9  and  N_12
REMARK    5  A    between atoms: C_15  and  C_18
REMARK    6  A    between atoms: C_18  and  C_20
REMARK    7  A    between atoms: C_18  and  C_21
REMARK    8  A    between atoms: N_23  and  C_24
REMARK    9  A    between atoms: C_24  and  C_25
REMARK   10  A    between atoms: C_25  and  C_26
REMARK                            x       y       z     vdW  Elec       q    Type
REMARK                         _______ _______ _______ _____ _____    ______ ____
ROOT
ATOM      1  C   UNL     1       2.359   5.041  -1.969  0.00  0.00    +0.075 C 
ATOM      2  C   UNL     1       3.672   5.480  -2.621  0.00  0.00    +0.017 C 
ENDROOT
BRANCH   1   6
ATOM      3  N   UNL     1       0.692   1.342  -3.251  0.00  0.00    -0.177 NA
ATOM      4  C   UNL     1      -0.267   2.433  -3.032  0.00  0.00    +0.110 C 
ATOM      5  C   UNL     1       0.397   3.506  -2.163  0.00  0.00    +0.021 C 
ATOM      6  C   UNL     1       1.710   3.945  -2.816  0.00  0.00    +0.003 C 
ATOM      7  C   UNL     1       2.658   2.747  -2.914  0.00  0.00    +0.021 C 
ATOM      8  C   UNL     1       2.022   1.666  -3.785  0.00  0.00    +0.110 C 
BRANCH   3   9
ATOM      9  S   UNL     1       0.284  -0.224  -2.897  0.00  0.00    +0.061 S 
ATOM     10  O   UNL     1       1.123  -1.052  -3.691  0.00  0.00    -0.153 OA
ATOM     11  O   UNL     1      -1.134  -0.297  -2.954  0.00  0.00    -0.153 OA
BRANCH   9  14
ATOM     12  C   UNL     1      -0.019   1.526   0.010  0.00  0.00    +0.047 C 
ATOM     13  C   UNL     1       0.002  -0.004   0.002  0.00  0.00    +0.196 C 
ATOM     14  C   UNL     1       0.735  -0.512  -1.218  0.00  0.00    +0.134 C 
ATOM     15  C   UNL     1       1.772  -1.208  -0.801  0.00  0.00    +0.061 C 
ATOM     16  N   UNL     1       1.832  -1.235   0.581  0.00  0.00    -0.268 N 
ATOM     17  O   UNL     1       0.748  -0.498   1.124  0.00  0.00    -0.265 OA
ATOM     18  C   UNL     1       2.763  -1.888  -1.710  0.00  0.00    +0.067 C 
ATOM     19  H   UNL     1       2.513  -1.690   1.100  0.00  0.00    +0.194 HD
ENDBRANCH   9  14
ENDBRANCH   3   9
ENDBRANCH   1   6
BRANCH   1  20
ATOM     20  C   UNL     1       1.426   6.221  -1.874  0.00  0.00    +0.216 C 
ATOM     21  O   UNL     1       0.349   6.188  -2.430  0.00  0.00    -0.276 OA
ATOM     22  N   UNL     1       1.790   7.313  -1.173  0.00  0.00    -0.315 N 
ATOM     23  H   UNL     1       2.652   7.339  -0.728  0.00  0.00    +0.149 HD
BRANCH  22  24
ATOM     24  C   UNL     1       0.883   8.460  -1.080  0.00  0.00    +0.108 C 
BRANCH  24  25
ATOM     25  C   UNL     1       1.532   9.556  -0.233  0.00  0.00    +0.052 C 
BRANCH  25  26
ATOM     26  C   UNL     1       0.600  10.736  -0.139  0.00  0.00    -0.040 C 
ATOM     27  C   UNL     1      -0.281  10.999   0.854  0.00  0.00    -0.001 A 
ATOM     28  C   UNL     1      -0.621  10.292   2.095  0.00  0.00    +0.010 A 
ATOM     29  C   UNL     1      -1.567  10.813   2.909  0.00  0.00    +0.001 A 
ATOM     30  C   UNL     1      -2.230  12.009   2.597  0.00  0.00    +0.002 A 
ATOM     31  C   UNL     1      -1.972  12.715   1.476  0.00  0.00    +0.026 A 
ATOM     32  C   UNL     1      -0.995  12.259   0.549  0.00  0.00    +0.043 A 
ATOM     33  N   UNL     1      -0.572  12.756  -0.589  0.00  0.00    -0.380 N 
ATOM     34  C   UNL     1       0.463  11.869  -1.131  0.00  0.00    +0.144 C 
ATOM     35  H   UNL     1      -0.889  13.575  -1.001  0.00  0.00    +0.160 HD
ENDBRANCH  25  26
ENDBRANCH  24  25
ENDBRANCH  22  24
ENDBRANCH   1  20
TORSDOF 7
