REMARK  Name = ZINC64623196
REMARK  7 active torsions:
REMARK  status: ('A' for Active; 'I' for Inactive)
REMARK    1  A    between atoms: C_1  and  C_2
REMARK    2  A    between atoms: C_5  and  O_35
REMARK    3  A    between atoms: C_6  and  N_8
REMARK    4  A    between atoms: C_17  and  O_33
REMARK    5  A    between atoms: C_24  and  C_26
REMARK    6  A    between atoms: O_33  and  C_34
REMARK    7  A    between atoms: O_35  and  C_36
REMARK                            x       y       z     vdW  Elec       q    Type
REMARK                         _______ _______ _______ _____ _____    ______ ____
ROOT
ATOM      1  N   UNL     1      -0.133  -2.389   2.358  0.00  0.00    -0.266 N 
ATOM      2  C   UNL     1       0.051  -1.861   3.585  0.00  0.00    +0.307 C 
ATOM      3  O   UNL     1       0.121  -0.655   3.724  0.00  0.00    -0.252 OA
ATOM      4  N   UNL     1       0.156  -2.671   4.657  0.00  0.00    -0.276 N 
ATOM      5  C   UNL     1       0.172  -4.125   4.469  0.00  0.00    +0.114 C 
ATOM      6  C   UNL     1       1.465  -4.705   5.072  0.00  0.00    +0.052 C 
ATOM      7  C   UNL     1       1.638  -4.061   6.425  0.00  0.00    -0.035 C 
ATOM      8  C   UNL     1       1.842  -4.585   7.627  0.00  0.00    +0.003 A 
ATOM      9  C   UNL     1       2.081  -5.967   8.069  0.00  0.00    +0.055 A 
ATOM     10  C   UNL     1       2.234  -6.163   9.408  0.00  0.00    +0.121 A 
ATOM     11  C   UNL     1       2.175  -5.136  10.362  0.00  0.00    +0.047 A 
ATOM     12  C   UNL     1       1.968  -3.828  10.065  0.00  0.00    +0.029 A 
ATOM     13  C   UNL     1       1.797  -3.489   8.645  0.00  0.00    +0.043 A 
ATOM     14  N   UNL     1       1.610  -2.340   8.070  0.00  0.00    -0.375 N 
ATOM     15  C   UNL     1       1.576  -2.550   6.622  0.00  0.00    +0.131 C 
ATOM     16  C   UNL     1       0.259  -2.086   6.003  0.00  0.00    +0.134 C 
ATOM     17  H   UNL     1      -0.224  -3.348   2.251  0.00  0.00    +0.156 HD
ATOM     18  H   UNL     1       1.510  -1.488   8.522  0.00  0.00    +0.160 HD
ENDROOT
BRANCH   1  24
ATOM     19  C   UNL     1      -0.993   2.055   0.435  0.00  0.00    +0.044 C 
ATOM     20  C   UNL     1      -0.606   0.608   0.275  0.00  0.00    -0.048 A 
ATOM     21  C   UNL     1      -0.309   0.108  -0.980  0.00  0.00    +0.007 A 
ATOM     22  C   UNL     1       0.047  -1.219  -1.133  0.00  0.00    +0.048 A 
ATOM     23  C   UNL     1       0.107  -2.053  -0.028  0.00  0.00    +0.141 A 
ATOM     24  C   UNL     1      -0.192  -1.550   1.236  0.00  0.00    +0.077 A 
ATOM     25  C   UNL     1      -0.542  -0.216   1.383  0.00  0.00    +0.030 A 
BRANCH  23  26
ATOM     26  O   UNL     1       0.456  -3.358  -0.177  0.00  0.00    -0.493 OA
ATOM     27  C   UNL     1       0.748  -3.804  -1.503  0.00  0.00    +0.277 C 
ENDBRANCH  23  26
ENDBRANCH   1  24
BRANCH  16  28
ATOM     28  C   UNL     1      -0.893  -2.555   6.853  0.00  0.00    -0.025 A 
ATOM     29  C   UNL     1      -1.811  -1.641   7.338  0.00  0.00    +0.008 A 
ATOM     30  C   UNL     1      -2.868  -2.071   8.117  0.00  0.00    +0.038 A 
ATOM     31  C   UNL     1      -3.009  -3.416   8.413  0.00  0.00    +0.123 A 
ATOM     32  C   UNL     1      -2.089  -4.330   7.927  0.00  0.00    +0.038 A 
ATOM     33  C   UNL     1      -1.035  -3.899   7.143  0.00  0.00    +0.008 A 
ATOM     34  F   UNL     1      -4.042  -3.837   9.175  0.00  0.00    -0.205 F 
ENDBRANCH  16  28
BRANCH  10  35
ATOM     35  O   UNL     1       2.456  -7.430   9.846  0.00  0.00    -0.495 OA
ATOM     36  C   UNL     1       2.613  -7.611  11.255  0.00  0.00    +0.277 C 
ENDBRANCH  10  35
TORSDOF 4
