REMARK  Name = ZINC14536863
REMARK  10 active torsions:
REMARK  status: ('A' for Active; 'I' for Inactive)
REMARK    1  A    between atoms: C_1  and  N_2
REMARK    2  A    between atoms: N_2  and  C_3
REMARK    3  A    between atoms: N_2  and  S_4
REMARK    4  A    between atoms: S_4  and  C_7
REMARK    5  A    between atoms: C_9  and  C_20
REMARK    6  A    between atoms: C_11  and  N_13
REMARK    7  A    between atoms: N_13  and  C_14
REMARK    8  A    between atoms: C_14  and  C_15
REMARK    9  A    between atoms: N_22  and  C_23
REMARK   10  A    between atoms: C_23  and  C_24
REMARK                            x       y       z     vdW  Elec       q    Type
REMARK                         _______ _______ _______ _____ _____    ______ ____
ROOT
ATOM      1  C   UNL     1       1.173   1.782   0.000  0.00  0.00    +0.108 A 
ATOM      2  C   UNL     1      -0.013   1.076   0.008  0.00  0.00    +0.041 A 
ATOM      3  C   UNL     1      -1.231   1.757   0.017  0.00  0.00    +0.040 A 
ATOM      4  C   UNL     1      -1.244   3.152   0.031  0.00  0.00    +0.036 A 
ATOM      5  C   UNL     1      -0.048   3.852   0.023  0.00  0.00    +0.030 A 
ATOM      6  C   UNL     1       1.160   3.164   0.007  0.00  0.00    +0.051 A 
ENDROOT
BRANCH   3   7
ATOM      7  C   UNL     1      -2.502   1.003   0.019  0.00  0.00    +0.244 C 
ATOM      8  O   UNL     1      -2.488  -0.212   0.012  0.00  0.00    -0.270 OA
ATOM      9  N   UNL     1      -3.677   1.663   0.028  0.00  0.00    -0.311 N 
ATOM     10  H   UNL     1      -3.689   2.633   0.034  0.00  0.00    +0.149 HD
BRANCH   9  11
ATOM     11  C   UNL     1      -4.938   0.916   0.029  0.00  0.00    +0.106 C 
BRANCH  11  12
ATOM     12  C   UNL     1      -6.112   1.896   0.041  0.00  0.00    -0.008 C 
ATOM     13  C   UNL     1      -6.100   2.689   1.348  0.00  0.00    +0.002 C 
ATOM     14  C   UNL     1      -6.283   1.719   2.516  0.00  0.00    -0.018 C 
ATOM     15  C   UNL     1      -7.603   0.970   2.334  0.00  0.00    -0.078 C 
ATOM     16  C   UNL     1      -7.426   1.118  -0.084  0.00  0.00    -0.064 C 
ATOM     17  C   UNL     1      -7.377   0.306  -1.382  0.00  0.00    -0.015 C 
ATOM     18  C   UNL     1      -8.652  -0.526  -1.523  0.00  0.00    -0.003 C 
ATOM     19  C   UNL     1      -8.785  -1.438  -0.299  0.00  0.00    -0.019 C 
ATOM     20  C   UNL     1      -8.825  -0.572   0.960  0.00  0.00    -0.078 C 
ATOM     21  N   UNL     1      -7.576   0.204   1.077  0.00  0.00    +0.382 N 
ATOM     22  H   UNL     1      -6.779  -0.443   1.095  0.00  0.00    -0.081 HD
ENDBRANCH  11  12
ENDBRANCH   9  11
ENDBRANCH   3   7
BRANCH   1  23
ATOM     23  S   UNL     1       2.709   0.919  -0.019  0.00  0.00    +0.060 S 
ATOM     24  O   UNL     1       3.679   1.803   0.527  0.00  0.00    -0.153 OA
ATOM     25  O   UNL     1       2.458  -0.369   0.527  0.00  0.00    -0.153 OA
BRANCH  23  27
ATOM     26  C   UNL     1       3.925   1.691  -2.308  0.00  0.00    +0.131 C 
ATOM     27  N   UNL     1       3.121   0.688  -1.606  0.00  0.00    -0.183 NA
ATOM     28  C   UNL     1       2.681  -0.521  -2.308  0.00  0.00    +0.131 C 
ENDBRANCH  23  27
ENDBRANCH   1  23
BRANCH   5  29
ATOM     29  N   UNL     1      -0.056   5.249   0.031  0.00  0.00    -0.340 N 
ATOM     30  H   UNL     1       0.781   5.739   0.026  0.00  0.00    +0.146 HD
BRANCH  29  31
ATOM     31  C   UNL     1      -1.329   5.974   0.048  0.00  0.00    +0.140 C 
BRANCH  31  32
ATOM     32  C   UNL     1      -1.062   7.457   0.054  0.00  0.00    +0.007 A 
ATOM     33  C   UNL     1      -0.924   8.293  -1.078  0.00  0.00    +0.046 A 
ATOM     34  C   UNL     1      -0.696   9.537  -0.619  0.00  0.00    +0.195 A 
ATOM     35  O   UNL     1      -0.689   9.499   0.723  0.00  0.00    -0.471 OA
ATOM     36  C   UNL     1      -0.915   8.241   1.137  0.00  0.00    +0.200 A 
ENDBRANCH  31  32
ENDBRANCH  29  31
ENDBRANCH   5  29
TORSDOF 8
