REMARK  Name = ZINC39420485
REMARK  7 active torsions:
REMARK  status: ('A' for Active; 'I' for Inactive)
REMARK    1  A    between atoms: C_1  and  C_2
REMARK    2  A    between atoms: C_2  and  C_3
REMARK    3  A    between atoms: C_2  and  N_4
REMARK    4  A    between atoms: C_6  and  C_9
REMARK    5  A    between atoms: N_23  and  C_24
REMARK    6  A    between atoms: C_24  and  C_25
REMARK    7  A    between atoms: C_30  and  C_31
REMARK                            x       y       z     vdW  Elec       q    Type
REMARK                         _______ _______ _______ _____ _____    ______ ____
ROOT
ATOM      1  C   UNL     1      -4.505  -1.530   1.576  0.00  0.00    +0.013 C 
ATOM      2  C   UNL     1      -5.458  -0.360   1.649  0.00  0.00    +0.011 A 
ATOM      3  H   UNL     1      -4.572   0.974   2.981  0.00  0.00    +0.166 HD
ATOM      4  C   UNL     1      -6.613  -0.308   0.946  0.00  0.00    -0.022 A 
ATOM      5  C   UNL     1      -7.255   0.945   1.270  0.00  0.00    +0.003 A 
ATOM      6  C   UNL     1      -8.452   1.536   0.855  0.00  0.00    +0.010 A 
ATOM      7  C   UNL     1      -8.752   2.768   1.381  0.00  0.00    +0.001 A 
ATOM      8  C   UNL     1      -7.916   3.408   2.281  0.00  0.00    +0.002 A 
ATOM      9  C   UNL     1      -6.725   2.847   2.709  0.00  0.00    +0.026 A 
ATOM     10  C   UNL     1      -6.394   1.597   2.192  0.00  0.00    +0.047 A 
ATOM     11  N   UNL     1      -5.320   0.778   2.396  0.00  0.00    -0.359 N 
ATOM     12  C   UNL     1      -7.064  -1.406   0.016  0.00  0.00    +0.019 C 
ATOM     13  C   UNL     1      -5.857  -2.313  -0.261  0.00  0.00    -0.073 C 
ATOM     14  N   UNL     1      -5.219  -2.687   1.013  0.00  0.00    +0.389 N 
ATOM     15  H   UNL     1      -5.926  -2.993   1.664  0.00  0.00    -0.080 HD
ENDROOT
BRANCH   1  18
ATOM     16  N   UNL     1      -1.304  -0.912  -0.058  0.00  0.00    -0.269 N 
ATOM     17  C   UNL     1      -2.030  -1.351   0.992  0.00  0.00    +0.111 A 
ATOM     18  C   UNL     1      -3.337  -1.177   0.691  0.00  0.00    -0.018 A 
ATOM     19  C   UNL     1      -3.414  -0.611  -0.586  0.00  0.00    +0.136 A 
ATOM     20  N   UNL     1      -2.195  -0.446  -1.033  0.00  0.00    -0.179 NA
BRANCH  16  22
ATOM     21  C   UNL     1       0.717   0.344   0.509  0.00  0.00    +0.032 C 
ATOM     22  C   UNL     1       0.158  -0.915  -0.157  0.00  0.00    +0.101 C 
ATOM     23  C   UNL     1       0.714  -2.155   0.547  0.00  0.00    +0.032 C 
ENDBRANCH  16  22
ENDBRANCH   1  18
BRANCH  14  24
ATOM     24  C   UNL     1      -4.266  -3.781   0.783  0.00  0.00    -0.062 C 
BRANCH  24  25
ATOM     25  C   UNL     1      -5.023  -5.026   0.316  0.00  0.00    +0.062 C 
ATOM     26  C   UNL     1      -5.873  -5.588   1.438  0.00  0.00    +0.115 C 
ATOM     27  N   UNL     1      -5.424  -6.779   1.661  0.00  0.00    -0.161 NA
ATOM     28  N   UNL     1      -4.362  -7.111   0.826  0.00  0.00    -0.158 NA
ATOM     29  C   UNL     1      -4.058  -6.154   0.007  0.00  0.00    +0.051 C 
BRANCH  29  30
ATOM     30  C   UNL     1      -2.970  -6.158  -1.037  0.00  0.00    +0.036 C 
ATOM     31  C   UNL     1      -3.599  -6.073  -2.429  0.00  0.00    +0.009 C 
ATOM     32  C   UNL     1      -2.495  -6.077  -3.488  0.00  0.00    +0.001 C 
ATOM     33  C   UNL     1      -1.683  -7.368  -3.373  0.00  0.00    +0.000 C 
ATOM     34  C   UNL     1      -1.054  -7.453  -1.981  0.00  0.00    +0.001 C 
ATOM     35  C   UNL     1      -2.158  -7.449  -0.922  0.00  0.00    +0.009 C 
ENDBRANCH  29  30
ENDBRANCH  24  25
ENDBRANCH  14  24
TORSDOF 5
