REMARK  Name = ZINC58541602
REMARK  7 active torsions:
REMARK  status: ('A' for Active; 'I' for Inactive)
REMARK    1  A    between atoms: C_1  and  C_2
REMARK    2  A    between atoms: C_7  and  N_8
REMARK    3  A    between atoms: C_9  and  C_11
REMARK    4  A    between atoms: C_11  and  N_12
REMARK    5  A    between atoms: N_15  and  C_16
REMARK    6  A    between atoms: C_16  and  C_17
REMARK    7  A    between atoms: C_17  and  C_21
REMARK                            x       y       z     vdW  Elec       q    Type
REMARK                         _______ _______ _______ _____ _____    ______ ____
ROOT
ATOM      1  N   UNL     1       0.204  -1.915   5.893  0.00  0.00    -0.291 N 
ATOM      2  C   UNL     1       0.012  -1.211   7.026  0.00  0.00    +0.300 C 
ATOM      3  O   UNL     1       0.015   0.004   6.994  0.00  0.00    -0.253 OA
ATOM      4  N   UNL     1      -0.184  -1.854   8.194  0.00  0.00    -0.299 N 
ATOM      5  H   UNL     1       0.201  -2.885   5.918  0.00  0.00    +0.151 HD
ATOM      6  H   UNL     1      -0.187  -2.824   8.219  0.00  0.00    +0.150 HD
ENDROOT
BRANCH   1   7
ATOM      7  C   UNL     1       0.416  -1.216   4.623  0.00  0.00    +0.202 C 
BRANCH   7   9
ATOM      8  N   UNL     1       0.816  -1.809   2.255  0.00  0.00    -0.284 N 
ATOM      9  C   UNL     1       0.604  -2.225   3.519  0.00  0.00    +0.234 C 
ATOM     10  O   UNL     1       0.564  -3.411   3.769  0.00  0.00    -0.274 OA
ATOM     11  H   UNL     1       0.921  -0.863   2.067  0.00  0.00    +0.155 HD
BRANCH   8  18
ATOM     12  C   UNL     1       0.041  -0.973  -0.352  0.00  0.00    +0.046 C 
ATOM     13  C   UNL     1       0.517  -2.376  -0.074  0.00  0.00    -0.028 A 
ATOM     14  C   UNL     1       0.593  -3.296  -1.100  0.00  0.00    +0.020 A 
ATOM     15  C   UNL     1       1.029  -4.584  -0.846  0.00  0.00    +0.018 A 
ATOM     16  C   UNL     1       1.391  -4.954   0.438  0.00  0.00    +0.017 A 
ATOM     17  C   UNL     1       1.318  -4.037   1.468  0.00  0.00    +0.024 A 
ATOM     18  C   UNL     1       0.886  -2.742   1.214  0.00  0.00    +0.036 A 
ATOM     19 BR   UNL     1       1.130  -5.842  -2.254  0.00  0.00    -0.050 Br
ENDBRANCH   8  18
ENDBRANCH   7   9
ENDBRANCH   1   7
BRANCH   4  20
ATOM     20  C   UNL     1      -0.393  -1.089   9.426  0.00  0.00    +0.117 C 
BRANCH  20  21
ATOM     21  C   UNL     1      -0.459  -2.047  10.617  0.00  0.00    +0.011 C 
ATOM     22  C   UNL     1      -0.090  -1.390  11.957  0.00  0.00    +0.013 C 
ATOM     23  C   UNL     1       1.367  -1.780  11.657  0.00  0.00    +0.002 C 
ATOM     24  C   UNL     1       0.802  -2.912  10.783  0.00  0.00    +0.013 C 
BRANCH  21  25
ATOM     25  C   UNL     1      -1.742  -2.836  10.662  0.00  0.00    -0.040 A 
ATOM     26  C   UNL     1      -1.706  -4.217  10.620  0.00  0.00    +0.004 A 
ATOM     27  C   UNL     1      -2.883  -4.941  10.662  0.00  0.00    +0.000 A 
ATOM     28  C   UNL     1      -4.096  -4.283  10.746  0.00  0.00    +0.000 A 
ATOM     29  C   UNL     1      -4.132  -2.902  10.789  0.00  0.00    +0.000 A 
ATOM     30  C   UNL     1      -2.955  -2.179  10.751  0.00  0.00    +0.004 A 
ENDBRANCH  21  25
ENDBRANCH  20  21
ENDBRANCH   4  20
TORSDOF 6
