REMARK  Name = ZINC20920557
REMARK  11 active torsions:
REMARK  status: ('A' for Active; 'I' for Inactive)
REMARK    1  A    between atoms: C_1  and  C_2
REMARK    2  A    between atoms: C_2  and  C_3
REMARK    3  A    between atoms: C_2  and  N_4
REMARK    4  A    between atoms: C_6  and  C_9
REMARK    5  A    between atoms: N_10  and  N_11
REMARK    6  A    between atoms: C_15  and  S_18
REMARK    7  A    between atoms: N_16  and  N_17
REMARK    8  A    between atoms: S_18  and  C_19
REMARK    9  A    between atoms: C_19  and  C_20
REMARK   10  A    between atoms: N_22  and  C_23
REMARK   11  A    between atoms: C_28  and  C_29
REMARK                            x       y       z     vdW  Elec       q    Type
REMARK                         _______ _______ _______ _____ _____    ______ ____
ROOT
ATOM      1  N   UNL     1     -11.175   0.438  -0.650  0.00  0.00    -0.204 N 
ATOM      2  C   UNL     1      -9.793   0.467  -0.543  0.00  0.00    +0.254 A 
ATOM      3  N   UNL     1      -9.047   1.544  -0.477  0.00  0.00    -0.109 NA
ATOM      4  N   UNL     1      -7.710   1.139  -0.372  0.00  0.00    -0.119 NA
ATOM      5  C   UNL     1      -7.682  -0.173  -0.385  0.00  0.00    +0.210 A 
ATOM      6  N   UNL     1      -8.968  -0.622  -0.487  0.00  0.00    -0.211 N 
ATOM      7  H   UNL     1     -11.703  -0.525  -0.699  0.00  0.00    +0.177 HD
ENDROOT
BRANCH   6   8
ATOM      8  N   UNL     1      -9.361  -1.929  -0.528  0.00  0.00    -0.294 N 
ATOM      9  H   UNL     1      -8.610  -2.731  -0.476  0.00  0.00    +0.163 HD
ATOM     10  H   UNL     1     -10.428  -2.181  -0.614  0.00  0.00    +0.163 HD
ENDBRANCH   6   8
BRANCH   1  12
ATOM     11  C   UNL     1     -13.193   1.610  -0.798  0.00  0.00    +0.141 C 
ATOM     12  N   UNL     1     -11.899   1.637  -0.698  0.00  0.00    -0.187 NA
BRANCH  11  15
ATOM     13  N   UNL     1     -15.610   4.314  -0.964  0.00  0.00    -0.268 N 
ATOM     14  C   UNL     1     -15.324   2.996  -0.952  0.00  0.00    +0.118 A 
ATOM     15  C   UNL     1     -13.956   2.872  -0.847  0.00  0.00    +0.032 A 
ATOM     16  C   UNL     1     -13.420   4.177  -0.790  0.00  0.00    +0.143 A 
ATOM     17  N   UNL     1     -14.409   5.026  -0.865  0.00  0.00    -0.179 NA
BRANCH  13  19
ATOM     18  C   UNL     1     -17.355   5.001  -2.534  0.00  0.00    +0.032 C 
ATOM     19  C   UNL     1     -16.949   4.901  -1.062  0.00  0.00    +0.101 C 
ATOM     20  C   UNL     1     -17.949   4.016  -0.316  0.00  0.00    +0.032 C 
ENDBRANCH  13  19
ENDBRANCH  11  15
ENDBRANCH   1  12
BRANCH   5  21
ATOM     21  S   UNL     1      -6.239  -1.178  -0.280  0.00  0.00    -0.075 S 
BRANCH  21  22
ATOM     22  C   UNL     1      -4.878   0.016  -0.166  0.00  0.00    +0.173 C 
BRANCH  22  23
ATOM     23  C   UNL     1      -3.568  -0.722  -0.069  0.00  0.00    +0.227 C 
ATOM     24  O   UNL     1      -3.554  -1.935  -0.076  0.00  0.00    -0.275 OA
ATOM     25  N   UNL     1      -2.413  -0.035   0.025  0.00  0.00    -0.284 N 
ATOM     26  H   UNL     1      -2.431   1.061   0.123  0.00  0.00    +0.155 HD
BRANCH  25  27
ATOM     27  C   UNL     1      -1.190  -0.714  -0.002  0.00  0.00    +0.045 A 
ATOM     28  C   UNL     1      -1.097  -1.956  -0.618  0.00  0.00    +0.024 A 
ATOM     29  C   UNL     1       0.111  -2.624  -0.642  0.00  0.00    +0.002 A 
ATOM     30  C   UNL     1       1.228  -2.059  -0.054  0.00  0.00    +0.001 A 
ATOM     31  C   UNL     1       1.140  -0.821   0.555  0.00  0.00    +0.014 A 
ATOM     32  C   UNL     1      -0.067  -0.150   0.588  0.00  0.00    +0.076 A 
BRANCH  32  33
ATOM     33  C   UNL     1      -0.163   1.197   1.258  0.00  0.00    +0.419 C 
ATOM     34  F   UNL     1       1.088   1.552   1.773  0.00  0.00    -0.166 F 
ATOM     35  F   UNL     1      -0.571   2.155   0.323  0.00  0.00    -0.166 F 
ATOM     36  F   UNL     1      -1.096   1.135   2.299  0.00  0.00    -0.166 F 
ENDBRANCH  32  33
ENDBRANCH  25  27
ENDBRANCH  22  23
ENDBRANCH  21  22
ENDBRANCH   5  21
TORSDOF 9
