REMARK  Name = ZINC39988946
REMARK  5 active torsions:
REMARK  status: ('A' for Active; 'I' for Inactive)
REMARK    1  A    between atoms: C_1  and  C_2
REMARK    2  A    between atoms: C_6  and  C_8
REMARK    3  A    between atoms: C_11  and  C_35
REMARK    4  A    between atoms: C_14  and  C_16
REMARK    5  A    between atoms: C_18  and  C_29
REMARK                            x       y       z     vdW  Elec       q    Type
REMARK                         _______ _______ _______ _____ _____    ______ ____
ROOT
ATOM      1  C   UNL     1      -0.350  -2.370   1.754  0.00  0.00    +0.266 C 
ATOM      2  O   UNL     1      -0.361  -1.608   2.702  0.00  0.00    -0.268 OA
ATOM      3  N   UNL     1      -0.405  -3.701   1.958  0.00  0.00    -0.178 N 
ATOM      4  C   UNL     1      -0.610  -4.362   3.257  0.00  0.00    +0.173 C 
ATOM      5  C   UNL     1      -0.585  -5.862   2.898  0.00  0.00    +0.086 C 
ATOM      6  C   UNL     1      -0.364  -5.871   1.403  0.00  0.00    +0.056 C 
ATOM      7  N   UNL     1      -0.284  -4.679   0.973  0.00  0.00    -0.184 NA
ENDROOT
BRANCH   6   8
ATOM      8  C   UNL     1      -0.260  -7.109   0.549  0.00  0.00    +0.152 C 
ATOM      9  C   UNL     1       0.176  -6.682  -0.839  0.00  0.00    -0.014 C 
ATOM     10  C   UNL     1      -0.666  -7.021  -1.901  0.00  0.00    +0.002 A 
ATOM     11  C   UNL     1      -0.336  -6.664  -3.225  0.00  0.00    +0.030 A 
ATOM     12  C   UNL     1      -1.174  -7.007  -4.242  0.00  0.00    +0.042 A 
ATOM     13  C   UNL     1      -2.356  -7.707  -4.001  0.00  0.00    +0.022 A 
ATOM     14  C   UNL     1      -2.727  -8.079  -2.745  0.00  0.00    +0.025 A 
ATOM     15  C   UNL     1      -1.909  -7.758  -1.647  0.00  0.00    +0.041 A 
ATOM     16  N   UNL     1      -2.276  -8.125  -0.414  0.00  0.00    -0.284 N 
ATOM     17  C   UNL     1      -1.566  -7.862   0.665  0.00  0.00    +0.230 C 
ATOM     18  O   UNL     1      -1.962  -8.228   1.756  0.00  0.00    -0.274 OA
ATOM     19 CL   UNL     1      -0.764  -6.564  -5.869  0.00  0.00    -0.084 Cl
ATOM     20  H   UNL     1      -3.109  -8.611  -0.309  0.00  0.00    +0.155 HD
BRANCH   9  21
ATOM     21  C   UNL     1       1.384  -5.970  -1.050  0.00  0.00    -0.020 A 
ATOM     22  C   UNL     1       1.401  -4.837  -1.880  0.00  0.00    +0.008 A 
ATOM     23  C   UNL     1       2.580  -4.153  -2.078  0.00  0.00    +0.001 A 
ATOM     24  C   UNL     1       3.746  -4.579  -1.462  0.00  0.00    +0.000 A 
ATOM     25  C   UNL     1       3.739  -5.695  -0.641  0.00  0.00    +0.001 A 
ATOM     26  C   UNL     1       2.570  -6.390  -0.425  0.00  0.00    +0.008 A 
ENDBRANCH   9  21
ENDBRANCH   6   8
BRANCH   1  32
ATOM     27  C   UNL     1       0.245   1.490  -1.352  0.00  0.00    +0.044 C 
ATOM     28  C   UNL     1       0.009   0.020  -1.121  0.00  0.00    -0.050 A 
ATOM     29  C   UNL     1      -0.141  -0.834  -2.200  0.00  0.00    +0.003 A 
ATOM     30  C   UNL     1      -0.359  -2.184  -1.997  0.00  0.00    +0.001 A 
ATOM     31  C   UNL     1      -0.428  -2.690  -0.715  0.00  0.00    +0.013 A 
ATOM     32  C   UNL     1      -0.277  -1.835   0.378  0.00  0.00    +0.039 A 
ATOM     33  C   UNL     1      -0.053  -0.474   0.166  0.00  0.00    +0.016 A 
ENDBRANCH   1  32
BRANCH   4  34
ATOM     34  C   UNL     1      -1.941  -3.975   3.848  0.00  0.00    +0.128 A 
ATOM     35  C   UNL     1      -2.185  -3.733   5.148  0.00  0.00    +0.046 A 
ATOM     36  C   UNL     1      -3.556  -3.407   5.254  0.00  0.00    +0.041 A 
ATOM     37  C   UNL     1      -4.069  -3.469   4.012  0.00  0.00    +0.195 A 
ATOM     38  O   UNL     1      -3.085  -3.808   3.163  0.00  0.00    -0.466 OA
ENDBRANCH   4  34
TORSDOF 4
