REMARK  Name = ZINC47617532
REMARK  10 active torsions:
REMARK  status: ('A' for Active; 'I' for Inactive)
REMARK    1  A    between atoms: C_1  and  C_2
REMARK    2  A    between atoms: C_2  and  C_3
REMARK    3  A    between atoms: C_2  and  C_4
REMARK    4  A    between atoms: C_2  and  C_5
REMARK    5  A    between atoms: C_11  and  N_13
REMARK    6  A    between atoms: N_16  and  C_17
REMARK    7  A    between atoms: C_17  and  C_18
REMARK    8  A    between atoms: C_18  and  C_19
REMARK    9  A    between atoms: C_22  and  S_25
REMARK   10  A    between atoms: S_25  and  N_28
REMARK                            x       y       z     vdW  Elec       q    Type
REMARK                         _______ _______ _______ _____ _____    ______ ____
ROOT
ATOM      1  N   UNL     1       2.163   1.387  -1.333  0.00  0.00    -0.296 N 
ATOM      2  C   UNL     1       3.323   1.978  -0.984  0.00  0.00    +0.300 C 
ATOM      3  O   UNL     1       4.295   1.299  -0.718  0.00  0.00    -0.253 OA
ATOM      4  N   UNL     1       3.405   3.322  -0.929  0.00  0.00    -0.299 N 
ATOM      5  H   UNL     1       1.387   1.930  -1.546  0.00  0.00    +0.151 HD
ATOM      6  H   UNL     1       2.629   3.865  -1.142  0.00  0.00    +0.150 HD
ENDROOT
BRANCH   1  12
ATOM      7  C   UNL     1       0.644  -0.511  -1.066  0.00  0.00    +0.015 C 
ATOM      8  C   UNL     1      -0.321   0.101  -2.083  0.00  0.00    +0.006 C 
ATOM      9  C   UNL     1       0.049  -0.376  -3.489  0.00  0.00    +0.000 C 
ATOM     10  C   UNL     1       1.478   0.061  -3.816  0.00  0.00    +0.002 C 
ATOM     11  C   UNL     1       2.444  -0.550  -2.799  0.00  0.00    +0.022 C 
ATOM     12  C   UNL     1       2.074  -0.074  -1.393  0.00  0.00    +0.078 C 
BRANCH   7  14
ATOM     13  C   UNL     1       0.206   1.494   0.358  0.00  0.00    +0.011 C 
ATOM     14  C   UNL     1       0.274  -0.034   0.340  0.00  0.00    -0.033 C 
ATOM     15  C   UNL     1       1.334  -0.510   1.335  0.00  0.00    +0.011 C 
ATOM     16  C   UNL     1      -1.088  -0.610   0.731  0.00  0.00    +0.011 C 
ENDBRANCH   7  14
ENDBRANCH   1  12
BRANCH   4  17
ATOM     17  C   UNL     1       4.665   3.965  -0.550  0.00  0.00    +0.110 C 
BRANCH  17  18
ATOM     18  C   UNL     1       4.489   5.484  -0.566  0.00  0.00    +0.054 C 
BRANCH  18  19
ATOM     19  C   UNL     1       5.786   6.145  -0.175  0.00  0.00    -0.046 A 
ATOM     20  C   UNL     1       6.050   6.416   1.154  0.00  0.00    +0.005 A 
ATOM     21  C   UNL     1       7.240   7.022   1.512  0.00  0.00    +0.029 A 
ATOM     22  C   UNL     1       8.165   7.356   0.541  0.00  0.00    +0.105 A 
ATOM     23  C   UNL     1       7.901   7.084  -0.788  0.00  0.00    +0.029 A 
ATOM     24  C   UNL     1       6.713   6.474  -1.146  0.00  0.00    +0.005 A 
BRANCH  22  25
ATOM     25  S   UNL     1       9.681   8.130   0.998  0.00  0.00    +0.056 S 
ATOM     26  O   UNL     1      10.139   8.835  -0.148  0.00  0.00    -0.153 OA
ATOM     27  O   UNL     1       9.451   8.771   2.245  0.00  0.00    -0.153 OA
BRANCH  25  28
ATOM     28  N   UNL     1      10.780   6.924   1.282  0.00  0.00    -0.204 NA
ATOM     29  H   UNL     1      11.724   7.080   1.120  0.00  0.00    +0.144 HD
ATOM     30  H   UNL     1      10.480   6.062   1.609  0.00  0.00    +0.144 HD
ENDBRANCH  25  28
ENDBRANCH  22  25
ENDBRANCH  18  19
ENDBRANCH  17  18
ENDBRANCH   4  17
TORSDOF 7
