REMARK  Name = ZINC14187399
REMARK  6 active torsions:
REMARK  status: ('A' for Active; 'I' for Inactive)
REMARK    1  A    between atoms: C_1  and  C_2
REMARK    2  A    between atoms: N_10  and  C_14
REMARK    3  A    between atoms: C_14  and  C_15
REMARK    4  A    between atoms: N_17  and  C_18
REMARK    5  A    between atoms: C_18  and  C_20
REMARK    6  A    between atoms: C_18  and  C_21
REMARK                            x       y       z     vdW  Elec       q    Type
REMARK                         _______ _______ _______ _____ _____    ______ ____
ROOT
ATOM      1  C   UNL     1       0.729   0.198   0.246  0.00  0.00    +0.213 C 
ENDROOT
BRANCH   1  11
ATOM      2  C   UNL     1       2.051   8.046   1.063  0.00  0.00    +0.007 C 
ATOM      3  C   UNL     1       2.421   6.562   1.001  0.00  0.00    -0.014 C 
ATOM      4  C   UNL     1       1.669   5.803   2.097  0.00  0.00    +0.006 C 
ATOM      5  C   UNL     1       2.049   4.321   2.041  0.00  0.00    +0.035 C 
ATOM      6  C   UNL     1       1.694   3.754   0.671  0.00  0.00    +0.113 C 
ATOM      7  C   UNL     1       2.417   4.517  -0.433  0.00  0.00    +0.035 C 
ATOM      8  C   UNL     1       2.036   5.998  -0.368  0.00  0.00    +0.006 C 
ATOM      9  C   UNL     1       2.037   2.283   0.606  0.00  0.00    +0.247 C 
ATOM     10  O   UNL     1       3.132   1.778   0.730  0.00  0.00    -0.273 OA
ATOM     11  N   UNL     1       0.867   1.650   0.382  0.00  0.00    -0.215 N 
ATOM     12  C   UNL     1      -0.152   2.514   0.293  0.00  0.00    +0.310 C 
ATOM     13  O   UNL     1      -1.304   2.183   0.089  0.00  0.00    -0.252 OA
ATOM     14  N   UNL     1       0.242   3.791   0.458  0.00  0.00    -0.285 N 
ATOM     15  H   UNL     1      -0.321   4.581   0.436  0.00  0.00    +0.151 HD
ENDBRANCH   1  11
BRANCH   1  16
ATOM     16  C   UNL     1       0.472  -0.411   1.601  0.00  0.00    +0.231 C 
ATOM     17  O   UNL     1       0.411   0.298   2.583  0.00  0.00    -0.274 OA
ATOM     18  N   UNL     1       0.311  -1.744   1.721  0.00  0.00    -0.307 N 
ATOM     19  H   UNL     1       0.360  -2.311   0.935  0.00  0.00    +0.149 HD
BRANCH  18  20
ATOM     20  C   UNL     1       0.063  -2.336   3.037  0.00  0.00    +0.103 C 
ATOM     21  C   UNL     1      -1.440  -2.326   3.325  0.00  0.00    +0.033 C 
BRANCH  20  22
ATOM     22  C   UNL     1       0.568  -3.756   3.054  0.00  0.00    +0.008 A 
ATOM     23  C   UNL     1       0.630  -4.480   1.878  0.00  0.00    +0.011 A 
ATOM     24  C   UNL     1       1.099  -5.780   1.890  0.00  0.00    +0.039 A 
ATOM     25  C   UNL     1       1.496  -6.362   3.083  0.00  0.00    +0.126 A 
ATOM     26  C   UNL     1       1.429  -5.639   4.261  0.00  0.00    +0.077 A 
ATOM     27  C   UNL     1       0.965  -4.335   4.247  0.00  0.00    +0.131 A 
ATOM     28  F   UNL     1       0.898  -3.629   5.396  0.00  0.00    -0.205 F 
ATOM     29  F   UNL     1       1.950  -7.635   3.095  0.00  0.00    -0.205 F 
ENDBRANCH  20  22
ENDBRANCH  18  20
ENDBRANCH   1  16
TORSDOF 4
