REMARK  Name = ZINC01821891
REMARK  15 active torsions:
REMARK  status: ('A' for Active; 'I' for Inactive)
REMARK    1  A    between atoms: C_1  and  O_2
REMARK    2  A    between atoms: O_2  and  C_3
REMARK    3  A    between atoms: C_5  and  C_10
REMARK    4  A    between atoms: C_8  and  O_9
REMARK    5  A    between atoms: C_12  and  C_43
REMARK    6  A    between atoms: C_14  and  S_26
REMARK    7  A    between atoms: C_16  and  C_17
REMARK    8  A    between atoms: C_18  and  C_20
REMARK    9  A    between atoms: C_20  and  O_22
REMARK   10  A    between atoms: O_22  and  C_23
REMARK   11  A    between atoms: C_23  and  C_24
REMARK   12  A    between atoms: S_26  and  C_27
REMARK   13  A    between atoms: C_27  and  C_28
REMARK   14  A    between atoms: N_30  and  C_31
REMARK   15  A    between atoms: N_30  and  C_37
REMARK                            x       y       z     vdW  Elec       q    Type
REMARK                         _______ _______ _______ _____ _____    ______ ____
ROOT
ATOM      1  C   UNL     1       0.249   0.668  -5.757  0.00  0.00    +0.081 C 
ATOM      2  C   UNL     1      -0.592  -0.582  -6.029  0.00  0.00    +0.070 C 
ATOM      3  C   UNL     1      -1.984  -0.405  -5.497  0.00  0.00    +0.111 C 
ATOM      4  N   UNL     1      -2.299   0.459  -4.586  0.00  0.00    -0.248 NA
ATOM      5  C   UNL     1      -1.384   1.300  -4.029  0.00  0.00    +0.032 C 
ATOM      6  C   UNL     1      -1.777   2.331  -3.287  0.00  0.00    +0.061 C 
ATOM      7  C   UNL     1       0.087   1.041  -4.270  0.00  0.00    +0.154 C 
ENDROOT
BRANCH   1  10
ATOM      8  C   UNL     1       3.746   0.943  -7.160  0.00  0.00    +0.162 A 
ATOM      9  C   UNL     1       2.413   1.208  -6.891  0.00  0.00    +0.053 A 
ATOM     10  C   UNL     1       1.699   0.377  -6.048  0.00  0.00    -0.034 A 
ATOM     11  C   UNL     1       2.313  -0.716  -5.467  0.00  0.00    +0.008 A 
ATOM     12  C   UNL     1       3.642  -0.990  -5.735  0.00  0.00    +0.049 A 
ATOM     13  C   UNL     1       4.363  -0.161  -6.579  0.00  0.00    +0.158 A 
BRANCH   8  15
ATOM     14  C   UNL     1       3.752   2.874  -8.548  0.00  0.00    +0.277 C 
ATOM     15  O   UNL     1       4.450   1.760  -7.988  0.00  0.00    -0.491 OA
ENDBRANCH   8  15
BRANCH  13  16
ATOM     16  O   UNL     1       5.671  -0.426  -6.840  0.00  0.00    -0.503 OA
ATOM     17  H   UNL     1       6.288  -0.006  -6.224  0.00  0.00    +0.292 HD
ENDBRANCH  13  16
ENDBRANCH   1  10
BRANCH   7  18
ATOM     18  C   UNL     1       0.556  -0.095  -3.398  0.00  0.00    +0.317 C 
ATOM     19  O   UNL     1       0.034  -1.181  -3.488  0.00  0.00    -0.250 OA
BRANCH  18  20
ATOM     20  O   UNL     1       1.555   0.099  -2.522  0.00  0.00    -0.460 OA
BRANCH  20  21
ATOM     21  C   UNL     1       1.955  -1.040  -1.716  0.00  0.00    +0.259 C 
BRANCH  21  22
ATOM     22  C   UNL     1       3.080  -0.635  -0.798  0.00  0.00    +0.006 C 
ATOM     23  C   UNL     1       3.058  -0.993   0.462  0.00  0.00    +0.007 C 
ENDBRANCH  21  22
ENDBRANCH  20  21
ENDBRANCH  18  20
ENDBRANCH   7  18
BRANCH   2  24
ATOM     24  C   UNL     1      -0.474  -1.911  -6.649  0.00  0.00    +0.098 C 
ATOM     25  N   UNL     1      -0.383  -2.938  -7.127  0.00  0.00    -0.191 NA
ENDBRANCH   2  24
BRANCH   3  26
ATOM     26  S   UNL     1      -3.260  -1.430  -6.149  0.00  0.00    -0.096 S 
BRANCH  26  27
ATOM     27  C   UNL     1      -4.672  -0.819  -5.196  0.00  0.00    +0.172 C 
BRANCH  27  28
ATOM     28  C   UNL     1      -5.913  -1.573  -5.597  0.00  0.00    +0.234 C 
ATOM     29  O   UNL     1      -5.867  -2.381  -6.501  0.00  0.00    -0.274 OA
ATOM     30  N   UNL     1      -7.075  -1.351  -4.951  0.00  0.00    -0.240 N 
BRANCH  30  31
ATOM     31  C   UNL     1      -7.119  -0.452  -3.878  0.00  0.00    +0.041 A 
ATOM     32  C   UNL     1      -6.842  -0.891  -2.590  0.00  0.00    +0.024 A 
ATOM     33  C   UNL     1      -6.881  -0.000  -1.535  0.00  0.00    +0.002 A 
ATOM     34  C   UNL     1      -7.207   1.325  -1.759  0.00  0.00    +0.000 A 
ATOM     35  C   UNL     1      -7.489   1.764  -3.040  0.00  0.00    +0.002 A 
ATOM     36  C   UNL     1      -7.446   0.880  -4.100  0.00  0.00    +0.024 A 
ENDBRANCH  30  31
BRANCH  30  37
ATOM     37  C   UNL     1      -8.238  -2.020  -5.352  0.00  0.00    +0.041 A 
ATOM     38  C   UNL     1      -8.591  -2.057  -6.695  0.00  0.00    +0.024 A 
ATOM     39  C   UNL     1      -9.736  -2.721  -7.088  0.00  0.00    +0.002 A 
ATOM     40  C   UNL     1     -10.537  -3.340  -6.145  0.00  0.00    +0.000 A 
ATOM     41  C   UNL     1     -10.191  -3.300  -4.807  0.00  0.00    +0.002 A 
ATOM     42  C   UNL     1      -9.044  -2.642  -4.408  0.00  0.00    +0.024 A 
ENDBRANCH  30  37
ENDBRANCH  27  28
ENDBRANCH  26  27
ENDBRANCH   3  26
TORSDOF 13
