REMARK  Name = ZINC13500651
REMARK  11 active torsions:
REMARK  status: ('A' for Active; 'I' for Inactive)
REMARK    1  A    between atoms: C_1  and  C_2
REMARK    2  A    between atoms: C_9  and  C_14
REMARK    3  A    between atoms: C_14  and  N_73
REMARK    4  A    between atoms: C_15  and  N_73
REMARK    5  A    between atoms: C_21  and  C_23
REMARK    6  A    between atoms: C_21  and  C_35
REMARK    7  A    between atoms: C_21  and  N_73
REMARK    8  A    between atoms: N_27  and  C_28
REMARK    9  A    between atoms: C_28  and  C_29
REMARK   10  A    between atoms: C_35  and  C_36
REMARK   11  A    between atoms: C_35  and  C_37
REMARK                            x       y       z     vdW  Elec       q    Type
REMARK                         _______ _______ _______ _____ _____    ______ ____
ROOT
ATOM      1  N   UNL     1       3.943  -0.542   0.834  0.00  0.00    +0.391 N 
ATOM      2  H   UNL     1       3.642  -0.698   1.803  0.00  0.00    -0.080 HD
ENDROOT
BRANCH   1   3
ATOM      3  C   UNL     1       3.263  -1.520  -0.042  0.00  0.00    -0.067 C 
ATOM      4  C   UNL     1       3.102  -2.834   0.726  0.00  0.00    -0.015 C 
ATOM      5  C   UNL     1       2.385  -3.856  -0.158  0.00  0.00    -0.002 C 
ATOM      6  C   UNL     1       3.209  -4.103  -1.423  0.00  0.00    -0.000 C 
ATOM      7  C   UNL     1       3.370  -2.789  -2.191  0.00  0.00    -0.002 C 
ATOM      8  C   UNL     1       4.087  -1.767  -1.307  0.00  0.00    -0.015 C 
ENDBRANCH   1   3
BRANCH   1   9
ATOM      9  C   UNL     1       5.407  -0.723   0.751  0.00  0.00    -0.036 C 
BRANCH   9  18
ATOM     10  C   UNL     1       7.672  -7.822   1.035  0.00  0.00    +0.044 C 
ATOM     11  C   UNL     1       7.248  -6.550   1.722  0.00  0.00    -0.050 A 
ATOM     12  C   UNL     1       7.197  -6.500   3.108  0.00  0.00    +0.005 A 
ATOM     13  C   UNL     1       6.812  -5.347   3.757  0.00  0.00    +0.026 A 
ATOM     14  C   UNL     1       6.470  -4.220   3.017  0.00  0.00    +0.049 A 
ATOM     15  C   UNL     1       6.522  -4.274   1.611  0.00  0.00    -0.001 A 
ATOM     16  C   UNL     1       6.916  -5.455   0.974  0.00  0.00    +0.013 A 
ATOM     17  C   UNL     1       6.160  -3.083   0.841  0.00  0.00    +0.017 A 
ATOM     18  C   UNL     1       5.786  -1.966   1.513  0.00  0.00    +0.001 A 
ATOM     19  C   UNL     1       5.755  -1.962   2.924  0.00  0.00    +0.251 A 
ATOM     20  O   UNL     1       5.420  -0.947   3.509  0.00  0.00    -0.268 OA
ATOM     21  N   UNL     1       6.080  -3.053   3.640  0.00  0.00    -0.322 N 
ATOM     22  H   UNL     1       6.045  -3.018   4.609  0.00  0.00    +0.169 HD
ENDBRANCH   9  18
ENDBRANCH   1   9
BRANCH   1  23
ATOM     23  C   UNL     1       3.579   0.833   0.433  0.00  0.00    +0.006 C 
BRANCH  23  24
ATOM     24  C   UNL     1       4.245   1.196  -0.870  0.00  0.00    +0.138 A 
ATOM     25  N   UNL     1       5.479   0.928  -1.220  0.00  0.00    -0.115 NA
ATOM     26  N   UNL     1       5.669   1.402  -2.402  0.00  0.00    -0.023 NA
ATOM     27  N   UNL     1       4.589   1.966  -2.816  0.00  0.00    -0.044 NA
ATOM     28  N   UNL     1       3.687   1.860  -1.899  0.00  0.00    -0.228 N 
BRANCH  28  29
ATOM     29  C   UNL     1       2.314   2.368  -1.966  0.00  0.00    +0.178 C 
BRANCH  29  30
ATOM     30  C   UNL     1       1.402   1.293  -2.560  0.00  0.00    +0.140 C 
ATOM     31  C   UNL     1      -0.024   1.858  -2.742  0.00  0.00    +0.035 C 
ATOM     32  C   UNL     1      -0.911   0.651  -2.334  0.00  0.00    +0.031 C 
ATOM     33  C   UNL     1      -0.042   0.008  -1.224  0.00  0.00    +0.160 C 
ATOM     34  O   UNL     1       1.315   0.179  -1.664  0.00  0.00    -0.375 OA
ENDBRANCH  29  30
ENDBRANCH  28  29
ENDBRANCH  23  24
BRANCH  23  35
ATOM     35  C   UNL     1       4.035   1.801   1.526  0.00  0.00    -0.024 C 
ATOM     36  C   UNL     1       3.686   3.234   1.117  0.00  0.00    +0.006 C 
ATOM     37  C   UNL     1       3.328   1.458   2.839  0.00  0.00    +0.006 C 
ENDBRANCH  23  35
ENDBRANCH   1  23
TORSDOF 8
