REMARK  Name = ZINC39726491
REMARK  9 active torsions:
REMARK  status: ('A' for Active; 'I' for Inactive)
REMARK    1  A    between atoms: C_1  and  O_2
REMARK    2  A    between atoms: O_2  and  C_3
REMARK    3  A    between atoms: C_3  and  C_5
REMARK    4  A    between atoms: C_8  and  C_10
REMARK    5  A    between atoms: C_10  and  S_11
REMARK    6  A    between atoms: S_11  and  C_12
REMARK    7  A    between atoms: N_26  and  C_27
REMARK    8  A    between atoms: C_30  and  O_33
REMARK    9  A    between atoms: O_33  and  C_34
REMARK                            x       y       z     vdW  Elec       q    Type
REMARK                         _______ _______ _______ _____ _____    ______ ____
ROOT
ATOM      1  C   UNL     1       0.603  -7.045   2.360  0.00  0.00    +0.168 C 
ATOM      2  N   UNL     1      -0.621  -7.419   1.989  0.00  0.00    -0.227 NA
ATOM      3  C   UNL     1      -1.046  -8.610   2.357  0.00  0.00    +0.084 C 
ATOM      4  C   UNL     1      -2.042  -9.446   1.897  0.00  0.00    +0.022 A 
ATOM      5  C   UNL     1      -3.133  -9.219   1.032  0.00  0.00    +0.012 A 
ATOM      6  C   UNL     1      -3.919 -10.297   0.735  0.00  0.00    +0.001 A 
ATOM      7  C   UNL     1      -3.691 -11.571   1.244  0.00  0.00    +0.002 A 
ATOM      8  C   UNL     1      -2.670 -11.865   2.101  0.00  0.00    +0.026 A 
ATOM      9  C   UNL     1      -1.818 -10.794   2.474  0.00  0.00    +0.045 A 
ATOM     10  N   UNL     1      -0.808 -10.775   3.319  0.00  0.00    -0.368 N 
ATOM     11  C   UNL     1      -0.365  -9.403   3.462  0.00  0.00    +0.217 C 
ATOM     12  C   UNL     1       1.104  -9.142   3.376  0.00  0.00    +0.254 C 
ATOM     13  O   UNL     1       1.917  -9.990   3.674  0.00  0.00    -0.272 OA
ATOM     14  N   UNL     1       1.488  -7.913   2.942  0.00  0.00    -0.217 N 
ATOM     15  H   UNL     1      -0.427 -11.546   3.768  0.00  0.00    +0.161 HD
ENDROOT
BRANCH  14  16
ATOM     16  C   UNL     1       2.825  -7.520   3.100  0.00  0.00    +0.043 A 
ATOM     17  C   UNL     1       3.242  -6.941   4.290  0.00  0.00    +0.027 A 
ATOM     18  C   UNL     1       4.559  -6.555   4.446  0.00  0.00    +0.048 A 
ATOM     19  C   UNL     1       5.464  -6.745   3.412  0.00  0.00    +0.130 A 
ATOM     20  C   UNL     1       5.048  -7.324   2.222  0.00  0.00    +0.048 A 
ATOM     21  C   UNL     1       3.732  -7.716   2.068  0.00  0.00    +0.027 A 
BRANCH  19  22
ATOM     22  O   UNL     1       6.760  -6.364   3.564  0.00  0.00    -0.406 OA
BRANCH  22  23
ATOM     23  C   UNL     1       7.638  -6.590   2.459  0.00  0.00    +0.575 C 
ATOM     24  F   UNL     1       7.169  -5.890   1.342  0.00  0.00    -0.133 F 
ATOM     25  F   UNL     1       8.922  -6.142   2.785  0.00  0.00    -0.133 F 
ATOM     26  F   UNL     1       7.680  -7.958   2.170  0.00  0.00    -0.133 F 
ENDBRANCH  22  23
ENDBRANCH  19  22
ENDBRANCH  14  16
BRANCH   1  27
ATOM     27  S   UNL     1       1.075  -5.475   2.101  0.00  0.00    -0.082 S 
BRANCH  27  28
ATOM     28  C   UNL     1      -0.374  -4.703   1.329  0.00  0.00    +0.151 C 
BRANCH  28  32
ATOM     29  C   UNL     1       0.086  -1.081   1.278  0.00  0.00    +0.212 A 
ATOM     30  C   UNL     1       0.568  -1.385   0.036  0.00  0.00    +0.057 A 
ATOM     31  C   UNL     1       0.460  -2.777  -0.108  0.00  0.00    +0.046 A 
ATOM     32  C   UNL     1      -0.076  -3.255   1.037  0.00  0.00    +0.116 A 
ATOM     33  O   UNL     1      -0.295  -2.231   1.871  0.00  0.00    -0.452 OA
BRANCH  29  34
ATOM     34  C   UNL     1       0.004   0.259   1.864  0.00  0.00    +0.375 C 
ATOM     35  O   UNL     1       0.382   1.225   1.229  0.00  0.00    -0.241 OA
BRANCH  34  37
ATOM     36  C   UNL     1      -0.540   1.756   3.618  0.00  0.00    +0.280 C 
ATOM     37  O   UNL     1      -0.490   0.421   3.109  0.00  0.00    -0.462 OA
ENDBRANCH  34  37
ENDBRANCH  29  34
ENDBRANCH  28  32
ENDBRANCH  27  28
ENDBRANCH   1  27
TORSDOF 8
