REMARK  Name = ZINC09669871
REMARK  16 active torsions:
REMARK  status: ('A' for Active; 'I' for Inactive)
REMARK    1  A    between atoms: C_1  and  C_2
REMARK    2  A    between atoms: C_2  and  O_3
REMARK    3  A    between atoms: O_3  and  C_4
REMARK    4  A    between atoms: C_4  and  C_6
REMARK    5  A    between atoms: C_7  and  C_33
REMARK    6  A    between atoms: C_13  and  C_17
REMARK    7  A    between atoms: C_17  and  C_19
REMARK    8  A    between atoms: C_17  and  N_61
REMARK    9  A    between atoms: C_20  and  N_61
REMARK   10  A    between atoms: C_21  and  C_22
REMARK   11  A    between atoms: C_21  and  N_61
REMARK   12  A    between atoms: C_22  and  C_23
REMARK   13  A    between atoms: C_26  and  O_31
REMARK   14  A    between atoms: C_27  and  O_29
REMARK   15  A    between atoms: O_29  and  C_30
REMARK   16  A    between atoms: O_31  and  C_32
REMARK                            x       y       z     vdW  Elec       q    Type
REMARK                         _______ _______ _______ _____ _____    ______ ____
ROOT
ATOM      1  C   UNL     1      -3.777   2.606   0.510  0.00  0.00    +0.102 A 
ATOM      2  C   UNL     1      -2.778   1.695   0.315  0.00  0.00    -0.015 A 
ATOM      3  C   UNL     1      -1.461   2.131   0.163  0.00  0.00    +0.076 A 
ATOM      4  C   UNL     1      -0.231   1.336  -0.056  0.00  0.00    +0.260 A 
ATOM      5  O   UNL     1      -0.277   0.121  -0.128  0.00  0.00    -0.267 OA
ATOM      6  N   UNL     1       0.940   1.992  -0.179  0.00  0.00    -0.312 N 
ATOM      7  H   UNL     1       1.754   1.486  -0.327  0.00  0.00    +0.170 HD
ATOM      8  C   UNL     1       1.003   3.344  -0.102  0.00  0.00    +0.097 A 
ATOM      9  N   UNL     1      -0.061   4.074   0.095  0.00  0.00    -0.228 NA
ATOM     10  C   UNL     1      -1.263   3.530   0.231  0.00  0.00    +0.116 A 
ATOM     11  S   UNL     1      -2.900   4.160   0.501  0.00  0.00    -0.062 S 
ATOM     12  C   UNL     1      -3.097   0.223   0.264  0.00  0.00    +0.046 C 
ENDROOT
BRANCH   1  13
ATOM     13  C   UNL     1      -5.210   2.365   0.690  0.00  0.00    +0.346 C 
ATOM     14  O   UNL     1      -5.643   1.229   0.676  0.00  0.00    -0.244 OA
BRANCH  13  15
ATOM     15  O   UNL     1      -6.051   3.405   0.871  0.00  0.00    -0.461 OA
BRANCH  15  17
ATOM     16  C   UNL     1      -8.249   4.388   1.234  0.00  0.00    +0.048 C 
ATOM     17  C   UNL     1      -7.458   3.092   1.044  0.00  0.00    +0.229 C 
ENDBRANCH  15  17
ENDBRANCH  13  15
ENDBRANCH   1  13
BRANCH   8  18
ATOM     18  C   UNL     1       2.340   4.023  -0.247  0.00  0.00    -0.004 C 
ATOM     19  C   UNL     1       3.327   3.427   0.758  0.00  0.00    -0.005 C 
BRANCH  18  21
ATOM     20  C   UNL     1       3.373   6.204  -0.443  0.00  0.00    -0.095 C 
ATOM     21  N   UNL     1       2.167   5.471  -0.006  0.00  0.00    +0.384 N 
ATOM     22  H   UNL     1       1.359   5.805  -0.545  0.00  0.00    -0.081 HD
BRANCH  21  23
ATOM     23  C   UNL     1       1.919   5.717   1.431  0.00  0.00    -0.074 C 
BRANCH  23  24
ATOM     24  C   UNL     1       1.523   7.183   1.619  0.00  0.00    +0.017 C 
BRANCH  24  25
ATOM     25  C   UNL     1       1.246   7.446   3.076  0.00  0.00    -0.045 A 
ATOM     26  C   UNL     1      -0.033   7.282   3.576  0.00  0.00    +0.007 A 
ATOM     27  C   UNL     1      -0.291   7.516   4.914  0.00  0.00    +0.049 A 
ATOM     28  C   UNL     1       0.731   7.927   5.755  0.00  0.00    +0.161 A 
ATOM     29  C   UNL     1       2.016   8.097   5.251  0.00  0.00    +0.162 A 
ATOM     30  C   UNL     1       2.270   7.855   3.910  0.00  0.00    +0.053 A 
BRANCH  29  31
ATOM     31  O   UNL     1       3.022   8.500   6.073  0.00  0.00    -0.491 OA
ATOM     32  C   UNL     1       4.317   8.653   5.487  0.00  0.00    +0.277 C 
ENDBRANCH  29  31
BRANCH  28  33
ATOM     33  O   UNL     1       0.477   8.162   7.070  0.00  0.00    -0.491 OA
ATOM     34  C   UNL     1      -0.866   7.967   7.517  0.00  0.00    +0.277 C 
ENDBRANCH  28  33
ENDBRANCH  24  25
ENDBRANCH  23  24
ENDBRANCH  21  23
ENDBRANCH  18  21
ENDBRANCH   8  18
TORSDOF 10
