REMARK  Name = ZINC45789111
REMARK  6 active torsions:
REMARK  status: ('A' for Active; 'I' for Inactive)
REMARK    1  A    between atoms: C_1  and  C_2
REMARK    2  A    between atoms: C_2  and  C_3
REMARK    3  A    between atoms: C_13  and  C_15
REMARK    4  A    between atoms: C_13  and  O_22
REMARK    5  A    between atoms: C_27  and  C_34
REMARK    6  A    between atoms: C_34  and  C_35
REMARK                            x       y       z     vdW  Elec       q    Type
REMARK                         _______ _______ _______ _____ _____    ______ ____
ROOT
ATOM      1  C   UNL     1       0.699  -0.423  -1.435  0.00  0.00    +0.012 C 
ATOM      2  C   UNL     1       0.970  -1.926  -1.337  0.00  0.00    +0.010 C 
ATOM      3  C   UNL     1       0.213  -2.503  -0.140  0.00  0.00    +0.032 C 
ATOM      4  C   UNL     1       1.091  -3.535   0.570  0.00  0.00    +0.125 C 
ATOM      5  C   UNL     1       0.577  -4.942   0.251  0.00  0.00    +0.076 C 
ATOM      6  C   UNL     1      -0.757  -5.169   0.969  0.00  0.00    +0.184 C 
ATOM      7  C   UNL     1      -0.538  -5.081   2.482  0.00  0.00    +0.111 C 
ATOM      8  C   UNL     1       0.855  -4.505   2.753  0.00  0.00    +0.190 C 
ATOM      9  O   UNL     1       1.037  -3.317   1.980  0.00  0.00    -0.344 OA
ATOM     10  O   UNL     1      -1.688  -4.161   0.569  0.00  0.00    -0.458 OA
ATOM     11  C   UNL     1      -2.446  -4.423  -0.515  0.00  0.00    +0.332 C 
ATOM     12  O   UNL     1      -2.476  -5.544  -0.984  0.00  0.00    -0.246 OA
ATOM     13  C   UNL     1      -3.238  -3.346  -1.125  0.00  0.00    +0.091 C 
ATOM     14  C   UNL     1      -4.008  -3.597  -2.181  0.00  0.00    -0.063 C 
ATOM     15  C   UNL     1      -4.820  -2.489  -2.799  0.00  0.00    +0.035 C 
ATOM     16  C   UNL     1      -4.229  -1.135  -2.399  0.00  0.00    +0.031 C 
ATOM     17  C   UNL     1      -3.669  -0.456  -3.623  0.00  0.00    -0.027 C 
ATOM     18  C   UNL     1      -2.385  -0.117  -3.667  0.00  0.00    -0.005 C 
ATOM     19  C   UNL     1      -1.507  -0.395  -2.519  0.00  0.00    -0.004 C 
ATOM     20  C   UNL     1      -0.205  -0.148  -2.609  0.00  0.00    -0.023 C 
ENDROOT
BRANCH   8  21
ATOM     21  C   UNL     1       0.988  -4.171   4.240  0.00  0.00    +0.143 C 
ATOM     22  C   UNL     1       2.386  -3.552   4.499  0.00  0.00    +0.106 C 
ATOM     23  S   UNL     1       2.696  -4.241   6.180  0.00  0.00    -0.066 S 
ATOM     24  C   UNL     1       1.554  -5.611   6.107  0.00  0.00    +0.272 C 
ATOM     25  O   UNL     1       1.478  -6.550   6.876  0.00  0.00    -0.263 OA
ATOM     26  N   UNL     1       0.796  -5.382   5.018  0.00  0.00    -0.298 N 
ATOM     27  H   UNL     1       0.121  -6.027   4.754  0.00  0.00    +0.150 HD
ENDBRANCH   8  21
BRANCH   1  29
ATOM     28  C   UNL     1      -0.145   1.577  -0.199  0.00  0.00    +0.004 C 
ATOM     29  C   UNL     1       0.025   0.057  -0.149  0.00  0.00    +0.004 C 
ENDBRANCH   1  29
BRANCH   8  30
ATOM     30  O   UNL     1       1.847  -5.467   2.390  0.00  0.00    -0.363 OA
ATOM     31  H   UNL     1       1.737  -6.326   2.820  0.00  0.00    +0.213 HD
ENDBRANCH   8  30
BRANCH  14  32
ATOM     32  C   UNL     1      -4.060  -4.987  -2.762  0.00  0.00    +0.027 C 
ATOM     33  C   UNL     1      -2.942  -5.152  -3.793  0.00  0.00    +0.008 C 
ENDBRANCH  14  32
TORSDOF 4
