REMARK  Name = ZINC64649133
REMARK  5 active torsions:
REMARK  status: ('A' for Active; 'I' for Inactive)
REMARK    1  A    between atoms: C_1  and  C_2
REMARK    2  A    between atoms: N_5  and  C_8
REMARK    3  A    between atoms: C_11  and  C_14
REMARK    4  A    between atoms: C_17  and  C_21
REMARK    5  A    between atoms: C_29  and  C_31
REMARK                            x       y       z     vdW  Elec       q    Type
REMARK                         _______ _______ _______ _____ _____    ______ ____
ROOT
ATOM      1  C   UNL     1      -0.856  -8.163   1.714  0.00  0.00    +0.180 C 
ATOM      2  N   UNL     1      -2.091  -8.592   2.413  0.00  0.00    -0.262 NA
ATOM      3  C   UNL     1      -2.565  -9.803   1.712  0.00  0.00    +0.298 C 
ATOM      4  O   UNL     1      -1.629 -10.076   0.654  0.00  0.00    -0.270 OA
ATOM      5  N   UNL     1      -0.986  -8.774   0.363  0.00  0.00    -0.177 NA
ATOM      6  H   UNL     1      -1.906  -8.787   3.386  0.00  0.00    +0.127 HD
ATOM      7  H   UNL     1      -0.081  -8.901  -0.064  0.00  0.00    +0.156 HD
ENDROOT
BRANCH   3   8
ATOM      8  C   UNL     1      -2.614 -10.964   2.671  0.00  0.00    +0.262 C 
ATOM      9  O   UNL     1      -1.880 -11.916   2.509  0.00  0.00    -0.271 OA
ATOM     10  N   UNL     1      -3.473 -10.946   3.709  0.00  0.00    -0.295 N 
ATOM     11  C   UNL     1      -4.450  -9.857   3.852  0.00  0.00    +0.127 C 
ATOM     12  C   UNL     1      -5.853 -10.469   3.951  0.00  0.00    +0.127 C 
ATOM     13  N   UNL     1      -5.830 -11.536   4.961  0.00  0.00    -0.295 N 
ATOM     14  C   UNL     1      -4.853 -12.625   4.818  0.00  0.00    +0.127 C 
ATOM     15  C   UNL     1      -3.454 -12.016   4.716  0.00  0.00    +0.127 C 
ATOM     16  C   UNL     1      -6.690 -11.518   5.999  0.00  0.00    +0.247 C 
ATOM     17  O   UNL     1      -7.555 -10.665   6.056  0.00  0.00    -0.270 OA
BRANCH  16  18
ATOM     18  C   UNL     1      -6.581 -12.530   7.063  0.00  0.00    +0.042 C 
ATOM     19  C   UNL     1      -5.587 -12.506   8.048  0.00  0.00    +0.013 C 
ATOM     20  C   UNL     1      -5.546 -13.513   9.033  0.00  0.00    -0.001 C 
ATOM     21  C   UNL     1      -6.193 -14.681   8.956  0.00  0.00    +0.004 C 
ATOM     22  C   UNL     1      -7.008 -15.000   7.733  0.00  0.00    +0.159 C 
ATOM     23  C   UNL     1      -7.507 -13.657   7.199  0.00  0.00    -0.006 C 
ATOM     24  C   UNL     1      -8.811 -13.816   6.974  0.00  0.00    +0.026 C 
ATOM     25  C   UNL     1      -9.236 -15.044   7.534  0.00  0.00    +0.106 C 
ATOM     26  N   UNL     1      -8.222 -15.762   8.000  0.00  0.00    -0.279 NA
ENDBRANCH  16  18
ENDBRANCH   3   8
BRANCH   1  30
ATOM     27  C   UNL     1      -0.696  -3.904   1.428  0.00  0.00    +0.013 A 
ATOM     28  C   UNL     1      -0.141  -4.685   0.432  0.00  0.00    +0.022 A 
ATOM     29  C   UNL     1      -0.192  -6.064   0.524  0.00  0.00    +0.008 A 
ATOM     30  C   UNL     1      -0.799  -6.661   1.613  0.00  0.00    -0.014 A 
ATOM     31  C   UNL     1      -1.353  -5.880   2.610  0.00  0.00    +0.008 A 
ATOM     32  C   UNL     1      -1.298  -4.502   2.520  0.00  0.00    +0.022 A 
BRANCH  27  37
ATOM     33  C   UNL     1       0.075   1.502   0.044  0.00  0.00    +0.007 C 
ATOM     34  C   UNL     1       0.083  -0.028   0.029  0.00  0.00    -0.011 C 
ATOM     35  C   UNL     1      -1.358  -0.548   0.053  0.00  0.00    +0.020 C 
ATOM     36  C   UNL     1      -1.342  -2.076   0.119  0.00  0.00    +0.085 C 
ATOM     37  N   UNL     1      -0.643  -2.510   1.335  0.00  0.00    -0.393 NA
ATOM     38  C   UNL     1       0.758  -2.077   1.285  0.00  0.00    +0.085 C 
ATOM     39  C   UNL     1       0.824  -0.549   1.264  0.00  0.00    +0.020 C 
ATOM     40  H   UNL     1      -1.091  -2.104   2.142  0.00  0.00    +0.126 HD
ENDBRANCH  27  37
ENDBRANCH   1  30
TORSDOF 4
