REMARK  Name = ZINC35442690
REMARK  18 active torsions:
REMARK  status: ('A' for Active; 'I' for Inactive)
REMARK    1  A    between atoms: C_1  and  C_2
REMARK    2  A    between atoms: C_4  and  C_29
REMARK    3  A    between atoms: C_6  and  C_26
REMARK    4  A    between atoms: C_9  and  C_11
REMARK    5  A    between atoms: C_11  and  C_12
REMARK    6  A    between atoms: C_15  and  C_17
REMARK    7  A    between atoms: C_20  and  N_23
REMARK    8  A    between atoms: C_26  and  C_27
REMARK    9  A    between atoms: C_26  and  C_28
REMARK   10  A    between atoms: C_29  and  N_30
REMARK   11  A    between atoms: N_30  and  C_31
REMARK   12  A    between atoms: N_30  and  C_35
REMARK   13  A    between atoms: C_31  and  C_32
REMARK   14  A    between atoms: C_32  and  O_33
REMARK   15  A    between atoms: O_33  and  C_34
REMARK   16  A    between atoms: C_35  and  C_36
REMARK   17  A    between atoms: C_36  and  O_37
REMARK   18  A    between atoms: O_37  and  C_38
REMARK                            x       y       z     vdW  Elec       q    Type
REMARK                         _______ _______ _______ _____ _____    ______ ____
ROOT
ATOM      1  C   UNL     1      -0.789   1.486  -1.441  0.00  0.00    +0.039 C 
ATOM      2  C   UNL     1      -0.548   0.077  -0.963  0.00  0.00    -0.073 C 
ATOM      3  C   UNL     1      -0.462  -0.859  -1.853  0.00  0.00    -0.026 C 
ATOM      4  C   UNL     1      -0.236  -2.308  -1.530  0.00  0.00    -0.002 C 
ATOM      5  C   UNL     1       0.291  -2.453  -0.101  0.00  0.00    -0.003 C 
ATOM      6  C   UNL     1      -0.611  -1.638   0.834  0.00  0.00    +0.012 C 
ATOM      7  C   UNL     1      -0.418  -0.153   0.514  0.00  0.00    +0.024 C 
ENDROOT
BRANCH   5   8
ATOM      8  C   UNL     1       0.266  -3.927   0.308  0.00  0.00    -0.014 C 
ATOM      9  C   UNL     1       0.673  -4.055   1.778  0.00  0.00    +0.007 C 
ATOM     10  C   UNL     1      -1.146  -4.485   0.119  0.00  0.00    +0.007 C 
ENDBRANCH   5   8
BRANCH   7  11
ATOM     11  C   UNL     1       0.970   0.295   0.977  0.00  0.00    +0.105 C 
BRANCH  11  12
ATOM     12  C   UNL     1       1.105   1.784   0.790  0.00  0.00    +0.218 A 
ATOM     13  N   UNL     1       0.806   2.701   1.668  0.00  0.00    -0.112 NA
ATOM     14  N   UNL     1       1.047   3.864   1.174  0.00  0.00    -0.107 NA
ATOM     15  C   UNL     1       1.512   3.729  -0.046  0.00  0.00    +0.248 A 
ATOM     16  O   UNL     1       1.562   2.408  -0.310  0.00  0.00    -0.420 OA
BRANCH  15  17
ATOM     17  C   UNL     1       1.911   4.821  -0.959  0.00  0.00    +0.039 A 
ATOM     18  C   UNL     1       2.386   4.527  -2.238  0.00  0.00    +0.015 A 
ATOM     19  C   UNL     1       2.756   5.551  -3.084  0.00  0.00    +0.033 A 
ATOM     20  C   UNL     1       2.659   6.867  -2.668  0.00  0.00    +0.126 A 
ATOM     21  C   UNL     1       2.190   7.165  -1.401  0.00  0.00    +0.033 A 
ATOM     22  C   UNL     1       1.810   6.151  -0.547  0.00  0.00    +0.015 A 
BRANCH  20  23
ATOM     23  N   UNL     1       3.060   7.961  -3.581  0.00  0.00    +0.056 N 
ATOM     24  O   UNL     1       3.471   7.704  -4.689  0.00  0.00    -0.126 OA
ATOM     25  O   UNL     1       2.976   9.112  -3.220  0.00  0.00    -0.126 OA
ENDBRANCH  20  23
ENDBRANCH  15  17
ENDBRANCH  11  12
ENDBRANCH   7  11
BRANCH   4  26
ATOM     26  C   UNL     1       0.787  -2.891  -2.507  0.00  0.00    -0.071 C 
BRANCH  26  27
ATOM     27  N   UNL     1       0.563  -4.336  -2.645  0.00  0.00    +0.383 N 
ATOM     28  H   UNL     1       0.621  -4.774  -1.738  0.00  0.00    -0.082 HD
BRANCH  27  29
ATOM     29  C   UNL     1      -0.768  -4.573  -3.219  0.00  0.00    -0.050 C 
BRANCH  29  30
ATOM     30  C   UNL     1      -0.870  -3.874  -4.577  0.00  0.00    +0.141 C 
BRANCH  30  31
ATOM     31  O   UNL     1      -0.073  -4.575  -5.534  0.00  0.00    -0.385 OA
ATOM     32  C   UNL     1      -0.010  -3.941  -6.813  0.00  0.00    +0.193 C 
ENDBRANCH  30  31
ENDBRANCH  29  30
ENDBRANCH  27  29
BRANCH  27  33
ATOM     33  C   UNL     1       1.587  -4.908  -3.531  0.00  0.00    -0.050 C 
BRANCH  33  34
ATOM     34  C   UNL     1       1.449  -6.431  -3.552  0.00  0.00    +0.141 C 
BRANCH  34  35
ATOM     35  O   UNL     1       0.259  -6.793  -4.254  0.00  0.00    -0.385 OA
ATOM     36  C   UNL     1       0.092  -8.201  -4.430  0.00  0.00    +0.193 C 
ENDBRANCH  34  35
ENDBRANCH  33  34
ENDBRANCH  27  33
ENDBRANCH  26  27
ENDBRANCH   4  26
TORSDOF 13
