REMARK  Name = ZINC39794933
REMARK  3 active torsions:
REMARK  status: ('A' for Active; 'I' for Inactive)
REMARK    1  A    between atoms: C_1  and  C_2
REMARK    2  A    between atoms: C_5  and  C_8
REMARK    3  A    between atoms: C_11  and  C_13
REMARK                            x       y       z     vdW  Elec       q    Type
REMARK                         _______ _______ _______ _____ _____    ______ ____
ROOT
ATOM      1  C   UNL     1       0.100  -7.510  -1.672  0.00  0.00    +0.128 C 
ATOM      2  C   UNL     1       1.337  -7.454  -2.519  0.00  0.00    +0.070 A 
ATOM      3  C   UNL     1       1.290  -7.750  -3.849  0.00  0.00    +0.111 A 
ATOM      4  N   UNL     1       2.440  -7.696  -4.597  0.00  0.00    -0.323 N 
ATOM      5  C   UNL     1       3.608  -7.352  -4.024  0.00  0.00    +0.159 A 
ATOM      6  S   UNL     1       5.030  -7.295  -4.976  0.00  0.00    -0.013 S 
ATOM      7  N   UNL     1       3.675  -7.053  -2.714  0.00  0.00    -0.302 N 
ATOM      8  C   UNL     1       2.570  -7.094  -1.944  0.00  0.00    +0.258 A 
ATOM      9  O   UNL     1       2.637  -6.820  -0.758  0.00  0.00    -0.267 OA
ATOM     10  N   UNL     1       0.098  -8.096  -4.435  0.00  0.00    -0.304 N 
ATOM     11  C   UNL     1      -1.093  -7.782  -3.838  0.00  0.00    +0.017 C 
ATOM     12  C   UNL     1      -1.145  -7.486  -2.523  0.00  0.00    +0.027 C 
ATOM     13  C   UNL     1      -2.361  -7.147  -1.905  0.00  0.00    +0.162 C 
ATOM     14  O   UNL     1      -2.376  -6.893  -0.717  0.00  0.00    -0.292 OA
ATOM     15  C   UNL     1      -3.645  -7.091  -2.688  0.00  0.00    +0.080 C 
ATOM     16  C   UNL     1      -3.326  -6.741  -4.145  0.00  0.00    +0.014 C 
ATOM     17  C   UNL     1      -2.341  -7.778  -4.686  0.00  0.00    +0.051 C 
ATOM     18  H   UNL     1       4.527  -6.805  -2.320  0.00  0.00    +0.171 HD
ATOM     19  H   UNL     1       0.100  -8.568  -5.283  0.00  0.00    +0.153 HD
ATOM     20  H   UNL     1       2.411  -7.907  -5.543  0.00  0.00    +0.169 HD
ENDROOT
BRANCH   1  24
ATOM     21  C   UNL     1       0.058  -4.251  -0.021  0.00  0.00    +0.135 A 
ATOM     22  C   UNL     1       0.069  -5.054   1.075  0.00  0.00    +0.050 A 
ATOM     23  C   UNL     1       0.086  -6.383   0.605  0.00  0.00    +0.046 A 
ATOM     24  C   UNL     1       0.085  -6.325  -0.742  0.00  0.00    +0.118 A 
ATOM     25  O   UNL     1       0.062  -5.035  -1.116  0.00  0.00    -0.459 OA
BRANCH  21  30
ATOM     26  C   UNL     1      -0.018   1.503   0.010  0.00  0.00    +0.044 C 
ATOM     27  C   UNL     1       0.002  -0.004   0.002  0.00  0.00    -0.050 A 
ATOM     28  C   UNL     1       0.006  -0.686  -1.202  0.00  0.00    +0.004 A 
ATOM     29  C   UNL     1       0.024  -2.066  -1.216  0.00  0.00    +0.012 A 
ATOM     30  C   UNL     1       0.039  -2.773  -0.013  0.00  0.00    +0.017 A 
ATOM     31  C   UNL     1       0.036  -2.079   1.198  0.00  0.00    +0.012 A 
ATOM     32  C   UNL     1       0.023  -0.699   1.198  0.00  0.00    +0.004 A 
ENDBRANCH  21  30
ENDBRANCH   1  24
TORSDOF 2
