REMARK  Name = ZINC44905623
REMARK  12 active torsions:
REMARK  status: ('A' for Active; 'I' for Inactive)
REMARK    1  A    between atoms: C_1  and  C_2
REMARK    2  A    between atoms: C_2  and  O_3
REMARK    3  A    between atoms: O_3  and  C_4
REMARK    4  A    between atoms: C_7  and  C_13
REMARK    5  A    between atoms: C_9  and  O_10
REMARK    6  A    between atoms: O_10  and  C_11
REMARK    7  A    between atoms: C_11  and  C_12
REMARK    8  A    between atoms: C_13  and  C_15
REMARK    9  A    between atoms: C_13  and  N_16
REMARK   10  A    between atoms: C_17  and  C_19
REMARK   11  A    between atoms: N_22  and  C_25
REMARK   12  A    between atoms: C_25  and  C_26
REMARK                            x       y       z     vdW  Elec       q    Type
REMARK                         _______ _______ _______ _____ _____    ______ ____
ROOT
ATOM      1  N   UNL     1      -0.641  -7.233   0.400  0.00  0.00    -0.309 N 
ATOM      2  C   UNL     1      -0.917  -8.380   1.053  0.00  0.00    +0.216 C 
ATOM      3  O   UNL     1      -1.940  -8.984   0.810  0.00  0.00    -0.276 OA
ATOM      4  H   UNL     1       0.177  -6.750   0.594  0.00  0.00    +0.149 HD
ENDROOT
BRANCH   2   5
ATOM      5  C   UNL     1       0.045  -8.910   2.084  0.00  0.00    +0.071 C 
ATOM      6  C   UNL     1       0.208  -7.884   3.209  0.00  0.00    -0.006 C 
ATOM      7  C   UNL     1       1.123  -8.461   4.290  0.00  0.00    -0.078 C 
ATOM      8  N   UNL     1       0.533  -9.692   4.830  0.00  0.00    +0.382 N 
ATOM      9  C   UNL     1       0.441 -10.706   3.773  0.00  0.00    -0.078 C 
ATOM     10  C   UNL     1      -0.501 -10.215   2.671  0.00  0.00    -0.006 C 
ATOM     11  H   UNL     1      -0.390  -9.493   5.186  0.00  0.00    -0.081 HD
BRANCH   8  12
ATOM     12  C   UNL     1       1.376 -10.200   5.921  0.00  0.00    -0.042 C 
BRANCH  12  13
ATOM     13  C   UNL     1       0.699 -11.379   6.572  0.00  0.00    -0.056 A 
ATOM     14  C   UNL     1       1.119 -12.645   6.299  0.00  0.00    +0.002 A 
ATOM     15  C   UNL     1       0.506 -13.747   6.891  0.00  0.00    +0.001 A 
ATOM     16  C   UNL     1      -0.532 -13.590   7.758  0.00  0.00    +0.008 A 
ATOM     17  C   UNL     1      -0.993 -12.299   8.064  0.00  0.00    -0.018 A 
ATOM     18  C   UNL     1      -0.365 -11.177   7.466  0.00  0.00    -0.017 A 
ATOM     19  C   UNL     1      -0.823  -9.885   7.777  0.00  0.00    +0.009 A 
ATOM     20  C   UNL     1      -1.856  -9.728   8.648  0.00  0.00    +0.001 A 
ATOM     21  C   UNL     1      -2.470 -10.830   9.241  0.00  0.00    +0.001 A 
ATOM     22  C   UNL     1      -2.062 -12.097   8.954  0.00  0.00    +0.008 A 
ENDBRANCH  12  13
ENDBRANCH   8  12
ENDBRANCH   2   5
BRANCH   1  23
ATOM     23  C   UNL     1      -1.576  -6.717  -0.602  0.00  0.00    +0.100 C 
ATOM     24  C   UNL     1      -1.295  -7.381  -1.952  0.00  0.00    +0.033 C 
BRANCH  23  28
ATOM     25  C   UNL     1      -1.078  -2.486  -0.967  0.00  0.00    +0.162 A 
ATOM     26  C   UNL     1       0.028  -3.306  -0.819  0.00  0.00    +0.050 A 
ATOM     27  C   UNL     1      -0.136  -4.674  -0.701  0.00  0.00    +0.009 A 
ATOM     28  C   UNL     1      -1.403  -5.226  -0.731  0.00  0.00    -0.024 A 
ATOM     29  C   UNL     1      -2.511  -4.413  -0.879  0.00  0.00    +0.055 A 
ATOM     30  C   UNL     1      -2.354  -3.041  -0.992  0.00  0.00    +0.162 A 
BRANCH  25  31
ATOM     31  O   UNL     1      -0.918  -1.140  -1.083  0.00  0.00    -0.489 OA
BRANCH  31  33
ATOM     32  C   UNL     1       0.400   0.883  -1.192  0.00  0.00    +0.048 C 
ATOM     33  C   UNL     1       0.420  -0.640  -1.049  0.00  0.00    +0.226 C 
ENDBRANCH  31  33
ENDBRANCH  25  31
BRANCH  30  34
ATOM     34  O   UNL     1      -3.444  -2.239  -1.132  0.00  0.00    -0.489 OA
BRANCH  34  35
ATOM     35  C   UNL     1      -4.722  -2.879  -1.149  0.00  0.00    +0.226 C 
ATOM     36  C   UNL     1      -5.817  -1.824  -1.312  0.00  0.00    +0.048 C 
ENDBRANCH  34  35
ENDBRANCH  30  34
ENDBRANCH  23  28
ENDBRANCH   1  23
TORSDOF 9
