REMARK  Name = ZINC66115510
REMARK  11 active torsions:
REMARK  status: ('A' for Active; 'I' for Inactive)
REMARK    1  A    between atoms: C_1  and  C_2
REMARK    2  A    between atoms: C_2  and  C_4
REMARK    3  A    between atoms: C_4  and  O_5
REMARK    4  A    between atoms: O_5  and  C_6
REMARK    5  A    between atoms: C_9  and  C_14
REMARK    6  A    between atoms: C_11  and  O_12
REMARK    7  A    between atoms: O_12  and  C_13
REMARK    8  A    between atoms: C_14  and  N_15
REMARK    9  A    between atoms: C_21  and  C_23
REMARK   10  A    between atoms: C_23  and  C_24
REMARK   11  A    between atoms: N_26  and  N_27
REMARK                            x       y       z     vdW  Elec       q    Type
REMARK                         _______ _______ _______ _____ _____    ______ ____
ROOT
ATOM      1  N   UNL     1       1.064  -5.810  -5.929  0.00  0.00    +0.391 N 
ATOM      2  C   UNL     1       1.606  -4.536  -6.424  0.00  0.00    -0.058 C 
ATOM      3  C   UNL     1       3.133  -4.588  -6.350  0.00  0.00    +0.085 C 
ATOM      4  N   UNL     1       3.621  -5.806  -6.991  0.00  0.00    -0.318 N 
ATOM      5  C   UNL     1       2.831  -6.857  -7.238  0.00  0.00    +0.200 C 
ATOM      6  O   UNL     1       3.316  -7.842  -7.753  0.00  0.00    -0.278 OA
ATOM      7  C   UNL     1       1.366  -6.866  -6.903  0.00  0.00    +0.028 C 
ATOM      8  H   UNL     1       4.555  -5.855  -7.249  0.00  0.00    +0.149 HD
ATOM      9  H   UNL     1       1.487  -6.038  -5.042  0.00  0.00    -0.080 HD
ENDROOT
BRANCH   1  10
ATOM     10  C   UNL     1      -0.391  -5.695  -5.764  0.00  0.00    -0.042 C 
BRANCH  10  14
ATOM     11  C   UNL     1      -1.257  -2.913  -2.634  0.00  0.00    +0.162 A 
ATOM     12  C   UNL     1      -1.135  -2.473  -3.942  0.00  0.00    +0.049 A 
ATOM     13  C   UNL     1      -0.855  -3.374  -4.952  0.00  0.00    +0.005 A 
ATOM     14  C   UNL     1      -0.696  -4.716  -4.660  0.00  0.00    -0.060 A 
ATOM     15  C   UNL     1      -0.817  -5.162  -3.357  0.00  0.00    +0.051 A 
ATOM     16  C   UNL     1      -1.091  -4.263  -2.339  0.00  0.00    +0.162 A 
BRANCH  16  17
ATOM     17  O   UNL     1      -1.204  -4.699  -1.056  0.00  0.00    -0.491 OA
ATOM     18  C   UNL     1      -1.022  -6.098  -0.828  0.00  0.00    +0.277 C 
ENDBRANCH  16  17
BRANCH  11  19
ATOM     19  O   UNL     1      -1.532  -2.027  -1.640  0.00  0.00    -0.484 OA
BRANCH  19  20
ATOM     20  C   UNL     1      -1.689  -0.657  -2.016  0.00  0.00    +0.259 C 
BRANCH  20  22
ATOM     21  C   UNL     1      -2.197   1.656  -0.919  0.00  0.00    +0.042 C 
ATOM     22  C   UNL     1      -1.987   0.169  -0.791  0.00  0.00    -0.043 C 
ATOM     23  C   UNL     1      -2.063  -0.405   0.384  0.00  0.00    +0.011 C 
ENDBRANCH  20  22
ENDBRANCH  19  20
ENDBRANCH  11  19
ENDBRANCH  10  14
ENDBRANCH   1  10
BRANCH   7  24
ATOM     24  C   UNL     1       0.991  -8.226  -6.311  0.00  0.00    +0.091 C 
BRANCH  24  25
ATOM     25  C   UNL     1       1.868  -8.515  -5.120  0.00  0.00    +0.225 C 
ATOM     26  O   UNL     1       2.693  -7.701  -4.763  0.00  0.00    -0.275 OA
ATOM     27  N   UNL     1       1.736  -9.678  -4.452  0.00  0.00    -0.254 N 
ATOM     28  H   UNL     1       1.076 -10.329  -4.738  0.00  0.00    +0.169 HD
BRANCH  27  29
ATOM     29  N   UNL     1       2.532  -9.940  -3.373  0.00  0.00    -0.254 NA
ATOM     30  H   UNL     1       2.319 -10.844  -2.978  0.00  0.00    +0.140 HD
ATOM     31  H   UNL     1       3.508  -9.873  -3.619  0.00  0.00    +0.140 HD
ENDBRANCH  27  29
ENDBRANCH  24  25
ENDBRANCH   7  24
TORSDOF 9
