REMARK  Name = ZINC41547600
REMARK  7 active torsions:
REMARK  status: ('A' for Active; 'I' for Inactive)
REMARK    1  A    between atoms: C_1  and  C_2
REMARK    2  A    between atoms: C_11  and  C_13
REMARK    3  A    between atoms: C_11  and  C_14
REMARK    4  A    between atoms: N_16  and  C_17
REMARK    5  A    between atoms: C_17  and  C_19
REMARK    6  A    between atoms: C_17  and  C_20
REMARK    7  A    between atoms: C_24  and  N_26
REMARK                            x       y       z     vdW  Elec       q    Type
REMARK                         _______ _______ _______ _____ _____    ______ ____
ROOT
ATOM      1  C   UNL     1       2.194  -4.685   0.833  0.00  0.00    +0.266 C 
ATOM      2  O   UNL     1       2.938  -4.569   1.784  0.00  0.00    -0.271 OA
ATOM      3  N   UNL     1       2.699  -4.724  -0.416  0.00  0.00    -0.305 N 
ATOM      4  H   UNL     1       2.105  -4.818  -1.177  0.00  0.00    +0.149 HD
ENDROOT
BRANCH   1  15
ATOM      5  C   UNL     1      -0.018   1.503   0.010  0.00  0.00    +0.044 C 
ATOM      6  C   UNL     1       0.002  -0.004   0.002  0.00  0.00    -0.048 A 
ATOM      7  C   UNL     1       0.006  -0.687  -1.200  0.00  0.00    +0.007 A 
ATOM      8  C   UNL     1       0.019  -2.070  -1.216  0.00  0.00    +0.048 A 
ATOM      9  C   UNL     1       0.031  -2.773  -0.024  0.00  0.00    +0.144 A 
ATOM     10  C   UNL     1       0.038  -2.085   1.188  0.00  0.00    +0.076 A 
ATOM     11  C   UNL     1       0.023  -0.700   1.197  0.00  0.00    +0.030 A 
ATOM     12  N   UNL     1       0.086  -2.805   2.389  0.00  0.00    -0.279 N 
ATOM     13  C   UNL     1       0.342  -4.129   2.355  0.00  0.00    +0.270 C 
ATOM     14  O   UNL     1       0.279  -4.788   3.371  0.00  0.00    -0.271 OA
ATOM     15  C   UNL     1       0.706  -4.787   1.048  0.00  0.00    +0.257 C 
ATOM     16  O   UNL     1       0.025  -4.133  -0.026  0.00  0.00    -0.466 OA
ATOM     17  C   UNL     1       0.298  -6.261   1.088  0.00  0.00    +0.076 C 
ATOM     18  H   UNL     1      -0.063  -2.356   3.236  0.00  0.00    +0.155 HD
ENDBRANCH   1  15
BRANCH   3  19
ATOM     19  C   UNL     1       4.146  -4.626  -0.625  0.00  0.00    +0.100 C 
ATOM     20  C   UNL     1       4.557  -3.152  -0.662  0.00  0.00    +0.033 C 
BRANCH  19  21
ATOM     21  C   UNL     1       4.511  -5.283  -1.931  0.00  0.00    -0.026 A 
ATOM     22  C   UNL     1       3.700  -5.115  -3.039  0.00  0.00    +0.005 A 
ATOM     23  C   UNL     1       4.032  -5.715  -4.239  0.00  0.00    +0.002 A 
ATOM     24  C   UNL     1       5.175  -6.486  -4.335  0.00  0.00    +0.026 A 
ATOM     25  C   UNL     1       5.991  -6.656  -3.225  0.00  0.00    +0.046 A 
ATOM     26  C   UNL     1       5.658  -6.047  -2.022  0.00  0.00    +0.031 A 
BRANCH  25  27
ATOM     27  N   UNL     1       7.151  -7.437  -3.319  0.00  0.00    -0.323 N 
ATOM     28  C   UNL     1       8.028  -7.685  -2.302  0.00  0.00    +0.091 A 
ATOM     29  C   UNL     1       9.013  -8.474  -2.779  0.00  0.00    +0.019 A 
ATOM     30  C   UNL     1       8.735  -8.723  -4.138  0.00  0.00    +0.019 A 
ATOM     31  C   UNL     1       7.588  -8.082  -4.440  0.00  0.00    +0.091 A 
ENDBRANCH  25  27
ENDBRANCH  19  21
ENDBRANCH   3  19
TORSDOF 4
