REMARK  Name = ZINC22852072
REMARK  5 active torsions:
REMARK  status: ('A' for Active; 'I' for Inactive)
REMARK    1  A    between atoms: C_1  and  C_2
REMARK    2  A    between atoms: N_5  and  C_8
REMARK    3  A    between atoms: C_8  and  C_10
REMARK    4  A    between atoms: C_8  and  C_17
REMARK    5  A    between atoms: C_23  and  C_25
REMARK                            x       y       z     vdW  Elec       q    Type
REMARK                         _______ _______ _______ _____ _____    ______ ____
ROOT
ATOM      1  C   UNL     1      -8.386   0.319   0.039  0.00  0.00    +0.006 C 
ENDROOT
BRANCH   1   2
ATOM      2  C   UNL     1      -6.881   0.400   0.033  0.00  0.00    +0.050 A 
ATOM      3  C   UNL     1      -6.094   1.482   0.035  0.00  0.00    +0.282 A 
ATOM      4  N   UNL     1      -4.726   1.354   0.029  0.00  0.00    -0.169 N 
ATOM      5  C   UNL     1      -4.219   0.084   0.020  0.00  0.00    +0.200 A 
ATOM      6  S   UNL     1      -5.682  -0.924   0.021  0.00  0.00    -0.050 S 
ATOM      7  N   UNL     1      -2.916   0.130   0.009  0.00  0.00    -0.197 NA
ATOM      8  C   UNL     1      -2.518   1.410   0.020  0.00  0.00    +0.218 A 
ATOM      9  N   UNL     1      -3.579   2.189   0.029  0.00  0.00    -0.138 NA
ATOM     10  O   UNL     1      -6.654   2.721   0.044  0.00  0.00    -0.265 OA
BRANCH   8  11
ATOM     11  C   UNL     1      -1.115   1.872   0.017  0.00  0.00    +0.173 A 
ATOM     12  C   UNL     1      -0.013   1.076   0.008  0.00  0.00    +0.053 A 
ATOM     13  C   UNL     1       1.107   1.932   0.002  0.00  0.00    +0.042 A 
ATOM     14  C   UNL     1       0.638   3.195   0.013  0.00  0.00    +0.196 A 
ATOM     15  O   UNL     1      -0.705   3.155   0.026  0.00  0.00    -0.460 OA
ENDBRANCH   8  11
ENDBRANCH   1   2
BRANCH   1  20
ATOM     16  C   UNL     1     -10.655  -2.870  -4.126  0.00  0.00    +0.007 C 
ATOM     17  C   UNL     1     -10.319  -1.705  -3.193  0.00  0.00    -0.018 C 
ATOM     18  C   UNL     1      -8.824  -1.387  -3.289  0.00  0.00    -0.015 C 
ATOM     19  C   UNL     1      -8.483  -0.262  -2.309  0.00  0.00    -0.077 C 
ATOM     20  N   UNL     1      -8.826  -0.680  -0.943  0.00  0.00    +0.387 N 
ATOM     21  C   UNL     1     -10.265  -0.945  -0.815  0.00  0.00    -0.077 C 
ATOM     22  C   UNL     1     -10.660  -2.090  -1.750  0.00  0.00    -0.015 C 
ATOM     23  H   UNL     1      -8.293  -1.619  -0.736  0.00  0.00    -0.080 HD
ENDBRANCH   1  20
BRANCH   1  24
ATOM     24  C   UNL     1      -8.861  -0.082   1.412  0.00  0.00    -0.056 A 
ATOM     25  C   UNL     1      -8.828  -1.411   1.794  0.00  0.00    +0.003 A 
ATOM     26  C   UNL     1      -9.260  -1.778   3.054  0.00  0.00    +0.015 A 
ATOM     27  C   UNL     1      -9.735  -0.819   3.929  0.00  0.00    +0.018 A 
ATOM     28  C   UNL     1      -9.773   0.509   3.545  0.00  0.00    +0.015 A 
ATOM     29  C   UNL     1      -9.336   0.877   2.286  0.00  0.00    +0.003 A 
ATOM     30 BR   UNL     1     -10.333  -1.323   5.651  0.00  0.00    -0.050 Br
ENDBRANCH   1  24
TORSDOF 4
