REMARK  Name = ZINC39670812
REMARK  6 active torsions:
REMARK  status: ('A' for Active; 'I' for Inactive)
REMARK    1  A    between atoms: C_1  and  C_2
REMARK    2  A    between atoms: C_9  and  C_11
REMARK    3  A    between atoms: C_11  and  N_12
REMARK    4  A    between atoms: C_13  and  C_15
REMARK    5  A    between atoms: C_26  and  C_28
REMARK    6  A    between atoms: C_31  and  C_33
REMARK                            x       y       z     vdW  Elec       q    Type
REMARK                         _______ _______ _______ _____ _____    ______ ____
ROOT
ATOM      1  C   UNL     1      -2.943  -1.768   7.103  0.00  0.00    +0.100 C 
ATOM      2  C   UNL     1      -3.767  -0.495   6.801  0.00  0.00    +0.121 C 
ATOM      3  N   UNL     1      -4.634  -0.321   7.990  0.00  0.00    -0.294 N 
ATOM      4  C   UNL     1      -3.765  -0.680   9.137  0.00  0.00    +0.115 C 
ATOM      5  C   UNL     1      -2.944  -1.885   8.636  0.00  0.00    -0.004 C 
ATOM      6  C   UNL     1      -3.607  -3.190   9.066  0.00  0.00    -0.010 C 
ATOM      7  C   UNL     1      -3.546  -3.311  10.591  0.00  0.00    -0.082 C 
ATOM      8  N   UNL     1      -2.145  -3.283  11.029  0.00  0.00    +0.379 N 
ATOM      9  C   UNL     1      -1.541  -1.987  10.694  0.00  0.00    -0.082 C 
ATOM     10  C   UNL     1      -1.518  -1.811   9.173  0.00  0.00    -0.010 C 
ATOM     11  C   UNL     1      -5.922   0.076   8.022  0.00  0.00    +0.282 C 
ATOM     12  O   UNL     1      -6.503   0.172   9.087  0.00  0.00    -0.267 OA
ATOM     13  H   UNL     1      -2.104  -3.423  12.028  0.00  0.00    -0.086 HD
ATOM     14  H   UNL     1      -1.635  -4.020  10.567  0.00  0.00    -0.086 HD
ENDROOT
BRANCH  11  15
ATOM     15  C   UNL     1      -6.622   0.391   6.775  0.00  0.00    +0.190 A 
ATOM     16  C   UNL     1      -7.930   0.810   6.665  0.00  0.00    +0.055 A 
ATOM     17  C   UNL     1      -8.182   0.993   5.301  0.00  0.00    +0.050 A 
ATOM     18  C   UNL     1      -7.031   0.682   4.635  0.00  0.00    +0.136 A 
ATOM     19  O   UNL     1      -6.097   0.326   5.533  0.00  0.00    -0.450 OA
BRANCH  18  20
ATOM     20  C   UNL     1      -6.844   0.733   3.171  0.00  0.00    +0.017 A 
ATOM     21  C   UNL     1      -7.895   1.132   2.343  0.00  0.00    +0.014 A 
ATOM     22  C   UNL     1      -7.714   1.179   0.977  0.00  0.00    +0.039 A 
ATOM     23  C   UNL     1      -6.491   0.831   0.426  0.00  0.00    +0.123 A 
ATOM     24  C   UNL     1      -5.444   0.434   1.242  0.00  0.00    +0.039 A 
ATOM     25  C   UNL     1      -5.612   0.389   2.610  0.00  0.00    +0.014 A 
ATOM     26  F   UNL     1      -6.319   0.878  -0.914  0.00  0.00    -0.205 F 
ENDBRANCH  18  20
ENDBRANCH  11  15
BRANCH   1  28
ATOM     27  N   UNL     1      -0.833  -2.702   6.213  0.00  0.00    -0.309 N 
ATOM     28  C   UNL     1      -1.535  -1.615   6.589  0.00  0.00    +0.219 C 
ATOM     29  O   UNL     1      -1.032  -0.513   6.514  0.00  0.00    -0.275 OA
ATOM     30  H   UNL     1      -1.234  -3.583   6.273  0.00  0.00    +0.149 HD
BRANCH  27  31
ATOM     31  C   UNL     1       0.536  -2.554   5.714  0.00  0.00    +0.159 C 
BRANCH  31  40
ATOM     32  C   UNL     1       1.539  -6.503   1.903  0.00  0.00    +0.064 C 
ATOM     33  C   UNL     1       1.944  -6.685   3.343  0.00  0.00    +0.022 A 
ATOM     34  C   UNL     1       2.567  -7.821   3.724  0.00  0.00    +0.021 A 
ATOM     35  C   UNL     1       2.950  -8.004   5.063  0.00  0.00    +0.005 A 
ATOM     36  C   UNL     1       2.691  -7.030   5.977  0.00  0.00    +0.045 A 
ATOM     37  C   UNL     1       2.041  -5.850   5.564  0.00  0.00    +0.116 A 
ATOM     38  N   UNL     1       1.683  -5.698   4.249  0.00  0.00    -0.305 N 
ATOM     39  C   UNL     1       1.084  -4.473   4.136  0.00  0.00    +0.115 A 
ATOM     40  C   UNL     1       1.093  -3.910   5.364  0.00  0.00    +0.051 A 
ATOM     41  N   UNL     1       1.669  -4.760   6.219  0.00  0.00    -0.342 N 
ATOM     42  H   UNL     1       1.802  -4.600   7.166  0.00  0.00    +0.167 HD
ENDBRANCH  31  40
ENDBRANCH  27  31
ENDBRANCH   1  28
TORSDOF 5
