REMARK  Name = ZINC22752806
REMARK  13 active torsions:
REMARK  status: ('A' for Active; 'I' for Inactive)
REMARK    1  A    between atoms: C_1  and  C_2
REMARK    2  A    between atoms: C_2  and  N_3
REMARK    3  A    between atoms: N_3  and  C_4
REMARK    4  A    between atoms: N_3  and  C_6
REMARK    5  A    between atoms: C_4  and  C_5
REMARK    6  A    between atoms: C_6  and  C_8
REMARK    7  A    between atoms: C_6  and  C_31
REMARK    8  A    between atoms: C_8  and  N_9
REMARK    9  A    between atoms: C_10  and  C_12
REMARK   10  A    between atoms: C_12  and  S_13
REMARK   11  A    between atoms: S_13  and  C_14
REMARK   12  A    between atoms: N_27  and  C_28
REMARK   13  A    between atoms: C_28  and  C_29
REMARK                            x       y       z     vdW  Elec       q    Type
REMARK                         _______ _______ _______ _____ _____    ______ ____
ROOT
ATOM      1  C   UNL     1      -1.934   1.139  -1.780  0.00  0.00    +0.173 C 
ENDROOT
BRANCH   1   3
ATOM      2  N   UNL     1       0.339   0.889  -0.838  0.00  0.00    -0.316 N 
ATOM      3  C   UNL     1      -0.593   1.697  -1.380  0.00  0.00    +0.223 C 
ATOM      4  O   UNL     1      -0.351   2.874  -1.547  0.00  0.00    -0.275 OA
ATOM      5  H   UNL     1       0.151  -0.192  -0.758  0.00  0.00    +0.149 HD
BRANCH   2   6
ATOM      6  C   UNL     1       1.603   1.449  -0.354  0.00  0.00    +0.093 C 
BRANCH   6   7
ATOM      7  C   UNL     1       2.428   0.347   0.314  0.00  0.00    -0.020 C 
BRANCH   7   8
ATOM      8  C   UNL     1       3.789   0.885   0.673  0.00  0.00    -0.059 A 
ATOM      9  C   UNL     1       4.607   1.408  -0.311  0.00  0.00    +0.002 A 
ATOM     10  C   UNL     1       5.854   1.905   0.018  0.00  0.00    +0.000 A 
ATOM     11  C   UNL     1       6.287   1.871   1.331  0.00  0.00    +0.000 A 
ATOM     12  C   UNL     1       5.471   1.344   2.314  0.00  0.00    +0.000 A 
ATOM     13  C   UNL     1       4.222   0.850   1.985  0.00  0.00    +0.002 A 
ENDBRANCH   7   8
BRANCH   7  14
ATOM     14  N   UNL     1       2.576  -0.783  -0.612  0.00  0.00    +0.385 N 
ATOM     15  H   UNL     1       1.662  -0.843  -1.221  0.00  0.00    -0.081 HD
BRANCH  14  17
ATOM     16  C   UNL     1       3.293   0.370  -2.650  0.00  0.00    -0.017 C 
ATOM     17  C   UNL     1       3.711  -0.574  -1.520  0.00  0.00    -0.081 C 
ENDBRANCH  14  17
BRANCH  14  18
ATOM     18  C   UNL     1       2.715  -2.049   0.120  0.00  0.00    -0.081 C 
ATOM     19  C   UNL     1       1.360  -2.450   0.707  0.00  0.00    -0.017 C 
ENDBRANCH  14  18
ENDBRANCH   7  14
ENDBRANCH   6   7
ENDBRANCH   2   6
ENDBRANCH   1   3
BRANCH   1  20
ATOM     20  S   UNL     1      -2.902   2.428  -2.611  0.00  0.00    -0.076 S 
BRANCH  20  21
ATOM     21  C   UNL     1      -4.422   1.630  -3.010  0.00  0.00    +0.198 A 
ATOM     22  N   UNL     1      -4.731   0.384  -2.743  0.00  0.00    -0.120 NA
ATOM     23  N   UNL     1      -6.024   0.145  -3.224  0.00  0.00    -0.109 NA
ATOM     24  C   UNL     1      -6.467   1.255  -3.772  0.00  0.00    +0.240 A 
ATOM     25  N   UNL     1      -5.489   2.203  -3.647  0.00  0.00    -0.256 N 
ATOM     26  C   UNL     1      -5.685   3.492  -4.138  0.00  0.00    +0.064 A 
ATOM     27  C   UNL     1      -4.699   4.459  -4.019  0.00  0.00    +0.027 A 
ATOM     28  C   UNL     1      -4.919   5.730  -4.513  0.00  0.00    +0.002 A 
ATOM     29  C   UNL     1      -6.120   6.049  -5.127  0.00  0.00    +0.001 A 
ATOM     30  C   UNL     1      -7.112   5.099  -5.254  0.00  0.00    +0.015 A 
ATOM     31  C   UNL     1      -6.902   3.813  -4.759  0.00  0.00    +0.064 A 
ATOM     32  C   UNL     1      -7.937   2.770  -4.874  0.00  0.00    +0.263 A 
ATOM     33  O   UNL     1      -9.003   3.012  -5.407  0.00  0.00    -0.267 OA
ATOM     34  N   UNL     1      -7.677   1.540  -4.386  0.00  0.00    -0.273 N 
BRANCH  34  35
ATOM     35  C   UNL     1      -8.697   0.493  -4.491  0.00  0.00    +0.155 C 
BRANCH  35  36
ATOM     36  C   UNL     1      -9.587   0.536  -3.276  0.00  0.00    -0.013 C 
ATOM     37  C   UNL     1     -10.884   0.649  -3.418  0.00  0.00    +0.005 C 
ENDBRANCH  35  36
ENDBRANCH  34  35
ENDBRANCH  20  21
ENDBRANCH   1  20
TORSDOF 11
