REMARK  Name = ZINC26205324
REMARK  9 active torsions:
REMARK  status: ('A' for Active; 'I' for Inactive)
REMARK    1  A    between atoms: C_1  and  C_2
REMARK    2  A    between atoms: C_2  and  C_4
REMARK    3  A    between atoms: C_2  and  S_15
REMARK    4  A    between atoms: C_7  and  C_9
REMARK    5  A    between atoms: S_15  and  C_16
REMARK    6  A    between atoms: C_17  and  C_32
REMARK    7  A    between atoms: C_19  and  C_23
REMARK    8  A    between atoms: C_20  and  N_22
REMARK    9  A    between atoms: N_25  and  C_26
REMARK                            x       y       z     vdW  Elec       q    Type
REMARK                         _______ _______ _______ _____ _____    ______ ____
ROOT
ATOM      1  C   UNL     1       0.048   0.483   2.943  0.00  0.00    +0.117 A 
ATOM      2  C   UNL     1       0.253  -0.363   4.052  0.00  0.00    +0.084 A 
ATOM      3  C   UNL     1      -0.691  -0.376   5.080  0.00  0.00    +0.038 A 
ATOM      4  C   UNL     1      -1.807   0.457   4.966  0.00  0.00    +0.078 A 
ATOM      5  C   UNL     1      -1.940   1.274   3.826  0.00  0.00    +0.130 A 
ATOM      6  N   UNL     1      -1.021   1.263   2.873  0.00  0.00    -0.224 NA
ENDROOT
BRANCH   4   7
ATOM      7  C   UNL     1      -2.831   0.480   6.022  0.00  0.00    +0.252 C 
ATOM      8  O   UNL     1      -3.750   1.276   5.962  0.00  0.00    -0.270 OA
ATOM      9  N   UNL     1      -2.752  -0.380   7.056  0.00  0.00    -0.281 N 
ATOM     10  H   UNL     1      -1.981  -0.962   7.145  0.00  0.00    +0.155 HD
BRANCH   9  11
ATOM     11  C   UNL     1      -3.781  -0.434   8.002  0.00  0.00    +0.034 A 
ATOM     12  C   UNL     1      -3.492  -0.719   9.330  0.00  0.00    +0.023 A 
ATOM     13  C   UNL     1      -4.511  -0.771  10.261  0.00  0.00    +0.002 A 
ATOM     14  C   UNL     1      -5.818  -0.540   9.872  0.00  0.00    +0.000 A 
ATOM     15  C   UNL     1      -6.109  -0.257   8.550  0.00  0.00    +0.002 A 
ATOM     16  C   UNL     1      -5.094  -0.198   7.615  0.00  0.00    +0.023 A 
ENDBRANCH   9  11
ENDBRANCH   4   7
BRANCH   5  17
ATOM     17  N   UNL     1      -3.037   2.100   3.703  0.00  0.00    -0.343 N 
ATOM     18  H   UNL     1      -3.501   2.411   4.496  0.00  0.00    +0.144 HD
ATOM     19  H   UNL     1      -3.345   2.371   2.824  0.00  0.00    +0.144 HD
ENDBRANCH   5  17
BRANCH   2  20
ATOM     20  C   UNL     1       1.413  -1.200   4.121  0.00  0.00    +0.102 C 
ATOM     21  N   UNL     1       2.334  -1.863   4.177  0.00  0.00    -0.191 NA
ENDBRANCH   2  20
BRANCH   1  22
ATOM     22  S   UNL     1       1.231   0.511   1.638  0.00  0.00    -0.092 S 
BRANCH  22  24
ATOM     23  C   UNL     1       0.553   3.109   1.116  0.00  0.00    +0.029 C 
ATOM     24  C   UNL     1       0.565   1.724   0.466  0.00  0.00    +0.137 C 
BRANCH  24  25
ATOM     25  C   UNL     1       1.427   1.756  -0.769  0.00  0.00    +0.231 A 
ATOM     26  N   UNL     1       2.731   1.774  -0.798  0.00  0.00    -0.111 NA
ATOM     27  N   UNL     1       3.134   1.799  -2.019  0.00  0.00    -0.107 NA
ATOM     28  C   UNL     1       2.094   1.798  -2.818  0.00  0.00    +0.248 A 
ATOM     29  O   UNL     1       0.993   1.766  -2.041  0.00  0.00    -0.419 OA
BRANCH  28  30
ATOM     30  C   UNL     1       2.123   1.822  -4.297  0.00  0.00    +0.038 A 
ATOM     31  C   UNL     1       0.930   1.824  -5.021  0.00  0.00    +0.013 A 
ATOM     32  C   UNL     1       0.965   1.847  -6.400  0.00  0.00    +0.001 A 
ATOM     33  C   UNL     1       2.178   1.867  -7.065  0.00  0.00    +0.000 A 
ATOM     34  C   UNL     1       3.364   1.865  -6.352  0.00  0.00    +0.001 A 
ATOM     35  C   UNL     1       3.344   1.849  -4.973  0.00  0.00    +0.013 A 
ENDBRANCH  28  30
ENDBRANCH  24  25
ENDBRANCH  22  24
ENDBRANCH   1  22
TORSDOF 8
