REMARK  Name = ZINC59461650
REMARK  7 active torsions:
REMARK  status: ('A' for Active; 'I' for Inactive)
REMARK    1  A    between atoms: C_9  and  N_15
REMARK    2  A    between atoms: C_10  and  S_11
REMARK    3  A    between atoms: N_15  and  N_16
REMARK    4  A    between atoms: C_18  and  C_26
REMARK    5  A    between atoms: N_20  and  C_23
REMARK    6  A    between atoms: C_23  and  N_25
REMARK    7  A    between atoms: C_29  and  N_32
REMARK                            x       y       z     vdW  Elec       q    Type
REMARK                         _______ _______ _______ _____ _____    ______ ____
ROOT
ATOM      1  N   UNL     1       4.793  -4.060  -0.324  0.00  0.00    -0.175 NA
ATOM      2  C   UNL     1       5.910  -4.749  -0.453  0.00  0.00    +0.173 C 
ATOM      3  C   UNL     1       6.063  -6.218  -0.505  0.00  0.00    +0.122 C 
ATOM      4  N   UNL     1       7.337  -6.472  -0.640  0.00  0.00    -0.168 NA
ATOM      5  N   UNL     1       8.086  -5.297  -0.686  0.00  0.00    -0.134 N 
ATOM      6  C   UNL     1       7.279  -4.222  -0.583  0.00  0.00    +0.294 C 
ATOM      7  O   UNL     1       7.614  -3.051  -0.594  0.00  0.00    -0.266 OA
ENDROOT
BRANCH   3   8
ATOM      8  C   UNL     1       4.973  -7.218  -0.420  0.00  0.00    +0.004 A 
ATOM      9  C   UNL     1       3.650  -6.800  -0.281  0.00  0.00    +0.012 A 
ATOM     10  C   UNL     1       2.639  -7.736  -0.202  0.00  0.00    +0.033 A 
ATOM     11  C   UNL     1       2.935  -9.085  -0.259  0.00  0.00    +0.126 A 
ATOM     12  C   UNL     1       4.246  -9.506  -0.397  0.00  0.00    +0.033 A 
ATOM     13  C   UNL     1       5.265  -8.580  -0.483  0.00  0.00    +0.012 A 
BRANCH  11  14
ATOM     14  N   UNL     1       1.846 -10.084  -0.173  0.00  0.00    +0.056 N 
ATOM     15  O   UNL     1       0.700  -9.720  -0.052  0.00  0.00    -0.126 OA
ATOM     16  O   UNL     1       2.103 -11.264  -0.223  0.00  0.00    -0.126 OA
ENDBRANCH  11  14
ENDBRANCH   3   8
BRANCH   1  17
ATOM     17  N   UNL     1       4.828  -2.771  -0.301  0.00  0.00    -0.235 N 
ATOM     18  H   UNL     1       5.677  -2.308  -0.378  0.00  0.00    +0.174 HD
BRANCH  17  27
ATOM     19  C   UNL     1       0.107   1.461   0.157  0.00  0.00    +0.001 A 
ATOM     20  C   UNL     1       1.302   2.140  -0.075  0.00  0.00    +0.001 A 
ATOM     21  C   UNL     1       2.475   1.464  -0.213  0.00  0.00    +0.010 A 
ATOM     22  C   UNL     1       2.486   0.061  -0.121  0.00  0.00    +0.011 A 
ATOM     23  C   UNL     1       1.270  -0.629   0.114  0.00  0.00    -0.016 A 
ATOM     24  C   UNL     1       0.079   0.103   0.252  0.00  0.00    +0.008 A 
ATOM     25  C   UNL     1       1.275  -2.032   0.206  0.00  0.00    +0.010 A 
ATOM     26  C   UNL     1       2.441  -2.716   0.069  0.00  0.00    +0.027 A 
ATOM     27  C   UNL     1       3.647  -2.043  -0.164  0.00  0.00    +0.076 A 
ATOM     28  C   UNL     1       3.677  -0.668  -0.259  0.00  0.00    +0.150 A 
BRANCH  28  29
ATOM     29  S   UNL     1       5.200   0.168  -0.553  0.00  0.00    +0.142 S 
ATOM     30  O   UNL     1       5.769   0.481   0.749  0.00  0.00    -0.140 OA
ATOM     31  O   UNL     1       6.044  -0.744  -1.309  0.00  0.00    -0.140 OA
ATOM     32  O   UNL     1       4.884   1.369  -1.310  0.00  0.00    -0.043 OA
ENDBRANCH  28  29
ENDBRANCH  17  27
ENDBRANCH   1  17
BRANCH   5  33
ATOM     33  C   UNL     1       9.426  -5.243  -0.820  0.00  0.00    +0.158 C 
ATOM     34  S   UNL     1      10.222  -3.728  -0.861  0.00  0.00    -0.017 S 
BRANCH  33  35
ATOM     35  N   UNL     1      10.140  -6.382  -0.921  0.00  0.00    -0.339 N 
ATOM     36  H   UNL     1       9.689  -7.240  -0.897  0.00  0.00    +0.144 HD
ATOM     37  H   UNL     1      11.104  -6.343  -1.017  0.00  0.00    +0.144 HD
ENDBRANCH  33  35
ENDBRANCH   5  33
TORSDOF 7
