REMARK  Name = ZINC13065024
REMARK  14 active torsions:
REMARK  status: ('A' for Active; 'I' for Inactive)
REMARK    1  A    between atoms: C_1  and  C_2
REMARK    2  A    between atoms: C_2  and  C_3
REMARK    3  A    between atoms: C_3  and  C_5
REMARK    4  A    between atoms: C_3  and  N_74
REMARK    5  A    between atoms: N_9  and  C_10
REMARK    6  A    between atoms: C_10  and  C_11
REMARK    7  A    between atoms: C_10  and  C_12
REMARK    8  A    between atoms: C_10  and  C_13
REMARK    9  A    between atoms: C_13  and  C_14
REMARK   10  A    between atoms: C_15  and  C_16
REMARK   11  A    between atoms: C_15  and  N_74
REMARK   12  A    between atoms: C_21  and  C_29
REMARK   13  A    between atoms: C_22  and  C_28
REMARK   14  A    between atoms: C_30  and  N_74
REMARK                            x       y       z     vdW  Elec       q    Type
REMARK                         _______ _______ _______ _____ _____    ______ ____
ROOT
ATOM      1  N   UNL     1      -1.228   3.895   0.043  0.00  0.00    +0.391 N 
ATOM      2  H   UNL     1      -1.393   4.908   0.040  0.00  0.00    -0.080 HD
ENDROOT
BRANCH   1   3
ATOM      3  C   UNL     1      -2.500   3.201  -0.245  0.00  0.00    -0.067 C 
ATOM      4  C   UNL     1      -3.578   3.734   0.701  0.00  0.00    -0.015 C 
ATOM      5  C   UNL     1      -4.908   3.040   0.401  0.00  0.00    -0.002 C 
ATOM      6  C   UNL     1      -4.754   1.532   0.603  0.00  0.00    -0.000 C 
ATOM      7  C   UNL     1      -3.676   0.998  -0.343  0.00  0.00    -0.002 C 
ATOM      8  C   UNL     1      -2.346   1.692  -0.044  0.00  0.00    -0.015 C 
ENDBRANCH   1   3
BRANCH   1   9
ATOM      9  C   UNL     1      -0.723   3.494   1.372  0.00  0.00    +0.003 C 
BRANCH   9  10
ATOM     10  C   UNL     1      -0.085   2.130   1.305  0.00  0.00    +0.139 A 
ATOM     11  N   UNL     1       0.645   1.655   0.326  0.00  0.00    -0.115 NA
ATOM     12  N   UNL     1       1.005   0.459   0.642  0.00  0.00    -0.023 NA
ATOM     13  N   UNL     1       0.523   0.158   1.797  0.00  0.00    -0.043 NA
ATOM     14  N   UNL     1      -0.151   1.165   2.241  0.00  0.00    -0.225 N 
BRANCH  14  15
ATOM     15  C   UNL     1      -0.858   1.242   3.522  0.00  0.00    +0.061 C 
ATOM     16  C   UNL     1      -0.398   2.486   4.284  0.00  0.00    +0.036 C 
ATOM     17  C   UNL     1      -2.365   1.327   3.268  0.00  0.00    +0.036 C 
BRANCH  15  18
ATOM     18  C   UNL     1      -0.550  -0.007   4.350  0.00  0.00    +0.026 C 
ATOM     19  C   UNL     1      -1.289   0.073   5.688  0.00  0.00    +0.006 C 
ENDBRANCH  15  18
ENDBRANCH  14  15
ENDBRANCH   9  10
BRANCH   9  21
ATOM     20  C   UNL     1      -0.362   5.877   2.031  0.00  0.00    +0.002 C 
ATOM     21  C   UNL     1       0.315   4.519   1.833  0.00  0.00    -0.011 C 
ENDBRANCH   9  21
ENDBRANCH   1   9
BRANCH   1  22
ATOM     22  C   UNL     1      -0.228   3.569  -0.997  0.00  0.00    -0.036 C 
BRANCH  22  23
ATOM     23  C   UNL     1      -0.562   4.341  -2.247  0.00  0.00    +0.001 A 
ATOM     24  C   UNL     1       0.013   5.549  -2.468  0.00  0.00    +0.017 A 
ATOM     25  C   UNL     1      -0.332   6.274  -3.692  0.00  0.00    -0.001 A 
ATOM     26  C   UNL     1       0.228   7.524  -3.976  0.00  0.00    +0.010 A 
ATOM     27  C   UNL     1      -0.114   8.175  -5.127  0.00  0.00    +0.004 A 
ATOM     28  C   UNL     1      -1.014   7.606  -6.019  0.00  0.00    -0.046 A 
ATOM     29  C   UNL     1      -1.578   6.376  -5.760  0.00  0.00    -0.024 A 
ATOM     30  C   UNL     1      -1.244   5.695  -4.594  0.00  0.00    +0.052 A 
ATOM     31  N   UNL     1      -1.793   4.462  -4.311  0.00  0.00    -0.322 N 
ATOM     32  H   UNL     1      -2.422   4.064  -4.934  0.00  0.00    +0.169 HD
ATOM     33  C   UNL     1      -1.466   3.802  -3.187  0.00  0.00    +0.251 A 
ATOM     34  O   UNL     1      -1.967   2.712  -2.971  0.00  0.00    -0.268 OA
ATOM     35  C   UNL     1      -2.554   5.771  -6.737  0.00  0.00    +0.046 C 
ATOM     36  C   UNL     1      -1.376   8.342  -7.283  0.00  0.00    +0.044 C 
ENDBRANCH  22  23
ENDBRANCH   1  22
TORSDOF 8
