REMARK  Name = ZINC47680636
REMARK  6 active torsions:
REMARK  status: ('A' for Active; 'I' for Inactive)
REMARK    1  A    between atoms: C_4  and  C_7
REMARK    2  A    between atoms: C_7  and  C_9
REMARK    3  A    between atoms: C_7  and  O_26
REMARK    4  A    between atoms: C_9  and  N_10
REMARK    5  A    between atoms: N_13  and  C_14
REMARK    6  A    between atoms: C_14  and  C_15
REMARK                            x       y       z     vdW  Elec       q    Type
REMARK                         _______ _______ _______ _____ _____    ______ ____
ROOT
ATOM      1  N   UNL     1       5.358  -1.774  -1.497  0.00  0.00    -0.297 N 
ATOM      2  C   UNL     1       5.885  -2.186  -2.668  0.00  0.00    +0.300 C 
ATOM      3  O   UNL     1       5.298  -1.964  -3.709  0.00  0.00    -0.253 OA
ATOM      4  N   UNL     1       7.061  -2.844  -2.683  0.00  0.00    -0.299 N 
ATOM      5  H   UNL     1       5.826  -1.951  -0.666  0.00  0.00    +0.150 HD
ATOM      6  H   UNL     1       7.528  -3.021  -1.852  0.00  0.00    +0.150 HD
ENDROOT
BRANCH   1   7
ATOM      7  C   UNL     1       4.080  -1.059  -1.480  0.00  0.00    +0.141 C 
BRANCH   7   8
ATOM      8  C   UNL     1       3.711  -0.707  -0.038  0.00  0.00    +0.162 C 
BRANCH   8  12
ATOM      9  C   UNL     1      -0.017   1.378   0.010  0.00  0.00    +0.000 A 
ATOM     10  C   UNL     1       1.171   2.086   0.002  0.00  0.00    +0.000 A 
ATOM     11  C   UNL     1       2.377   1.411  -0.013  0.00  0.00    +0.006 A 
ATOM     12  C   UNL     1       2.396   0.029  -0.020  0.00  0.00    -0.018 A 
ATOM     13  C   UNL     1       1.208  -0.679  -0.012  0.00  0.00    +0.006 A 
ATOM     14  C   UNL     1       0.002  -0.004   0.002  0.00  0.00    +0.000 A 
ENDBRANCH   8  12
BRANCH   8  15
ATOM     15  O   UNL     1       3.596  -1.907   0.731  0.00  0.00    -0.386 OA
ATOM     16  H   UNL     1       2.922  -2.519   0.405  0.00  0.00    +0.210 HD
ENDBRANCH   8  15
ENDBRANCH   7   8
ENDBRANCH   1   7
BRANCH   4  17
ATOM     17  C   UNL     1       7.633  -3.291  -3.955  0.00  0.00    +0.113 C 
BRANCH  17  18
ATOM     18  C   UNL     1       8.960  -4.006  -3.695  0.00  0.00    +0.048 C 
ATOM     19  C   UNL     1       9.616  -4.378  -5.026  0.00  0.00    +0.047 C 
ATOM     20  C   UNL     1      10.759  -5.330  -4.780  0.00  0.00    -0.005 A 
ATOM     21  C   UNL     1      11.711  -5.500  -5.773  0.00  0.00    +0.007 A 
ATOM     22  C   UNL     1      12.768  -6.367  -5.583  0.00  0.00    +0.000 A 
ATOM     23  C   UNL     1      12.881  -7.071  -4.398  0.00  0.00    +0.004 A 
ATOM     24  C   UNL     1      11.938  -6.905  -3.406  0.00  0.00    +0.046 A 
ATOM     25  C   UNL     1      10.871  -6.031  -3.593  0.00  0.00    +0.124 A 
ATOM     26  O   UNL     1       9.968  -5.887  -2.588  0.00  0.00    -0.491 OA
ATOM     27  C   UNL     1       8.707  -5.296  -2.904  0.00  0.00    +0.234 C 
ENDBRANCH  17  18
ENDBRANCH   4  17
TORSDOF 6
