REMARK  Name = ZINC36500570
REMARK  13 active torsions:
REMARK  status: ('A' for Active; 'I' for Inactive)
REMARK    1  A    between atoms: C_1  and  C_2
REMARK    2  A    between atoms: C_2  and  C_3
REMARK    3  A    between atoms: C_3  and  C_4
REMARK    4  A    between atoms: C_4  and  N_5
REMARK    5  A    between atoms: C_6  and  C_8
REMARK    6  A    between atoms: C_8  and  C_10
REMARK    7  A    between atoms: C_8  and  N_20
REMARK    8  A    between atoms: C_12  and  N_17
REMARK    9  A    between atoms: N_20  and  C_21
REMARK   10  A    between atoms: C_21  and  C_22
REMARK   11  A    between atoms: C_27  and  C_29
REMARK   12  A    between atoms: C_30  and  O_36
REMARK   13  A    between atoms: C_34  and  O_35
REMARK                            x       y       z     vdW  Elec       q    Type
REMARK                         _______ _______ _______ _____ _____    ______ ____
ROOT
ATOM      1  C   UNL     1       2.261  -4.441  -3.791  0.00  0.00    +0.194 C 
ENDROOT
BRANCH   1   2
ATOM      2  C   UNL     1       3.734  -4.123  -3.791  0.00  0.00    +0.002 A 
ATOM      3  C   UNL     1       4.418  -4.015  -2.594  0.00  0.00    +0.040 A 
ATOM      4  C   UNL     1       5.769  -3.723  -2.593  0.00  0.00    +0.127 A 
ATOM      5  C   UNL     1       6.437  -3.538  -3.789  0.00  0.00    +0.034 A 
ATOM      6  C   UNL     1       5.755  -3.646  -4.986  0.00  0.00    +0.022 A 
ATOM      7  C   UNL     1       4.404  -3.944  -4.988  0.00  0.00    +0.047 A 
ATOM      8 CL   UNL     1       3.547  -4.086  -6.491  0.00  0.00    -0.083 Cl
BRANCH   4   9
ATOM      9  N   UNL     1       6.500  -3.608  -1.312  0.00  0.00    +0.056 N 
ATOM     10  O   UNL     1       5.916  -3.769  -0.266  0.00  0.00    -0.126 OA
ATOM     11  O   UNL     1       7.682  -3.353  -1.311  0.00  0.00    -0.126 OA
ENDBRANCH   4   9
ENDBRANCH   1   2
BRANCH   1  13
ATOM     12  N   UNL     1       1.346  -2.938  -2.052  0.00  0.00    -0.313 N 
ATOM     13  C   UNL     1       1.692  -4.188  -2.419  0.00  0.00    +0.238 C 
ATOM     14  O   UNL     1       1.546  -5.110  -1.644  0.00  0.00    -0.273 OA
ATOM     15  H   UNL     1       1.533  -2.191  -2.642  0.00  0.00    +0.149 HD
BRANCH  12  16
ATOM     16  C   UNL     1       0.689  -2.708  -0.763  0.00  0.00    +0.104 C 
BRANCH  16  17
ATOM     17  C   UNL     1       0.407  -1.214  -0.594  0.00  0.00    +0.018 C 
BRANCH  17  19
ATOM     18  C   UNL     1      -0.562   0.520   0.921  0.00  0.00    +0.004 C 
ATOM     19  C   UNL     1      -0.279  -0.974   0.752  0.00  0.00    -0.002 C 
ENDBRANCH  17  19
ENDBRANCH  16  17
ENDBRANCH  12  16
ENDBRANCH   1  13
BRANCH   1  20
ATOM     20  N   UNL     1       2.065  -5.848  -4.150  0.00  0.00    -0.274 N 
ATOM     21  C   UNL     1       0.821  -6.325  -4.351  0.00  0.00    +0.255 C 
ATOM     22  O   UNL     1      -0.139  -5.587  -4.236  0.00  0.00    -0.270 OA
BRANCH  21  23
ATOM     23  C   UNL     1       0.624  -7.739  -4.712  0.00  0.00    +0.119 A 
ATOM     24  C   UNL     1       0.444  -8.704  -3.710  0.00  0.00    +0.133 A 
ATOM     25  C   UNL     1       0.260 -10.032  -4.061  0.00  0.00    +0.046 A 
ATOM     26  C   UNL     1       0.252 -10.406  -5.391  0.00  0.00    +0.007 A 
ATOM     27  C   UNL     1       0.429  -9.463  -6.386  0.00  0.00    +0.046 A 
ATOM     28  C   UNL     1       0.610  -8.129  -6.059  0.00  0.00    +0.133 A 
BRANCH  28  29
ATOM     29  O   UNL     1       0.777  -7.204  -7.037  0.00  0.00    -0.506 OA
ATOM     30  H   UNL     1       1.699  -7.065  -7.293  0.00  0.00    +0.292 HD
ENDBRANCH  28  29
BRANCH  24  31
ATOM     31  O   UNL     1       0.452  -8.340  -2.404  0.00  0.00    -0.506 OA
ATOM     32  H   UNL     1      -0.419  -8.104  -2.056  0.00  0.00    +0.292 HD
ENDBRANCH  24  31
ENDBRANCH  21  23
BRANCH  20  33
ATOM     33  C   UNL     1       3.222  -6.736  -4.289  0.00  0.00    +0.183 C 
BRANCH  33  34
ATOM     34  C   UNL     1       3.597  -7.288  -2.938  0.00  0.00    +0.122 A 
ATOM     35  C   UNL     1       3.219  -8.479  -2.442  0.00  0.00    +0.046 A 
ATOM     36  C   UNL     1       3.793  -8.589  -1.155  0.00  0.00    +0.041 A 
ATOM     37  C   UNL     1       4.489  -7.457  -0.942  0.00  0.00    +0.195 A 
ATOM     38  O   UNL     1       4.372  -6.676  -2.027  0.00  0.00    -0.466 OA
ENDBRANCH  33  34
ENDBRANCH  20  33
ENDBRANCH   1  20
TORSDOF 12
