REMARK  Name = ZINC35369933
REMARK  6 active torsions:
REMARK  status: ('A' for Active; 'I' for Inactive)
REMARK    1  A    between atoms: C_1  and  S_2
REMARK    2  A    between atoms: S_2  and  C_3
REMARK    3  A    between atoms: C_6  and  N_9
REMARK    4  A    between atoms: C_22  and  C_24
REMARK    5  A    between atoms: C_24  and  C_25
REMARK    6  A    between atoms: C_25  and  C_26
REMARK                            x       y       z     vdW  Elec       q    Type
REMARK                         _______ _______ _______ _____ _____    ______ ____
ROOT
ATOM      1  N   UNL     1      -5.982  -1.081   0.090  0.00  0.00    -0.269 N 
ATOM      2  C   UNL     1      -6.217  -2.394  -0.105  0.00  0.00    +0.306 C 
ATOM      3  O   UNL     1      -5.286  -3.169  -0.214  0.00  0.00    -0.252 OA
ATOM      4  N   UNL     1      -7.484  -2.848  -0.181  0.00  0.00    -0.285 N 
ATOM      5  C   UNL     1      -8.612  -1.908  -0.242  0.00  0.00    +0.112 C 
ATOM      6  C   UNL     1      -9.461  -2.239  -1.475  0.00  0.00    +0.056 C 
ATOM      7  C   UNL     1      -9.844  -3.711  -1.448  0.00  0.00    +0.086 C 
ATOM      8  C   UNL     1      -8.614  -4.607  -1.438  0.00  0.00    +0.056 C 
ATOM      9  C   UNL     1      -7.761  -4.290  -0.210  0.00  0.00    +0.112 C 
ATOM     10  N   UNL     1     -10.726  -4.008  -0.313  0.00  0.00    -0.286 N 
ATOM     11  C   UNL     1     -12.013  -4.617  -0.646  0.00  0.00    +0.120 C 
ATOM     12  C   UNL     1     -12.511  -4.133  -2.041  0.00  0.00    +0.090 C 
ATOM     13  S   UNL     1     -10.880  -4.104  -2.915  0.00  0.00    -0.133 S 
ATOM     14  C   UNL     1     -10.372  -3.736   0.959  0.00  0.00    +0.217 C 
ATOM     15  O   UNL     1      -9.231  -3.414   1.215  0.00  0.00    -0.276 OA
ATOM     16  H   UNL     1      -6.715  -0.484   0.304  0.00  0.00    +0.156 HD
ENDROOT
BRANCH   1  20
ATOM     17  C   UNL     1      -2.099   0.412  -0.222  0.00  0.00    +0.008 A 
ATOM     18  C   UNL     1      -3.186   1.255  -0.418  0.00  0.00    +0.016 A 
ATOM     19  C   UNL     1      -4.471   0.761  -0.315  0.00  0.00    +0.024 A 
ATOM     20  C   UNL     1      -4.677  -0.579  -0.015  0.00  0.00    +0.035 A 
ATOM     21  C   UNL     1      -3.591  -1.422   0.182  0.00  0.00    +0.024 A 
ATOM     22  C   UNL     1      -2.306  -0.930   0.072  0.00  0.00    +0.016 A 
BRANCH  17  24
ATOM     23  C   UNL     1      -0.695   2.799  -0.742  0.00  0.00    +0.090 C 
ATOM     24  S   UNL     1      -0.459   1.043  -0.354  0.00  0.00    -0.129 S 
ENDBRANCH  17  24
ENDBRANCH   1  20
BRANCH  14  25
ATOM     25  C   UNL     1     -11.393  -3.833   2.063  0.00  0.00    +0.100 C 
BRANCH  25  26
ATOM     26  C   UNL     1     -10.736  -3.477   3.398  0.00  0.00    +0.044 C 
BRANCH  26  27
ATOM     27  C   UNL     1     -11.757  -3.574   4.502  0.00  0.00    -0.047 A 
ATOM     28  C   UNL     1     -12.517  -2.469   4.839  0.00  0.00    +0.003 A 
ATOM     29  C   UNL     1     -13.454  -2.558   5.852  0.00  0.00    +0.000 A 
ATOM     30  C   UNL     1     -13.631  -3.751   6.527  0.00  0.00    +0.000 A 
ATOM     31  C   UNL     1     -12.871  -4.856   6.189  0.00  0.00    +0.000 A 
ATOM     32  C   UNL     1     -11.938  -4.768   5.174  0.00  0.00    +0.003 A 
ENDBRANCH  26  27
ENDBRANCH  25  26
ENDBRANCH  14  25
TORSDOF 5
