REMARK  Name = ZINC02585051
REMARK  8 active torsions:
REMARK  status: ('A' for Active; 'I' for Inactive)
REMARK    1  A    between atoms: C_1  and  C_2
REMARK    2  A    between atoms: C_6  and  C_8
REMARK    3  A    between atoms: C_8  and  O_10
REMARK    4  A    between atoms: O_10  and  C_11
REMARK    5  A    between atoms: C_16  and  C_17
REMARK    6  A    between atoms: N_18  and  N_19
REMARK    7  A    between atoms: N_19  and  S_20
REMARK    8  A    between atoms: S_20  and  C_23
REMARK                            x       y       z     vdW  Elec       q    Type
REMARK                         _______ _______ _______ _____ _____    ______ ____
ROOT
ATOM      1  C   UNL     1       1.230   7.335   0.283  0.00  0.00    +0.141 A 
ATOM      2  C   UNL     1       0.047   8.031   0.466  0.00  0.00    +0.048 A 
ATOM      3  C   UNL     1       0.065   9.407   0.603  0.00  0.00    +0.019 A 
ATOM      4  C   UNL     1       1.263  10.100   0.547  0.00  0.00    +0.019 A 
ATOM      5  C   UNL     1       2.451   9.422   0.360  0.00  0.00    +0.028 A 
ATOM      6  C   UNL     1       2.445   8.032   0.226  0.00  0.00    +0.038 A 
ATOM      7 BR   UNL     1       1.272  11.982   0.730  0.00  0.00    -0.050 Br
ENDROOT
BRANCH   6   8
ATOM      8  C   UNL     1       3.709   7.301   0.025  0.00  0.00    +0.143 C 
ATOM      9  N   UNL     1       4.820   7.956  -0.126  0.00  0.00    -0.174 NA
BRANCH   9  10
ATOM     10  N   UNL     1       6.004   7.267  -0.421  0.00  0.00    -0.137 N 
ATOM     11  H   UNL     1       5.981   6.311  -0.584  0.00  0.00    +0.197 HD
BRANCH  10  12
ATOM     12  S   UNL     1       7.442   8.086  -0.491  0.00  0.00    +0.086 S 
ATOM     13  O   UNL     1       8.460   7.106  -0.637  0.00  0.00    -0.149 OA
ATOM     14  O   UNL     1       7.263   9.143  -1.423  0.00  0.00    -0.149 OA
BRANCH  12  15
ATOM     15  C   UNL     1       7.690   8.838   1.083  0.00  0.00    +0.110 A 
ATOM     16  C   UNL     1       7.130  10.072   1.355  0.00  0.00    +0.030 A 
ATOM     17  C   UNL     1       7.320  10.660   2.591  0.00  0.00    +0.022 A 
ATOM     18  C   UNL     1       8.080  10.019   3.553  0.00  0.00    +0.041 A 
ATOM     19  C   UNL     1       8.645   8.786   3.278  0.00  0.00    +0.022 A 
ATOM     20  C   UNL     1       8.450   8.197   2.043  0.00  0.00    +0.030 A 
ATOM     21 CL   UNL     1       8.324  10.760   5.104  0.00  0.00    -0.084 Cl
ENDBRANCH  12  15
ENDBRANCH  10  12
ENDBRANCH   9  10
ENDBRANCH   6   8
BRANCH   1  22
ATOM     22  O   UNL     1       1.213   5.983   0.153  0.00  0.00    -0.422 OA
BRANCH  22  23
ATOM     23  C   UNL     1       1.405   5.259   1.272  0.00  0.00    +0.344 C 
ATOM     24  O   UNL     1       1.489   5.815   2.349  0.00  0.00    -0.245 OA
BRANCH  23  30
ATOM     25  C   UNL     1       2.238   0.863   3.481  0.00  0.00    +0.044 C 
ATOM     26  C   UNL     1       1.915   1.669   2.249  0.00  0.00    -0.050 A 
ATOM     27  C   UNL     1       1.717   1.030   1.038  0.00  0.00    +0.003 A 
ATOM     28  C   UNL     1       1.413   1.762  -0.096  0.00  0.00    +0.001 A 
ATOM     29  C   UNL     1       1.311   3.136  -0.027  0.00  0.00    +0.015 A 
ATOM     30  C   UNL     1       1.514   3.788   1.191  0.00  0.00    +0.060 A 
ATOM     31  C   UNL     1       1.821   3.043   2.331  0.00  0.00    +0.018 A 
ENDBRANCH  23  30
ENDBRANCH  22  23
ENDBRANCH   1  22
TORSDOF 7
