REMARK  Name = ZINC06446041
REMARK  6 active torsions:
REMARK  status: ('A' for Active; 'I' for Inactive)
REMARK    1  A    between atoms: C_4  and  S_11
REMARK    2  A    between atoms: C_5  and  C_7
REMARK    3  A    between atoms: S_11  and  N_14
REMARK    4  A    between atoms: N_14  and  C_15
REMARK    5  A    between atoms: N_14  and  C_31
REMARK    6  A    between atoms: C_15  and  C_16
REMARK                            x       y       z     vdW  Elec       q    Type
REMARK                         _______ _______ _______ _____ _____    ______ ____
ROOT
ATOM      1  N   UNL     1      -2.715   0.549  -1.421  0.00  0.00    -0.169 NA
ENDROOT
BRANCH   1   2
ATOM      2  C   UNL     1      -1.997  -0.565  -2.044  0.00  0.00    +0.080 C 
ATOM      3  C   UNL     1      -2.421  -1.879  -1.385  0.00  0.00    +0.020 C 
ATOM      4  C   UNL     1      -1.670  -3.042  -2.036  0.00  0.00    +0.002 C 
ATOM      5  C   UNL     1      -0.164  -2.843  -1.854  0.00  0.00    +0.000 C 
ATOM      6  C   UNL     1       0.260  -1.530  -2.514  0.00  0.00    +0.002 C 
ATOM      7  C   UNL     1      -0.491  -0.366  -1.862  0.00  0.00    +0.020 C 
ENDBRANCH   1   2
BRANCH   1   8
ATOM      8  S   UNL     1      -3.813   1.422  -2.300  0.00  0.00    +0.062 S 
ATOM      9  O   UNL     1      -4.672   0.480  -2.929  0.00  0.00    -0.153 OA
ATOM     10  O   UNL     1      -4.302   2.443  -1.442  0.00  0.00    -0.153 OA
BRANCH   8  14
ATOM     11  C   UNL     1      -1.528   3.499  -5.610  0.00  0.00    +0.001 A 
ATOM     12  C   UNL     1      -2.493   2.559  -5.921  0.00  0.00    +0.002 A 
ATOM     13  C   UNL     1      -3.191   1.925  -4.910  0.00  0.00    +0.029 A 
ATOM     14  C   UNL     1      -2.923   2.230  -3.589  0.00  0.00    +0.117 A 
ATOM     15  C   UNL     1      -1.962   3.173  -3.278  0.00  0.00    +0.081 A 
ATOM     16  C   UNL     1      -1.261   3.804  -4.289  0.00  0.00    +0.014 A 
BRANCH  15  17
ATOM     17  C   UNL     1      -1.675   3.510  -1.838  0.00  0.00    +0.419 C 
ATOM     18  F   UNL     1      -0.721   4.532  -1.779  0.00  0.00    -0.166 F 
ATOM     19  F   UNL     1      -2.853   3.936  -1.215  0.00  0.00    -0.166 F 
ATOM     20  F   UNL     1      -1.184   2.376  -1.182  0.00  0.00    -0.166 F 
ENDBRANCH  15  17
ENDBRANCH   8  14
ENDBRANCH   1   8
BRANCH   1  21
ATOM     21  C   UNL     1      -2.463   0.890  -0.018  0.00  0.00    +0.150 C 
BRANCH  21  22
ATOM     22  C   UNL     1      -3.311   0.017   0.871  0.00  0.00    +0.033 A 
ATOM     23  C   UNL     1      -2.762  -1.067   1.476  0.00  0.00    +0.020 A 
ATOM     24  C   UNL     1      -3.611  -1.897   2.329  0.00  0.00    +0.003 A 
ATOM     25  C   UNL     1      -3.101  -3.031   2.973  0.00  0.00    +0.059 A 
ATOM     26  C   UNL     1      -3.925  -3.791   3.773  0.00  0.00    +0.167 A 
ATOM     27  C   UNL     1      -5.269  -3.435   3.943  0.00  0.00    +0.168 A 
ATOM     28  C   UNL     1      -5.782  -2.318   3.309  0.00  0.00    +0.075 A 
ATOM     29  C   UNL     1      -4.963  -1.540   2.499  0.00  0.00    +0.053 A 
ATOM     30  N   UNL     1      -5.459  -0.422   1.859  0.00  0.00    -0.322 N 
ATOM     31  H   UNL     1      -6.390  -0.178   1.975  0.00  0.00    +0.169 HD
ATOM     32  C   UNL     1      -4.669   0.333   1.076  0.00  0.00    +0.254 A 
ATOM     33  O   UNL     1      -5.140   1.313   0.526  0.00  0.00    -0.268 OA
ATOM     34  O   UNL     1      -5.855  -4.344   4.774  0.00  0.00    -0.453 OA
ATOM     35  C   UNL     1      -4.770  -5.018   5.436  0.00  0.00    +0.466 C 
ATOM     36  O   UNL     1      -3.681  -4.922   4.500  0.00  0.00    -0.453 OA
ENDBRANCH  21  22
ENDBRANCH   1  21
TORSDOF 6
