REMARK  Name = ZINC12128055
REMARK  12 active torsions:
REMARK  status: ('A' for Active; 'I' for Inactive)
REMARK    1  A    between atoms: C_1  and  C_2
REMARK    2  A    between atoms: C_4  and  C_10
REMARK    3  A    between atoms: C_7  and  O_8
REMARK    4  A    between atoms: O_8  and  C_9
REMARK    5  A    between atoms: C_10  and  N_63
REMARK    6  A    between atoms: C_12  and  S_28
REMARK    7  A    between atoms: C_15  and  C_17
REMARK    8  A    between atoms: N_19  and  C_20
REMARK    9  A    between atoms: N_19  and  C_21
REMARK   10  A    between atoms: C_21  and  C_22
REMARK   11  A    between atoms: C_23  and  C_27
REMARK   12  A    between atoms: S_28  and  C_29
REMARK                            x       y       z     vdW  Elec       q    Type
REMARK                         _______ _______ _______ _____ _____    ______ ____
ROOT
ATOM      1  C   UNL     1       3.235   6.853  -0.221  0.00  0.00    -0.063 C 
ATOM      2  C   UNL     1       2.267   7.331   0.883  0.00  0.00    +0.034 C 
ATOM      3  C   UNL     1       2.090   6.115   1.815  0.00  0.00    +0.006 C 
ATOM      4  C   UNL     1       2.965   5.004   1.196  0.00  0.00    +0.021 C 
ATOM      5  N   UNL     1       3.074   5.394  -0.208  0.00  0.00    +0.391 N 
ATOM      6  H   UNL     1       2.219   5.130  -0.712  0.00  0.00    -0.080 HD
ENDROOT
BRANCH   4   7
ATOM      7  C   UNL     1       2.292   3.664   1.339  0.00  0.00    +0.202 C 
ATOM      8  O   UNL     1       1.694   3.183   0.400  0.00  0.00    -0.277 OA
ATOM      9  N   UNL     1       2.354   3.000   2.510  0.00  0.00    -0.300 N 
ATOM     10  C   UNL     1       2.975   3.631   3.678  0.00  0.00    +0.132 C 
BRANCH   9  11
ATOM     11  C   UNL     1       1.801   1.647   2.616  0.00  0.00    +0.168 C 
BRANCH  11  12
ATOM     12  C   UNL     1       0.380   1.724   3.111  0.00  0.00    +0.124 A 
ATOM     13  C   UNL     1      -0.020   1.617   4.458  0.00  0.00    +0.106 A 
ATOM     14  N   UNL     1      -1.313   1.721   4.534  0.00  0.00    -0.054 NA
ATOM     15  O   UNL     1      -1.802   1.910   3.216  0.00  0.00    -0.242 OA
ATOM     16  N   UNL     1      -0.668   1.897   2.363  0.00  0.00    -0.052 NA
ATOM     17  C   UNL     1       0.907   1.409   5.628  0.00  0.00    +0.071 C 
ENDBRANCH  11  12
ENDBRANCH   9  11
ENDBRANCH   4   7
BRANCH   5  18
ATOM     18  C   UNL     1       4.250   4.732  -0.854  0.00  0.00    -0.042 C 
BRANCH  18  22
ATOM     19  C   UNL     1       5.408   7.425  -4.910  0.00  0.00    +0.047 C 
ATOM     20  C   UNL     1       4.756   6.217  -4.288  0.00  0.00    -0.009 A 
ATOM     21  C   UNL     1       4.799   6.036  -2.919  0.00  0.00    +0.008 A 
ATOM     22  C   UNL     1       4.201   4.928  -2.348  0.00  0.00    -0.063 A 
ATOM     23  C   UNL     1       3.564   3.995  -3.145  0.00  0.00    +0.005 A 
ATOM     24  C   UNL     1       3.512   4.175  -4.514  0.00  0.00    +0.046 A 
ATOM     25  C   UNL     1       4.112   5.286  -5.089  0.00  0.00    +0.123 A 
BRANCH  25  26
ATOM     26  O   UNL     1       4.069   5.462  -6.436  0.00  0.00    -0.495 OA
ATOM     27  C   UNL     1       3.388   4.463  -7.199  0.00  0.00    +0.277 C 
ENDBRANCH  25  26
ENDBRANCH  18  22
ENDBRANCH   5  18
BRANCH   2  28
ATOM     28  S   UNL     1       2.990   8.724   1.794  0.00  0.00    -0.124 S 
BRANCH  28  29
ATOM     29  C   UNL     1       2.980  10.046   0.629  0.00  0.00    +0.008 A 
ATOM     30  C   UNL     1       2.486   9.840  -0.653  0.00  0.00    +0.017 A 
ATOM     31  C   UNL     1       2.474  10.880  -1.562  0.00  0.00    +0.039 A 
ATOM     32  C   UNL     1       2.965  12.123  -1.201  0.00  0.00    +0.123 A 
ATOM     33  C   UNL     1       3.463  12.329   0.075  0.00  0.00    +0.039 A 
ATOM     34  C   UNL     1       3.472  11.294   0.989  0.00  0.00    +0.017 A 
ATOM     35  F   UNL     1       2.958  13.137  -2.094  0.00  0.00    -0.205 F 
ENDBRANCH  28  29
ENDBRANCH   2  28
TORSDOF 8
