REMARK  Name = ZINC14187401
REMARK  6 active torsions:
REMARK  status: ('A' for Active; 'I' for Inactive)
REMARK    1  A    between atoms: C_1  and  C_2
REMARK    2  A    between atoms: N_10  and  C_14
REMARK    3  A    between atoms: C_14  and  C_15
REMARK    4  A    between atoms: N_17  and  C_18
REMARK    5  A    between atoms: C_18  and  C_20
REMARK    6  A    between atoms: C_18  and  C_21
REMARK                            x       y       z     vdW  Elec       q    Type
REMARK                         _______ _______ _______ _____ _____    ______ ____
ROOT
ATOM      1  C   UNL     1      -3.235   7.222  -1.677  0.00  0.00    +0.213 C 
ENDROOT
BRANCH   1  11
ATOM      2  C   UNL     1     -10.321  10.068  -4.062  0.00  0.00    +0.007 C 
ATOM      3  C   UNL     1      -9.174   9.809  -3.084  0.00  0.00    -0.014 C 
ATOM      4  C   UNL     1      -8.984   8.301  -2.909  0.00  0.00    +0.006 C 
ATOM      5  C   UNL     1      -7.844   8.042  -1.921  0.00  0.00    +0.035 C 
ATOM      6  C   UNL     1      -6.560   8.676  -2.446  0.00  0.00    +0.113 C 
ATOM      7  C   UNL     1      -6.742  10.176  -2.648  0.00  0.00    +0.035 C 
ATOM      8  C   UNL     1      -7.886  10.426  -3.634  0.00  0.00    +0.006 C 
ATOM      9  C   UNL     1      -5.414   8.408  -1.496  0.00  0.00    +0.247 C 
ATOM     10  O   UNL     1      -5.324   8.756  -0.338  0.00  0.00    -0.273 OA
ATOM     11  N   UNL     1      -4.514   7.700  -2.209  0.00  0.00    -0.215 N 
ATOM     12  C   UNL     1      -4.931   7.494  -3.464  0.00  0.00    +0.310 C 
ATOM     13  O   UNL     1      -4.289   6.886  -4.298  0.00  0.00    -0.252 OA
ATOM     14  N   UNL     1      -6.142   8.034  -3.698  0.00  0.00    -0.285 N 
ATOM     15  H   UNL     1      -6.639   8.007  -4.531  0.00  0.00    +0.151 HD
ENDBRANCH   1  11
BRANCH   1  16
ATOM     16  C   UNL     1      -3.421   5.849  -1.082  0.00  0.00    +0.231 C 
ATOM     17  O   UNL     1      -4.513   5.323  -1.101  0.00  0.00    -0.274 OA
ATOM     18  N   UNL     1      -2.373   5.207  -0.529  0.00  0.00    -0.307 N 
ATOM     19  H   UNL     1      -1.499   5.628  -0.514  0.00  0.00    +0.149 HD
BRANCH  18  20
ATOM     20  C   UNL     1      -2.553   3.873   0.048  0.00  0.00    +0.103 C 
ATOM     21  C   UNL     1      -3.045   4.004   1.491  0.00  0.00    +0.033 C 
BRANCH  20  22
ATOM     22  C   UNL     1      -1.238   3.136   0.031  0.00  0.00    +0.008 A 
ATOM     23  C   UNL     1      -0.050   3.843   0.024  0.00  0.00    +0.011 A 
ATOM     24  C   UNL     1       1.156   3.169   0.008  0.00  0.00    +0.039 A 
ATOM     25  C   UNL     1       1.176   1.785   0.000  0.00  0.00    +0.126 A 
ATOM     26  C   UNL     1      -0.013   1.076   0.008  0.00  0.00    +0.077 A 
ATOM     27  C   UNL     1      -1.220   1.752   0.017  0.00  0.00    +0.131 A 
ATOM     28  F   UNL     1      -2.382   1.062   0.019  0.00  0.00    -0.205 F 
ATOM     29  F   UNL     1       2.356   1.126  -0.014  0.00  0.00    -0.205 F 
ENDBRANCH  20  22
ENDBRANCH  18  20
ENDBRANCH   1  16
TORSDOF 4
