REMARK  Name = ZINC07172127
REMARK  11 active torsions:
REMARK  status: ('A' for Active; 'I' for Inactive)
REMARK    1  A    between atoms: C_1  and  C_2
REMARK    2  A    between atoms: C_4  and  N_11
REMARK    3  A    between atoms: C_5  and  O_9
REMARK    4  A    between atoms: O_9  and  C_10
REMARK    5  A    between atoms: C_12  and  C_14
REMARK    6  A    between atoms: C_14  and  C_16
REMARK    7  A    between atoms: C_14  and  S_17
REMARK    8  A    between atoms: S_17  and  C_18
REMARK    9  A    between atoms: C_21  and  C_26
REMARK   10  A    between atoms: N_22  and  C_23
REMARK   11  A    between atoms: C_23  and  C_24
REMARK                            x       y       z     vdW  Elec       q    Type
REMARK                         _______ _______ _______ _____ _____    ______ ____
ROOT
ATOM      1  N   UNL     1       0.028  -2.768  -2.427  0.00  0.00    -0.282 N 
ATOM      2  C   UNL     1      -0.089  -2.093  -3.588  0.00  0.00    +0.230 C 
ATOM      3  O   UNL     1      -0.106  -0.880  -3.585  0.00  0.00    -0.274 OA
ATOM      4  H   UNL     1       0.123  -3.733  -2.434  0.00  0.00    +0.155 HD
ENDROOT
BRANCH   1   8
ATOM      5  C   UNL     1      -1.301   1.185   0.178  0.00  0.00    +0.045 C 
ATOM      6  C   UNL     1      -0.624  -0.157   0.083  0.00  0.00    -0.030 A 
ATOM      7  C   UNL     1      -0.610  -0.839  -1.119  0.00  0.00    +0.031 A 
ATOM      8  C   UNL     1       0.014  -2.075  -1.209  0.00  0.00    +0.076 A 
ATOM      9  C   UNL     1       0.626  -2.626  -0.085  0.00  0.00    +0.143 A 
ATOM     10  C   UNL     1       0.608  -1.937   1.117  0.00  0.00    +0.067 A 
ATOM     11  C   UNL     1      -0.011  -0.702   1.198  0.00  0.00    +0.047 A 
ATOM     12 CL   UNL     1      -0.026   0.163   2.703  0.00  0.00    -0.083 Cl
BRANCH   9  13
ATOM     13  O   UNL     1       1.238  -3.837  -0.167  0.00  0.00    -0.493 OA
ATOM     14  C   UNL     1       1.844  -4.339   1.026  0.00  0.00    +0.277 C 
ENDBRANCH   9  13
ENDBRANCH   1   8
BRANCH   2  15
ATOM     15  C   UNL     1      -0.199  -2.845  -4.889  0.00  0.00    +0.137 C 
ATOM     16  C   UNL     1       1.193  -3.297  -5.336  0.00  0.00    +0.029 C 
BRANCH  15  17
ATOM     17  S   UNL     1      -0.919  -1.763  -6.154  0.00  0.00    -0.074 S 
BRANCH  17  18
ATOM     18  C   UNL     1      -1.117  -2.816  -7.553  0.00  0.00    +0.193 A 
ATOM     19  N   UNL     1      -0.808  -4.090  -7.621  0.00  0.00    -0.122 NA
ATOM     20  N   UNL     1      -1.085  -4.545  -8.791  0.00  0.00    -0.134 NA
ATOM     21  C   UNL     1      -1.583  -3.597  -9.533  0.00  0.00    +0.131 A 
ATOM     22  N   UNL     1      -1.627  -2.463  -8.769  0.00  0.00    -0.302 N 
ATOM     23  C   UNL     1      -2.033  -3.727 -10.965  0.00  0.00    +0.088 C 
BRANCH  22  24
ATOM     24  C   UNL     1      -2.116  -1.143  -9.174  0.00  0.00    +0.152 C 
BRANCH  24  25
ATOM     25  C   UNL     1      -0.980  -0.343  -9.758  0.00  0.00    -0.013 C 
ATOM     26  C   UNL     1      -1.091   0.171 -10.958  0.00  0.00    +0.005 C 
ENDBRANCH  24  25
ENDBRANCH  22  24
ENDBRANCH  17  18
ENDBRANCH  15  17
ENDBRANCH   2  15
TORSDOF 7
