REMARK  Name = ZINC04479886
REMARK  9 active torsions:
REMARK  status: ('A' for Active; 'I' for Inactive)
REMARK    1  A    between atoms: C_1  and  C_2
REMARK    2  A    between atoms: C_5  and  C_8
REMARK    3  A    between atoms: C_13  and  C_16
REMARK    4  A    between atoms: C_16  and  C_17
REMARK    5  A    between atoms: C_17  and  N_18
REMARK    6  A    between atoms: C_19  and  C_21
REMARK    7  A    between atoms: C_21  and  C_22
REMARK    8  A    between atoms: C_22  and  C_23
REMARK    9  A    between atoms: C_23  and  C_24
REMARK                            x       y       z     vdW  Elec       q    Type
REMARK                         _______ _______ _______ _____ _____    ______ ____
ROOT
ATOM      1  C   UNL     1      -1.704  -3.557  -3.219  0.00  0.00    +0.183 A 
ATOM      2  N   UNL     1      -1.605  -4.563  -2.342  0.00  0.00    -0.200 NA
ATOM      3  C   UNL     1      -1.495  -4.075  -1.138  0.00  0.00    +0.196 A 
ATOM      4  N   UNL     1      -1.519  -2.715  -1.188  0.00  0.00    -0.210 N 
ATOM      5  N   UNL     1      -1.657  -2.417  -2.569  0.00  0.00    -0.144 NA
ATOM      6  C   UNL     1      -1.413  -2.041   0.005  0.00  0.00    +0.054 A 
ATOM      7  C   UNL     1      -1.286  -2.705   1.155  0.00  0.00    +0.072 A 
ATOM      8  S   UNL     1      -1.322  -4.402   0.600  0.00  0.00    -0.056 S 
ENDROOT
BRANCH   1  13
ATOM      9  C   UNL     1      -2.254  -4.135  -8.923  0.00  0.00    +0.044 C 
ATOM     10  C   UNL     1      -2.110  -3.984  -7.431  0.00  0.00    -0.050 A 
ATOM     11  C   UNL     1      -2.015  -5.108  -6.630  0.00  0.00    +0.004 A 
ATOM     12  C   UNL     1      -1.883  -4.975  -5.263  0.00  0.00    +0.012 A 
ATOM     13  C   UNL     1      -1.846  -3.706  -4.689  0.00  0.00    +0.021 A 
ATOM     14  C   UNL     1      -1.947  -2.577  -5.500  0.00  0.00    +0.012 A 
ATOM     15  C   UNL     1      -2.073  -2.721  -6.866  0.00  0.00    +0.004 A 
ENDBRANCH   1  13
BRANCH   6  16
ATOM     16  C   UNL     1      -1.433  -0.534   0.013  0.00  0.00    +0.075 C 
BRANCH  16  17
ATOM     17  C   UNL     1       0.002  -0.004   0.002  0.00  0.00    +0.110 C 
BRANCH  17  18
ATOM     18  N   UNL     1      -0.018   1.461   0.010  0.00  0.00    -0.315 N 
ATOM     19  C   UNL     1       1.140   2.151   0.003  0.00  0.00    +0.213 C 
ATOM     20  O   UNL     1       2.199   1.558  -0.011  0.00  0.00    -0.276 OA
ATOM     21  H   UNL     1      -0.864   1.934   0.017  0.00  0.00    +0.149 HD
BRANCH  19  22
ATOM     22  C   UNL     1       1.120   3.657   0.011  0.00  0.00    +0.096 C 
BRANCH  22  23
ATOM     23  C   UNL     1       2.555   4.187   0.000  0.00  0.00    +0.014 C 
BRANCH  23  24
ATOM     24  C   UNL     1       2.534   5.717   0.009  0.00  0.00    +0.035 C 
BRANCH  24  25
ATOM     25  C   UNL     1       3.948   6.238  -0.002  0.00  0.00    -0.047 A 
ATOM     26  C   UNL     1       4.606   6.476   1.190  0.00  0.00    +0.003 A 
ATOM     27  C   UNL     1       5.904   6.950   1.180  0.00  0.00    +0.000 A 
ATOM     28  C   UNL     1       6.542   7.196  -0.022  0.00  0.00    +0.000 A 
ATOM     29  C   UNL     1       5.882   6.963  -1.214  0.00  0.00    +0.000 A 
ATOM     30  C   UNL     1       4.585   6.484  -1.204  0.00  0.00    +0.003 A 
ENDBRANCH  24  25
ENDBRANCH  23  24
ENDBRANCH  22  23
ENDBRANCH  19  22
ENDBRANCH  17  18
ENDBRANCH  16  17
ENDBRANCH   6  16
TORSDOF 8
