REMARK  Name = ZINC18081794
REMARK  9 active torsions:
REMARK  status: ('A' for Active; 'I' for Inactive)
REMARK    1  A    between atoms: C_1  and  C_2
REMARK    2  A    between atoms: C_5  and  C_8
REMARK    3  A    between atoms: C_8  and  N_9
REMARK    4  A    between atoms: N_9  and  C_10
REMARK    5  A    between atoms: C_11  and  C_22
REMARK    6  A    between atoms: C_16  and  C_21
REMARK    7  A    between atoms: N_23  and  C_24
REMARK    8  A    between atoms: C_24  and  C_25
REMARK    9  A    between atoms: C_28  and  C_31
REMARK                            x       y       z     vdW  Elec       q    Type
REMARK                         _______ _______ _______ _____ _____    ______ ____
ROOT
ATOM      1  C   UNL     1       1.716  -6.097  -0.025  0.00  0.00    +0.135 A 
ATOM      2  C   UNL     1       3.051  -6.555  -0.043  0.00  0.00    +0.095 A 
ATOM      3  C   UNL     1       3.283  -7.948  -0.064  0.00  0.00    +0.269 A 
ATOM      4  O   UNL     1       4.420  -8.386  -0.080  0.00  0.00    -0.266 OA
ATOM      5  N   UNL     1       2.224  -8.786  -0.067  0.00  0.00    -0.267 N 
ATOM      6  C   UNL     1       2.439 -10.132  -0.087  0.00  0.00    +0.099 A 
ATOM      7  C   UNL     1       1.401 -10.998  -0.090  0.00  0.00    -0.034 A 
ATOM      8  C   UNL     1       0.085 -10.519  -0.073  0.00  0.00    +0.008 A 
ATOM      9  C   UNL     1      -0.141  -9.174  -0.052  0.00  0.00    +0.047 A 
ATOM     10  C   UNL     1       0.952  -8.288  -0.048  0.00  0.00    +0.142 A 
ATOM     11  N   UNL     1       0.723  -6.975  -0.024  0.00  0.00    -0.214 NA
ATOM     12  C   UNL     1       1.661 -12.483  -0.113  0.00  0.00    +0.045 C 
ENDROOT
BRANCH   2  13
ATOM     13  C   UNL     1       4.169  -5.609  -0.040  0.00  0.00    +0.095 C 
ATOM     14  N   UNL     1       5.389  -6.045   0.054  0.00  0.00    -0.386 N 
ATOM     15  H   UNL     1       5.565  -6.999   0.049  0.00  0.00    +0.159 HD
BRANCH  14  16
ATOM     16  C   UNL     1       6.499  -5.097   0.168  0.00  0.00    +0.147 C 
BRANCH  16  17
ATOM     17  C   UNL     1       7.160  -5.256   1.514  0.00  0.00    -0.028 A 
ATOM     18  C   UNL     1       6.714  -4.518   2.594  0.00  0.00    +0.005 A 
ATOM     19  C   UNL     1       7.320  -4.664   3.828  0.00  0.00    +0.004 A 
ATOM     20  C   UNL     1       8.370  -5.548   3.982  0.00  0.00    -0.050 A 
ATOM     21  C   UNL     1       8.815  -6.288   2.902  0.00  0.00    +0.004 A 
ATOM     22  C   UNL     1       8.207  -6.145   1.669  0.00  0.00    +0.005 A 
ATOM     23  C   UNL     1       9.031  -5.707   5.327  0.00  0.00    +0.044 C 
ENDBRANCH  16  17
ENDBRANCH  14  16
ENDBRANCH   2  13
BRANCH   1  24
ATOM     24  N   UNL     1       1.447  -4.746  -0.004  0.00  0.00    -0.324 N 
ATOM     25  H   UNL     1       2.176  -4.106  -0.005  0.00  0.00    +0.148 HD
BRANCH  24  26
ATOM     26  C   UNL     1       0.060  -4.275   0.020  0.00  0.00    +0.138 C 
BRANCH  26  31
ATOM     27  C   UNL     1      -0.017   1.502   0.097  0.00  0.00    +0.044 C 
ATOM     28  C   UNL     1       0.003  -0.004   0.077  0.00  0.00    -0.050 A 
ATOM     29  C   UNL     1      -0.003  -0.680  -1.129  0.00  0.00    +0.003 A 
ATOM     30  C   UNL     1       0.016  -2.062  -1.147  0.00  0.00    +0.005 A 
ATOM     31  C   UNL     1       0.041  -2.769   0.040  0.00  0.00    -0.030 A 
ATOM     32  C   UNL     1       0.047  -2.093   1.246  0.00  0.00    +0.005 A 
ATOM     33  C   UNL     1       0.033  -0.711   1.265  0.00  0.00    +0.003 A 
ENDBRANCH  26  31
ENDBRANCH  24  26
ENDBRANCH   1  24
TORSDOF 6
