REMARK  Name = ZINC09712416
REMARK  4 active torsions:
REMARK  status: ('A' for Active; 'I' for Inactive)
REMARK    1  A    between atoms: C_3  and  C_6
REMARK    2  A    between atoms: C_15  and  C_16
REMARK    3  A    between atoms: C_15  and  N_52
REMARK    4  A    between atoms: N_21  and  C_22
REMARK                            x       y       z     vdW  Elec       q    Type
REMARK                         _______ _______ _______ _____ _____    ______ ____
ROOT
ATOM      1  C   UNL     1       4.832  -4.007   0.224  0.00  0.00    +0.204 C 
ATOM      2  O   UNL     1       3.790  -4.627   0.234  0.00  0.00    -0.277 OA
ATOM      3  N   UNL     1       4.814  -2.662   0.131  0.00  0.00    -0.241 N 
ATOM      4  C   UNL     1       3.639  -2.008   0.048  0.00  0.00    +0.310 C 
ATOM      5  O   UNL     1       2.595  -2.630   0.057  0.00  0.00    -0.252 OA
ATOM      6  N   UNL     1       3.622  -0.663  -0.045  0.00  0.00    -0.269 N 
ATOM      7  H   UNL     1       5.647  -2.166   0.124  0.00  0.00    +0.159 HD
ATOM      8  H   UNL     1       4.454  -0.172  -0.130  0.00  0.00    +0.156 HD
ENDROOT
BRANCH   6   9
ATOM      9  C   UNL     1       2.401   0.025  -0.019  0.00  0.00    +0.038 A 
ATOM     10  C   UNL     1       1.346  -0.460   0.742  0.00  0.00    +0.027 A 
ATOM     11  C   UNL     1       0.142   0.217   0.766  0.00  0.00    +0.051 A 
ATOM     12  C   UNL     1      -0.016   1.383   0.032  0.00  0.00    +0.162 A 
ATOM     13  C   UNL     1       1.039   1.873  -0.728  0.00  0.00    +0.164 A 
ATOM     14  C   UNL     1       2.247   1.192  -0.754  0.00  0.00    +0.072 A 
ATOM     15  O   UNL     1       0.905   3.021  -1.448  0.00  0.00    -0.485 OA
ATOM     16  C   UNL     1      -0.430   3.473  -1.696  0.00  0.00    +0.270 C 
ATOM     17  C   UNL     1      -1.216   3.395  -0.380  0.00  0.00    +0.270 C 
ATOM     18  O   UNL     1      -1.213   2.033   0.063  0.00  0.00    -0.485 OA
ENDBRANCH   6   9
BRANCH   1  19
ATOM     19  C   UNL     1       6.146  -4.738   0.317  0.00  0.00    +0.020 C 
BRANCH  19  28
ATOM     20  C   UNL     1       7.122  -6.907   0.769  0.00  0.00    +0.002 C 
ATOM     21  C   UNL     1       6.808  -8.399   0.826  0.00  0.00    -0.046 A 
ATOM     22  C   UNL     1       7.603  -9.336   1.481  0.00  0.00    +0.010 A 
ATOM     23  C   UNL     1       7.248 -10.642   1.484  0.00  0.00    +0.045 A 
ATOM     24  S   UNL     1       5.733 -10.614   0.537  0.00  0.00    -0.101 S 
ATOM     25  C   UNL     1       5.690  -8.875   0.210  0.00  0.00    -0.010 A 
ATOM     26  C   UNL     1       4.685  -8.077  -0.555  0.00  0.00    +0.024 C 
ATOM     27  C   UNL     1       5.298  -6.694  -0.833  0.00  0.00    -0.072 C 
ATOM     28  N   UNL     1       5.872  -6.184   0.435  0.00  0.00    +0.393 N 
ATOM     29  H   UNL     1       5.192  -6.333   1.190  0.00  0.00    -0.080 HD
BRANCH  20  32
ATOM     30  C   UNL     1       9.085  -5.779   3.833  0.00  0.00    +0.008 A 
ATOM     31  C   UNL     1       8.874  -6.208   2.536  0.00  0.00    +0.010 A 
ATOM     32  C   UNL     1       7.606  -6.441   2.118  0.00  0.00    -0.019 A 
ATOM     33  S   UNL     1       6.658  -6.044   3.578  0.00  0.00    -0.103 S 
ATOM     34  C   UNL     1       8.016  -5.604   4.649  0.00  0.00    +0.045 A 
ENDBRANCH  20  32
ENDBRANCH  19  28
ENDBRANCH   1  19
TORSDOF 4
