REMARK  Name = ZINC12367699
REMARK  7 active torsions:
REMARK  status: ('A' for Active; 'I' for Inactive)
REMARK    1  A    between atoms: C_1  and  C_2
REMARK    2  A    between atoms: N_6  and  O_7
REMARK    3  A    between atoms: O_7  and  C_8
REMARK    4  A    between atoms: C_8  and  C_9
REMARK    5  A    between atoms: C_21  and  C_29
REMARK    6  A    between atoms: C_26  and  C_27
REMARK    7  A    between atoms: C_26  and  O_28
REMARK                            x       y       z     vdW  Elec       q    Type
REMARK                         _______ _______ _______ _____ _____    ______ ____
ROOT
ATOM      1  C   UNL     1      -0.013   1.086   0.008  0.00  0.00    +0.016 C 
ATOM      2  C   UNL     1      -0.728   1.579   1.266  0.00  0.00    -0.007 C 
ATOM      3  C   UNL     1      -2.143   1.051   1.172  0.00  0.00    +0.017 C 
ATOM      4  C   UNL     1      -3.152   1.919   1.915  0.00  0.00    +0.059 C 
ATOM      5  C   UNL     1      -3.042   3.331   1.367  0.00  0.00    +0.080 C 
ATOM      6  N   UNL     1      -4.088   4.009   1.017  0.00  0.00    -0.089 NA
ATOM      7  C   UNL     1      -1.681   3.890   1.300  0.00  0.00    +0.026 C 
ATOM      8  C   UNL     1      -0.631   3.083   1.293  0.00  0.00    -0.062 C 
ATOM      9  C   UNL     1       0.753   3.705   1.388  0.00  0.00    +0.031 C 
ATOM     10  C   UNL     1       1.442   3.124   2.641  0.00  0.00    +0.008 C 
ATOM     11  C   UNL     1       1.444   1.613   2.505  0.00  0.00    -0.003 C 
ATOM     12  C   UNL     1       0.005   1.076   2.497  0.00  0.00    +0.002 C 
ATOM     13  C   UNL     1       0.052  -0.434   2.665  0.00  0.00    +0.005 C 
ATOM     14  C   UNL     1       0.393  -0.736   4.140  0.00  0.00    +0.010 C 
ATOM     15  C   UNL     1       1.440   0.230   4.637  0.00  0.00    -0.000 C 
ATOM     16  C   UNL     1       2.264   0.838   3.486  0.00  0.00    +0.001 C 
ATOM     17  C   UNL     1       3.365   1.593   4.244  0.00  0.00    +0.007 C 
ATOM     18  C   UNL     1       3.708   0.632   5.416  0.00  0.00    +0.035 C 
ATOM     19  C   UNL     1       2.563  -0.411   5.477  0.00  0.00    +0.069 C 
ATOM     20  C   UNL     1       2.096  -0.615   6.915  0.00  0.00    +0.042 C 
ATOM     21  C   UNL     1       0.794   1.314   5.504  0.00  0.00    +0.014 C 
ENDROOT
BRANCH  19  22
ATOM     22  O   UNL     1       2.980  -1.642   4.893  0.00  0.00    -0.388 OA
ATOM     23  H   UNL     1       3.686  -2.090   5.380  0.00  0.00    +0.210 HD
ENDBRANCH  19  22
BRANCH   6  24
ATOM     24  O   UNL     1      -3.945   5.338   0.549  0.00  0.00    -0.382 OA
BRANCH  24  25
ATOM     25  C   UNL     1      -5.180   5.966   0.199  0.00  0.00    +0.387 C 
BRANCH  25  26
ATOM     26  C   UNL     1      -4.912   7.368  -0.283  0.00  0.00    +0.395 C 
ATOM     27  O   UNL     1      -3.779   7.787  -0.323  0.00  0.00    -0.242 OA
ATOM     28  O   UNL     1      -5.931   8.152  -0.669  0.00  0.00    -0.242 OA
ENDBRANCH  25  26
ENDBRANCH  24  25
ENDBRANCH   6  24
TORSDOF 4
