REMARK  Name = ZINC36597642
REMARK  16 active torsions:
REMARK  status: ('A' for Active; 'I' for Inactive)
REMARK    1  A    between atoms: C_1  and  C_2
REMARK    2  A    between atoms: C_2  and  C_3
REMARK    3  A    between atoms: C_3  and  C_4
REMARK    4  A    between atoms: C_4  and  N_5
REMARK    5  A    between atoms: C_6  and  C_8
REMARK    6  A    between atoms: C_8  and  C_10
REMARK    7  A    between atoms: C_8  and  N_19
REMARK    8  A    between atoms: C_13  and  O_18
REMARK    9  A    between atoms: C_14  and  O_16
REMARK   10  A    between atoms: O_16  and  C_17
REMARK   11  A    between atoms: N_19  and  C_20
REMARK   12  A    between atoms: C_20  and  C_21
REMARK   13  A    between atoms: C_24  and  C_26
REMARK   14  A    between atoms: C_27  and  C_29
REMARK   15  A    between atoms: C_30  and  O_36
REMARK   16  A    between atoms: C_34  and  O_35
REMARK                            x       y       z     vdW  Elec       q    Type
REMARK                         _______ _______ _______ _____ _____    ______ ____
ROOT
ATOM      1  N   UNL     1       2.633  -6.200  -3.976  0.00  0.00    -0.274 N 
ATOM      2  C   UNL     1       2.189  -6.400  -5.232  0.00  0.00    +0.255 C 
ATOM      3  O   UNL     1       1.259  -7.157  -5.436  0.00  0.00    -0.270 OA
ENDROOT
BRANCH   2   4
ATOM      4  C   UNL     1       2.830  -5.702  -6.359  0.00  0.00    +0.119 A 
ATOM      5  C   UNL     1       4.124  -6.057  -6.766  0.00  0.00    +0.133 A 
ATOM      6  C   UNL     1       4.717  -5.394  -7.828  0.00  0.00    +0.046 A 
ATOM      7  C   UNL     1       4.039  -4.386  -8.486  0.00  0.00    +0.007 A 
ATOM      8  C   UNL     1       2.763  -4.027  -8.093  0.00  0.00    +0.046 A 
ATOM      9  C   UNL     1       2.148  -4.681  -7.037  0.00  0.00    +0.133 A 
BRANCH   9  10
ATOM     10  O   UNL     1       0.894  -4.331  -6.657  0.00  0.00    -0.506 OA
ATOM     11  H   UNL     1       0.864  -3.602  -6.023  0.00  0.00    +0.292 HD
ENDBRANCH   9  10
BRANCH   5  12
ATOM     12  O   UNL     1       4.793  -7.047  -6.122  0.00  0.00    -0.506 OA
ATOM     13  H   UNL     1       4.647  -7.927  -6.495  0.00  0.00    +0.292 HD
ENDBRANCH   5  12
ENDBRANCH   2   4
BRANCH   1  14
ATOM     14  C   UNL     1       3.642  -5.171  -3.710  0.00  0.00    +0.193 C 
BRANCH  14  15
ATOM     15  C   UNL     1       4.943  -5.830  -3.330  0.00  0.00    -0.015 A 
ATOM     16  C   UNL     1       4.933  -7.019  -2.623  0.00  0.00    +0.010 A 
ATOM     17  C   UNL     1       6.124  -7.627  -2.272  0.00  0.00    +0.049 A 
ATOM     18  C   UNL     1       7.330  -7.046  -2.629  0.00  0.00    +0.158 A 
ATOM     19  C   UNL     1       7.340  -5.850  -3.341  0.00  0.00    +0.162 A 
ATOM     20  C   UNL     1       6.143  -5.248  -3.694  0.00  0.00    +0.055 A 
BRANCH  19  21
ATOM     21  O   UNL     1       8.521  -5.276  -3.694  0.00  0.00    -0.491 OA
ATOM     22  C   UNL     1       8.454  -4.050  -4.423  0.00  0.00    +0.277 C 
ENDBRANCH  19  21
BRANCH  18  23
ATOM     23  O   UNL     1       8.503  -7.643  -2.284  0.00  0.00    -0.503 OA
ATOM     24  H   UNL     1       8.835  -8.268  -2.943  0.00  0.00    +0.292 HD
ENDBRANCH  18  23
ENDBRANCH  14  15
BRANCH  14  26
ATOM     25  N   UNL     1       3.606  -3.016  -2.497  0.00  0.00    -0.313 N 
ATOM     26  C   UNL     1       3.176  -4.291  -2.580  0.00  0.00    +0.238 C 
ATOM     27  O   UNL     1       2.413  -4.729  -1.744  0.00  0.00    -0.273 OA
ATOM     28  H   UNL     1       4.215  -2.666  -3.165  0.00  0.00    +0.149 HD
BRANCH  25  29
ATOM     29  C   UNL     1       3.153  -2.160  -1.398  0.00  0.00    +0.104 C 
BRANCH  29  30
ATOM     30  C   UNL     1       3.784  -0.773  -1.538  0.00  0.00    +0.018 C 
BRANCH  30  32
ATOM     31  C   UNL     1       3.942   1.508  -0.531  0.00  0.00    +0.004 C 
ATOM     32  C   UNL     1       3.311   0.121  -0.391  0.00  0.00    -0.002 C 
ENDBRANCH  30  32
ENDBRANCH  29  30
ENDBRANCH  25  29
ENDBRANCH  14  26
ENDBRANCH   1  14
BRANCH   1  33
ATOM     33  C   UNL     1       2.106  -7.011  -2.875  0.00  0.00    +0.183 C 
BRANCH  33  34
ATOM     34  C   UNL     1       0.620  -6.794  -2.758  0.00  0.00    +0.122 A 
ATOM     35  C   UNL     1      -0.332  -7.510  -3.384  0.00  0.00    +0.046 A 
ATOM     36  C   UNL     1      -1.577  -6.968  -2.991  0.00  0.00    +0.045 A 
ATOM     37  C   UNL     1      -1.312  -5.955  -2.147  0.00  0.00    +0.102 A 
ATOM     38  O   UNL     1       0.020  -5.857  -2.005  0.00  0.00    -0.463 OA
ATOM     39  C   UNL     1      -2.337  -5.080  -1.472  0.00  0.00    +0.086 C 
ENDBRANCH  33  34
ENDBRANCH   1  33
TORSDOF 13
