REMARK  Name = ZINC41018328
REMARK  13 active torsions:
REMARK  status: ('A' for Active; 'I' for Inactive)
REMARK    1  A    between atoms: C_1  and  C_2
REMARK    2  A    between atoms: N_6  and  C_29
REMARK    3  A    between atoms: C_9  and  N_14
REMARK    4  A    between atoms: C_15  and  C_17
REMARK    5  A    between atoms: C_19  and  O_27
REMARK    6  A    between atoms: C_20  and  O_25
REMARK    7  A    between atoms: C_21  and  O_23
REMARK    8  A    between atoms: O_23  and  C_24
REMARK    9  A    between atoms: O_25  and  C_26
REMARK   10  A    between atoms: O_27  and  C_28
REMARK   11  A    between atoms: C_29  and  C_30
REMARK   12  A    between atoms: C_30  and  C_31
REMARK   13  A    between atoms: C_30  and  C_32
REMARK                            x       y       z     vdW  Elec       q    Type
REMARK                         _______ _______ _______ _____ _____    ______ ____
ROOT
ATOM      1  C   UNL     1      -0.009   1.557  -0.002  0.00  0.00    +0.062 C 
ATOM      2  C   UNL     1       0.005   0.027  -0.018  0.00  0.00    +0.256 C 
ATOM      3  C   UNL     1       0.712  -0.455  -1.260  0.00  0.00    +0.260 C 
ATOM      4  O   UNL     1       0.082  -0.675  -2.273  0.00  0.00    -0.271 OA
ATOM      5  N   UNL     1       2.050  -0.639  -1.240  0.00  0.00    -0.265 N 
ATOM      6  C   UNL     1       2.750  -0.411  -0.047  0.00  0.00    +0.080 A 
ATOM      7  C   UNL     1       4.128  -0.275  -0.052  0.00  0.00    +0.050 A 
ATOM      8  C   UNL     1       4.803  -0.050   1.141  0.00  0.00    +0.036 A 
ATOM      9  C   UNL     1       4.096   0.037   2.333  0.00  0.00    +0.027 A 
ATOM     10  C   UNL     1       2.721  -0.099   2.338  0.00  0.00    +0.049 A 
ATOM     11  C   UNL     1       2.044  -0.322   1.152  0.00  0.00    +0.143 A 
ATOM     12  O   UNL     1       0.690  -0.455   1.141  0.00  0.00    -0.478 OA
ENDROOT
BRANCH   8  13
ATOM     13  N   UNL     1       6.196   0.088   1.141  0.00  0.00    -0.281 N 
ATOM     14  C   UNL     1       6.945  -0.631   0.281  0.00  0.00    +0.248 C 
ATOM     15  O   UNL     1       6.407  -1.336  -0.550  0.00  0.00    -0.270 OA
ATOM     16  H   UNL     1       6.622   0.702   1.760  0.00  0.00    +0.155 HD
BRANCH  14  17
ATOM     17  C   UNL     1       8.418  -0.562   0.350  0.00  0.00    +0.044 A 
ATOM     18  C   UNL     1       9.037   0.244   1.309  0.00  0.00    +0.062 A 
ATOM     19  C   UNL     1      10.416   0.307   1.371  0.00  0.00    +0.166 A 
ATOM     20  C   UNL     1      11.189  -0.432   0.479  0.00  0.00    +0.204 A 
ATOM     21  C   UNL     1      10.574  -1.236  -0.478  0.00  0.00    +0.166 A 
ATOM     22  C   UNL     1       9.195  -1.307  -0.540  0.00  0.00    +0.062 A 
BRANCH  21  23
ATOM     23  O   UNL     1      11.332  -1.956  -1.348  0.00  0.00    -0.491 OA
ATOM     24  C   UNL     1      10.635  -2.759  -2.303  0.00  0.00    +0.277 C 
ENDBRANCH  21  23
BRANCH  20  25
ATOM     25  O   UNL     1      12.545  -0.368   0.542  0.00  0.00    -0.488 OA
ATOM     26  C   UNL     1      13.200  -1.315   1.388  0.00  0.00    +0.277 C 
ENDBRANCH  20  25
BRANCH  19  27
ATOM     27  O   UNL     1      11.019   1.091   2.304  0.00  0.00    -0.491 OA
ATOM     28  C   UNL     1      10.166   1.822   3.187  0.00  0.00    +0.277 C 
ENDBRANCH  19  27
ENDBRANCH  14  17
ENDBRANCH   8  13
BRANCH   5  29
ATOM     29  C   UNL     1       2.758  -1.073  -2.447  0.00  0.00    +0.117 C 
BRANCH  29  30
ATOM     30  C   UNL     1       3.201   0.155  -3.247  0.00  0.00    +0.001 C 
ATOM     31  C   UNL     1       4.048  -0.292  -4.440  0.00  0.00    +0.009 C 
ATOM     32  C   UNL     1       1.968   0.908  -3.749  0.00  0.00    +0.009 C 
ENDBRANCH  29  30
ENDBRANCH   5  29
TORSDOF 7
