REMARK  Name = ZINC13032601
REMARK  14 active torsions:
REMARK  status: ('A' for Active; 'I' for Inactive)
REMARK    1  A    between atoms: C_1  and  C_2
REMARK    2  A    between atoms: C_2  and  C_3
REMARK    3  A    between atoms: C_3  and  C_4
REMARK    4  A    between atoms: C_3  and  C_5
REMARK    5  A    between atoms: C_3  and  N_6
REMARK    6  A    between atoms: C_7  and  C_9
REMARK    7  A    between atoms: C_9  and  C_11
REMARK    8  A    between atoms: C_9  and  N_16
REMARK    9  A    between atoms: N_16  and  C_17
REMARK   10  A    between atoms: C_20  and  C_23
REMARK   11  A    between atoms: C_23  and  O_25
REMARK   12  A    between atoms: O_25  and  C_26
REMARK   13  A    between atoms: C_27  and  C_29
REMARK   14  A    between atoms: C_29  and  N_30
REMARK                            x       y       z     vdW  Elec       q    Type
REMARK                         _______ _______ _______ _____ _____    ______ ____
ROOT
ATOM      1  N   UNL     1      -6.184   3.002  -1.792  0.00  0.00    -0.253 N 
ATOM      2  C   UNL     1      -4.965   2.961  -2.368  0.00  0.00    +0.242 C 
ATOM      3  O   UNL     1      -4.867   2.902  -3.575  0.00  0.00    -0.273 OA
ENDROOT
BRANCH   1   4
ATOM      4  C   UNL     1      -7.329   2.851  -2.573  0.00  0.00    +0.038 A 
ATOM      5  C   UNL     1      -8.585   3.043  -2.007  0.00  0.00    +0.024 A 
ATOM      6  C   UNL     1      -9.718   2.899  -2.776  0.00  0.00    +0.017 A 
ATOM      7  C   UNL     1      -9.605   2.550  -4.125  0.00  0.00    +0.059 A 
ATOM      8  C   UNL     1      -8.341   2.353  -4.689  0.00  0.00    +0.017 A 
ATOM      9  C   UNL     1      -7.213   2.503  -3.915  0.00  0.00    +0.024 A 
BRANCH   7  10
ATOM     10  C   UNL     1     -10.816   2.390  -4.950  0.00  0.00    +0.339 C 
ATOM     11  O   UNL     1     -10.717   2.086  -6.122  0.00  0.00    -0.245 OA
BRANCH  10  12
ATOM     12  O   UNL     1     -12.034   2.580  -4.404  0.00  0.00    -0.464 OA
ATOM     13  C   UNL     1     -13.181   2.405  -5.277  0.00  0.00    +0.280 C 
ENDBRANCH  10  12
ENDBRANCH   7  10
ENDBRANCH   1   4
BRANCH   1  14
ATOM     14  C   UNL     1      -6.304   3.206  -0.347  0.00  0.00    +0.204 C 
BRANCH  14  15
ATOM     15  C   UNL     1      -7.028   2.036   0.267  0.00  0.00    +0.019 A 
ATOM     16  C   UNL     1      -6.948   1.550   1.530  0.00  0.00    +0.013 A 
ATOM     17  C   UNL     1      -7.714   0.452   1.876  0.00  0.00    +0.008 A 
ATOM     18  C   UNL     1      -8.522  -0.106   0.941  0.00  0.00    +0.045 A 
ATOM     19  S   UNL     1      -8.217   0.933  -0.478  0.00  0.00    -0.099 S 
ENDBRANCH  14  15
BRANCH  14  21
ATOM     20  N   UNL     1      -7.357   4.837   1.186  0.00  0.00    -0.308 N 
ATOM     21  C   UNL     1      -7.079   4.471  -0.081  0.00  0.00    +0.239 C 
ATOM     22  O   UNL     1      -7.452   5.160  -1.007  0.00  0.00    -0.273 OA
ATOM     23  H   UNL     1      -7.059   4.287   1.927  0.00  0.00    +0.149 HD
BRANCH  20  24
ATOM     24  C   UNL     1      -8.111   6.067   1.445  0.00  0.00    +0.029 C 
ATOM     25  C   UNL     1      -7.346   7.263   0.874  0.00  0.00    +0.031 C 
ATOM     26  C   UNL     1      -9.484   5.973   0.777  0.00  0.00    +0.031 C 
BRANCH  24  28
ATOM     27  C   UNL     1      -9.075   7.532   3.223  0.00  0.00    +0.006 C 
ATOM     28  C   UNL     1      -8.289   6.248   2.953  0.00  0.00    +0.022 C 
ENDBRANCH  24  28
ENDBRANCH  20  24
ENDBRANCH  14  21
ENDBRANCH   1  14
BRANCH   2  29
ATOM     29  C   UNL     1      -3.726   2.987  -1.511  0.00  0.00    +0.242 C 
BRANCH  29  30
ATOM     30  N   UNL     1      -2.544   2.804  -2.356  0.00  0.00    -0.235 N 
ATOM     31  C   UNL     1      -1.952   1.610  -2.695  0.00  0.00    +0.090 A 
ATOM     32  C   UNL     1      -2.224   0.279  -2.400  0.00  0.00    +0.029 A 
ATOM     33  C   UNL     1      -1.421  -0.706  -2.901  0.00  0.00    +0.002 A 
ATOM     34  C   UNL     1      -0.338  -0.391  -3.713  0.00  0.00    +0.002 A 
ATOM     35  C   UNL     1      -0.053   0.907  -4.021  0.00  0.00    +0.032 A 
ATOM     36  C   UNL     1      -0.858   1.937  -3.515  0.00  0.00    +0.113 A 
ATOM     37  N   UNL     1      -0.827   3.278  -3.642  0.00  0.00    -0.129 NA
ATOM     38  N   UNL     1      -1.793   3.812  -2.980  0.00  0.00    -0.064 NA
ENDBRANCH  29  30
ENDBRANCH   2  29
TORSDOF 10
