REMARK  Name = ZINC22320304
REMARK  14 active torsions:
REMARK  status: ('A' for Active; 'I' for Inactive)
REMARK    1  A    between atoms: C_1  and  C_2
REMARK    2  A    between atoms: C_5  and  S_8
REMARK    3  A    between atoms: S_8  and  N_11
REMARK    4  A    between atoms: N_11  and  C_12
REMARK    5  A    between atoms: N_11  and  C_29
REMARK    6  A    between atoms: C_12  and  C_13
REMARK    7  A    between atoms: N_15  and  C_16
REMARK    8  A    between atoms: C_16  and  C_17
REMARK    9  A    between atoms: C_17  and  C_18
REMARK   10  A    between atoms: C_18  and  C_19
REMARK   11  A    between atoms: C_22  and  O_27
REMARK   12  A    between atoms: C_23  and  O_25
REMARK   13  A    between atoms: O_25  and  C_26
REMARK   14  A    between atoms: O_27  and  C_28
REMARK                            x       y       z     vdW  Elec       q    Type
REMARK                         _______ _______ _______ _____ _____    ______ ____
ROOT
ATOM      1  N   UNL     1      -0.343   1.624  -0.033  0.00  0.00    -0.194 N 
ENDROOT
BRANCH   1   2
ATOM      2  C   UNL     1       0.790   2.417  -0.229  0.00  0.00    +0.053 A 
ATOM      3  C   UNL     1       0.658   3.711  -0.718  0.00  0.00    +0.025 A 
ATOM      4  C   UNL     1       1.780   4.493  -0.911  0.00  0.00    +0.003 A 
ATOM      5  C   UNL     1       3.034   3.990  -0.616  0.00  0.00    +0.020 A 
ATOM      6  C   UNL     1       3.170   2.702  -0.129  0.00  0.00    +0.043 A 
ATOM      7  C   UNL     1       2.050   1.916   0.070  0.00  0.00    +0.044 A 
ATOM      8 CL   UNL     1       4.746   2.075   0.240  0.00  0.00    -0.083 Cl
ENDBRANCH   1   2
BRANCH   1   9
ATOM      9  S   UNL     1      -0.488   0.177  -0.825  0.00  0.00    +0.075 S 
ATOM     10  O   UNL     1      -1.879  -0.105  -0.903  0.00  0.00    -0.150 OA
ATOM     11  O   UNL     1       0.339   0.260  -1.978  0.00  0.00    -0.150 OA
BRANCH   9  16
ATOM     12  C   UNL     1       1.932  -4.054   2.731  0.00  0.00    +0.044 C 
ATOM     13  C   UNL     1       1.327  -2.997   1.843  0.00  0.00    -0.050 A 
ATOM     14  C   UNL     1       0.020  -2.593   2.041  0.00  0.00    +0.005 A 
ATOM     15  C   UNL     1      -0.534  -1.624   1.226  0.00  0.00    +0.029 A 
ATOM     16  C   UNL     1       0.218  -1.058   0.214  0.00  0.00    +0.109 A 
ATOM     17  C   UNL     1       1.524  -1.466   0.013  0.00  0.00    +0.029 A 
ATOM     18  C   UNL     1       2.080  -2.432   0.831  0.00  0.00    +0.005 A 
ENDBRANCH   9  16
ENDBRANCH   1   9
BRANCH   1  19
ATOM     19  C   UNL     1      -1.406   2.076   0.868  0.00  0.00    +0.227 C 
BRANCH  19  20
ATOM     20  C   UNL     1      -1.068   1.679   2.282  0.00  0.00    +0.232 C 
ATOM     21  O   UNL     1      -0.041   1.077   2.514  0.00  0.00    -0.274 OA
ATOM     22  N   UNL     1      -1.908   1.991   3.289  0.00  0.00    -0.314 N 
ATOM     23  H   UNL     1      -2.840   2.537   3.079  0.00  0.00    +0.149 HD
BRANCH  22  24
ATOM     24  C   UNL     1      -1.579   1.605   4.663  0.00  0.00    +0.104 C 
BRANCH  24  25
ATOM     25  C   UNL     1      -2.690   2.076   5.605  0.00  0.00    +0.023 C 
BRANCH  25  26
ATOM     26  C   UNL     1      -2.347   1.673   7.040  0.00  0.00    +0.037 C 
BRANCH  26  27
ATOM     27  C   UNL     1      -3.440   2.137   7.968  0.00  0.00    -0.044 A 
ATOM     28  C   UNL     1      -3.364   3.388   8.552  0.00  0.00    +0.007 A 
ATOM     29  C   UNL     1      -4.367   3.821   9.399  0.00  0.00    +0.049 A 
ATOM     30  C   UNL     1      -5.447   2.996   9.672  0.00  0.00    +0.161 A 
ATOM     31  C   UNL     1      -5.520   1.735   9.089  0.00  0.00    +0.162 A 
ATOM     32  C   UNL     1      -4.514   1.310   8.237  0.00  0.00    +0.053 A 
BRANCH  31  33
ATOM     33  O   UNL     1      -6.578   0.922   9.354  0.00  0.00    -0.491 OA
ATOM     34  C   UNL     1      -6.587  -0.358   8.720  0.00  0.00    +0.277 C 
ENDBRANCH  31  33
BRANCH  30  35
ATOM     35  O   UNL     1      -6.432   3.419  10.509  0.00  0.00    -0.491 OA
ATOM     36  C   UNL     1      -6.290   4.725  11.072  0.00  0.00    +0.277 C 
ENDBRANCH  30  35
ENDBRANCH  26  27
ENDBRANCH  25  26
ENDBRANCH  24  25
ENDBRANCH  22  24
ENDBRANCH  19  20
ENDBRANCH   1  19
TORSDOF 11
