REMARK  Name = ZINC46030989
REMARK  7 active torsions:
REMARK  status: ('A' for Active; 'I' for Inactive)
REMARK    1  A    between atoms: C_1  and  C_2
REMARK    2  A    between atoms: C_4  and  N_21
REMARK    3  A    between atoms: C_7  and  N_8
REMARK    4  A    between atoms: N_11  and  C_12
REMARK    5  A    between atoms: C_18  and  C_20
REMARK    6  A    between atoms: N_21  and  C_22
REMARK    7  A    between atoms: N_21  and  C_23
REMARK                            x       y       z     vdW  Elec       q    Type
REMARK                         _______ _______ _______ _____ _____    ______ ____
ROOT
ATOM      1  N   UNL     1       0.025  -0.010   2.418  0.00  0.00    -0.269 N 
ATOM      2  C   UNL     1      -0.057  -0.687   3.580  0.00  0.00    +0.304 C 
ATOM      3  O   UNL     1      -0.040  -1.903   3.578  0.00  0.00    -0.253 OA
ATOM      4  N   UNL     1      -0.156  -0.017   4.745  0.00  0.00    -0.296 N 
ATOM      5  H   UNL     1       0.078   0.959   2.424  0.00  0.00    +0.156 HD
ATOM      6  H   UNL     1      -0.169   0.953   4.747  0.00  0.00    +0.151 HD
ENDROOT
BRANCH   1  13
ATOM      7  C   UNL     1      -1.264   1.184   0.182  0.00  0.00    +0.046 C 
ATOM      8  C   UNL     1      -0.584  -0.158   0.085  0.00  0.00    -0.027 A 
ATOM      9  C   UNL     1      -0.571  -0.840  -1.116  0.00  0.00    +0.028 A 
ATOM     10  C   UNL     1       0.056  -2.075  -1.206  0.00  0.00    +0.030 A 
ATOM     11  C   UNL     1       0.669  -2.626  -0.087  0.00  0.00    +0.025 A 
ATOM     12  C   UNL     1       0.656  -1.943   1.113  0.00  0.00    +0.025 A 
ATOM     13  C   UNL     1       0.034  -0.705   1.201  0.00  0.00    +0.038 A 
BRANCH  10  14
ATOM     14  N   UNL     1       0.069  -2.767  -2.422  0.00  0.00    -0.336 N 
ATOM     15  C   UNL     1      -0.579  -2.187  -3.601  0.00  0.00    +0.129 C 
ATOM     16  C   UNL     1       0.730  -4.071  -2.517  0.00  0.00    +0.129 C 
ENDBRANCH  10  14
ENDBRANCH   1  13
BRANCH   4  17
ATOM     17  C   UNL     1      -0.245  -0.754   6.009  0.00  0.00    +0.077 C 
ATOM     18  C   UNL     1       1.163  -1.100   6.497  0.00  0.00    +0.022 C 
ATOM     19  C   UNL     1       1.071  -1.869   7.817  0.00  0.00    +0.002 C 
ATOM     20  C   UNL     1       0.366  -1.003   8.863  0.00  0.00    +0.000 C 
ATOM     21  C   UNL     1      -1.042  -0.657   8.375  0.00  0.00    +0.005 C 
ATOM     22  C   UNL     1      -0.949   0.112   7.055  0.00  0.00    +0.006 C 
ATOM     23  C   UNL     1      -2.357   0.458   6.567  0.00  0.00    +0.009 C 
ENDBRANCH   4  17
TORSDOF 3
