REMARK  Name = ZINC13192523
REMARK  13 active torsions:
REMARK  status: ('A' for Active; 'I' for Inactive)
REMARK    1  A    between atoms: C_1  and  C_2
REMARK    2  A    between atoms: C_2  and  N_3
REMARK    3  A    between atoms: N_3  and  C_4
REMARK    4  A    between atoms: N_3  and  S_6
REMARK    5  A    between atoms: C_4  and  C_5
REMARK    6  A    between atoms: S_6  and  C_9
REMARK    7  A    between atoms: C_12  and  C_15
REMARK    8  A    between atoms: C_15  and  C_17
REMARK    9  A    between atoms: C_15  and  N_18
REMARK   10  A    between atoms: N_18  and  C_19
REMARK   11  A    between atoms: C_22  and  C_28
REMARK   12  A    between atoms: C_24  and  N_25
REMARK   13  A    between atoms: C_29  and  C_30
REMARK                            x       y       z     vdW  Elec       q    Type
REMARK                         _______ _______ _______ _____ _____    ______ ____
ROOT
ATOM      1  C   UNL     1      -3.094   3.007   4.917  0.00  0.00    +0.098 C 
ATOM      2  C   UNL     1      -4.271   3.880   4.478  0.00  0.00    +0.033 C 
ENDROOT
BRANCH   1   6
ATOM      3  C   UNL     1      -0.845   1.821   1.484  0.00  0.00    +0.105 A 
ATOM      4  C   UNL     1      -0.663   3.079   2.029  0.00  0.00    +0.029 A 
ATOM      5  C   UNL     1      -1.394   3.464   3.138  0.00  0.00    +0.007 A 
ATOM      6  C   UNL     1      -2.300   2.588   3.706  0.00  0.00    -0.027 A 
ATOM      7  C   UNL     1      -2.478   1.329   3.165  0.00  0.00    +0.007 A 
ATOM      8  C   UNL     1      -1.750   0.945   2.054  0.00  0.00    +0.029 A 
BRANCH   3   9
ATOM      9  S   UNL     1       0.083   1.332   0.068  0.00  0.00    +0.061 S 
ATOM     10  O   UNL     1       0.131  -0.088   0.084  0.00  0.00    -0.153 OA
ATOM     11  O   UNL     1       1.257   2.134   0.055  0.00  0.00    -0.153 OA
BRANCH   9  12
ATOM     12  N   UNL     1      -0.798   1.762  -1.266  0.00  0.00    -0.177 NA
BRANCH  12  14
ATOM     13  C   UNL     1       0.392   2.982  -3.020  0.00  0.00    +0.022 C 
ATOM     14  C   UNL     1      -0.614   3.083  -1.872  0.00  0.00    +0.106 C 
ENDBRANCH  12  14
BRANCH  12  15
ATOM     15  C   UNL     1      -1.761   0.820  -1.842  0.00  0.00    +0.106 C 
ATOM     16  C   UNL     1      -3.155   1.109  -1.280  0.00  0.00    +0.022 C 
ENDBRANCH  12  15
ENDBRANCH   9  12
ENDBRANCH   3   9
ENDBRANCH   1   6
BRANCH   1  17
ATOM     17  N   UNL     1      -2.234   3.768   5.826  0.00  0.00    -0.336 N 
ATOM     18  H   UNL     1      -1.458   4.237   5.481  0.00  0.00    +0.147 HD
BRANCH  17  19
ATOM     19  C   UNL     1      -2.530   3.819   7.184  0.00  0.00    +0.058 A 
ATOM     20  C   UNL     1      -3.708   3.249   7.660  0.00  0.00    +0.026 A 
ATOM     21  C   UNL     1      -4.005   3.295   8.992  0.00  0.00    +0.010 A 
ATOM     22  C   UNL     1      -3.124   3.917   9.885  0.00  0.00    -0.023 A 
ATOM     23  C   UNL     1      -1.938   4.491   9.408  0.00  0.00    +0.042 A 
ATOM     24  C   UNL     1      -1.645   4.435   8.065  0.00  0.00    +0.147 A 
BRANCH  24  25
ATOM     25  N   UNL     1      -0.390   5.034   7.556  0.00  0.00    +0.058 N 
ATOM     26  O   UNL     1       0.434   5.476   8.336  0.00  0.00    -0.126 OA
ATOM     27  O   UNL     1      -0.182   5.084   6.357  0.00  0.00    -0.126 OA
ENDBRANCH  24  25
BRANCH  22  28
ATOM     28  C   UNL     1      -3.441   3.966  11.318  0.00  0.00    +0.015 C 
ATOM     29  C   UNL     1      -4.585   3.412  11.777  0.00  0.00    +0.096 C 
BRANCH  29  30
ATOM     30  C   UNL     1      -4.892   3.459  13.159  0.00  0.00    +0.380 C 
ATOM     31  O   UNL     1      -4.125   4.000  13.934  0.00  0.00    -0.241 OA
ATOM     32  O   UNL     1      -6.034   2.906  13.617  0.00  0.00    -0.241 OA
ENDBRANCH  29  30
ENDBRANCH  22  28
ENDBRANCH  17  19
ENDBRANCH   1  17
TORSDOF 10
