REMARK  Name = ZINC25000222
REMARK  11 active torsions:
REMARK  status: ('A' for Active; 'I' for Inactive)
REMARK    1  A    between atoms: C_1  and  C_2
REMARK    2  A    between atoms: C_2  and  C_3
REMARK    3  A    between atoms: C_2  and  C_4
REMARK    4  A    between atoms: C_4  and  N_5
REMARK    5  A    between atoms: C_6  and  N_36
REMARK    6  A    between atoms: C_7  and  C_14
REMARK    7  A    between atoms: C_14  and  C_16
REMARK    8  A    between atoms: C_16  and  S_17
REMARK    9  A    between atoms: S_17  and  C_18
REMARK   10  A    between atoms: N_22  and  C_23
REMARK   11  A    between atoms: C_23  and  C_24
REMARK                            x       y       z     vdW  Elec       q    Type
REMARK                         _______ _______ _______ _____ _____    ______ ____
ROOT
ATOM      1  C   UNL     1      -0.323  -1.507   4.439  0.00  0.00    +0.157 C 
ENDROOT
BRANCH   1   2
ATOM      2  C   UNL     1      -0.163  -0.954   3.047  0.00  0.00    +0.182 C 
ATOM      3  O   UNL     1      -0.986  -1.215   2.192  0.00  0.00    -0.291 OA
BRANCH   2   6
ATOM      4  N   UNL     1       2.276   1.067   1.162  0.00  0.00    -0.281 N 
ATOM      5  C   UNL     1       1.192   0.276   1.414  0.00  0.00    +0.116 A 
ATOM      6  C   UNL     1       0.941  -0.133   2.736  0.00  0.00    +0.120 A 
ATOM      7  C   UNL     1       1.863   0.326   3.783  0.00  0.00    +0.266 A 
ATOM      8  O   UNL     1       1.693   0.006   4.945  0.00  0.00    -0.267 OA
ATOM      9  N   UNL     1       2.903   1.110   3.430  0.00  0.00    -0.274 N 
ATOM     10  H   UNL     1       3.607   1.466   4.196  0.00  0.00    +0.173 HD
ATOM     11  C   UNL     1       3.095   1.465   2.149  0.00  0.00    +0.331 A 
ATOM     12  O   UNL     1       4.044   2.172   1.873  0.00  0.00    -0.246 OA
BRANCH   5  13
ATOM     13  N   UNL     1       0.370  -0.113   0.403  0.00  0.00    -0.344 N 
ATOM     14  H   UNL     1      -0.501  -0.750   0.616  0.00  0.00    +0.144 HD
ATOM     15  H   UNL     1       0.576   0.209  -0.629  0.00  0.00    +0.144 HD
ENDBRANCH   5  13
BRANCH   4  16
ATOM     16  C   UNL     1       2.549   1.495  -0.212  0.00  0.00    +0.131 C 
BRANCH  16  18
ATOM     17  C   UNL     1       4.821   0.456  -0.197  0.00  0.00    +0.009 C 
ATOM     18  C   UNL     1       3.459   0.471  -0.894  0.00  0.00    +0.003 C 
ATOM     19  C   UNL     1       3.643   0.852  -2.365  0.00  0.00    +0.009 C 
ENDBRANCH  16  18
ENDBRANCH   4  16
ENDBRANCH   2   6
ENDBRANCH   1   2
BRANCH   1  20
ATOM     20  S   UNL     1      -1.828  -2.516   4.521  0.00  0.00    -0.078 S 
BRANCH  20  21
ATOM     21  C   UNL     1      -1.872  -3.082   6.189  0.00  0.00    +0.193 A 
ATOM     22  N   UNL     1      -0.991  -2.807   7.120  0.00  0.00    -0.121 NA
ATOM     23  N   UNL     1      -1.392  -3.448   8.299  0.00  0.00    -0.112 NA
ATOM     24  C   UNL     1      -2.505  -4.094   8.050  0.00  0.00    +0.220 A 
ATOM     25  N   UNL     1      -2.833  -3.881   6.741  0.00  0.00    -0.288 N 
ATOM     26  N   UNL     1      -3.226  -4.858   8.959  0.00  0.00    -0.295 N 
ATOM     27  C   UNL     1      -3.847  -4.008   9.985  0.00  0.00    +0.136 C 
ATOM     28  C   UNL     1      -4.679  -4.881  10.928  0.00  0.00    +0.179 C 
ATOM     29  O   UNL     1      -3.842  -5.891  11.497  0.00  0.00    -0.377 OA
ATOM     30  C   UNL     1      -3.221  -6.738  10.525  0.00  0.00    +0.179 C 
ATOM     31  C   UNL     1      -2.375  -5.884   9.578  0.00  0.00    +0.136 C 
BRANCH  25  32
ATOM     32  C   UNL     1      -4.009  -4.417   6.050  0.00  0.00    +0.158 C 
BRANCH  32  33
ATOM     33  C   UNL     1      -3.633  -5.719   5.339  0.00  0.00    +0.138 C 
ATOM     34  C   UNL     1      -4.834  -6.230   4.514  0.00  0.00    +0.035 C 
ATOM     35  C   UNL     1      -4.758  -7.765   4.739  0.00  0.00    +0.031 C 
ATOM     36  C   UNL     1      -4.231  -7.823   6.195  0.00  0.00    +0.160 C 
ATOM     37  O   UNL     1      -3.311  -6.726   6.305  0.00  0.00    -0.375 OA
ENDBRANCH  32  33
ENDBRANCH  25  32
ENDBRANCH  20  21
ENDBRANCH   1  20
TORSDOF 9
