REMARK  Name = ZINC06135148
REMARK  13 active torsions:
REMARK  status: ('A' for Active; 'I' for Inactive)
REMARK    1  A    between atoms: C_1  and  C_2
REMARK    2  A    between atoms: C_2  and  C_3
REMARK    3  A    between atoms: C_10  and  C_15
REMARK    4  A    between atoms: C_15  and  C_17
REMARK    5  A    between atoms: C_15  and  N_71
REMARK    6  A    between atoms: N_21  and  C_22
REMARK    7  A    between atoms: C_22  and  C_23
REMARK    8  A    between atoms: C_22  and  C_24
REMARK    9  A    between atoms: C_22  and  C_25
REMARK   10  A    between atoms: C_26  and  C_27
REMARK   11  A    between atoms: C_26  and  N_71
REMARK   12  A    between atoms: C_33  and  C_34
REMARK   13  A    between atoms: C_33  and  N_71
REMARK                            x       y       z     vdW  Elec       q    Type
REMARK                         _______ _______ _______ _____ _____    ______ ____
ROOT
ATOM      1  C   UNL     1       6.014  -0.374   0.490  0.00  0.00    +0.040 C 
ENDROOT
BRANCH   1   9
ATOM      2  C   UNL     1       0.383  -0.564   3.046  0.00  0.00    -0.047 A 
ATOM      3  C   UNL     1       0.271   0.800   3.278  0.00  0.00    +0.005 A 
ATOM      4  C   UNL     1       1.288   1.659   2.925  0.00  0.00    +0.026 A 
ATOM      5  C   UNL     1       2.441   1.156   2.330  0.00  0.00    +0.049 A 
ATOM      6  C   UNL     1       2.551  -0.228   2.096  0.00  0.00    -0.001 A 
ATOM      7  C   UNL     1       1.505  -1.081   2.463  0.00  0.00    +0.013 A 
ATOM      8  C   UNL     1       3.768  -0.747   1.470  0.00  0.00    +0.017 A 
ATOM      9  C   UNL     1       4.749   0.128   1.137  0.00  0.00    +0.011 A 
ATOM     10  C   UNL     1       4.589   1.506   1.393  0.00  0.00    +0.251 A 
ATOM     11  O   UNL     1       5.483   2.275   1.085  0.00  0.00    -0.268 OA
ATOM     12  N   UNL     1       3.475   1.993   1.967  0.00  0.00    -0.322 N 
ATOM     13  H   UNL     1       3.396   2.976   2.134  0.00  0.00    +0.169 HD
BRANCH   2  15
ATOM     14  C   UNL     1      -1.723  -1.623   2.274  0.00  0.00    +0.009 C 
ATOM     15  C   UNL     1      -0.744  -1.484   3.442  0.00  0.00    +0.032 C 
ENDBRANCH   2  15
ENDBRANCH   1   9
BRANCH   1  16
ATOM     16  C   UNL     1       6.171   0.260  -0.868  0.00  0.00    +0.143 A 
ATOM     17  N   UNL     1       6.635   1.459  -1.123  0.00  0.00    -0.115 NA
ATOM     18  N   UNL     1       6.612   1.631  -2.399  0.00  0.00    -0.023 NA
ATOM     19  N   UNL     1       6.145   0.574  -2.965  0.00  0.00    -0.043 NA
ATOM     20  N   UNL     1       5.867  -0.297  -2.054  0.00  0.00    -0.225 N 
BRANCH  20  21
ATOM     21  C   UNL     1       5.319  -1.638  -2.272  0.00  0.00    +0.059 C 
ATOM     22  C   UNL     1       4.008  -1.785  -1.496  0.00  0.00    +0.036 C 
ATOM     23  C   UNL     1       5.054  -1.845  -3.764  0.00  0.00    +0.036 C 
ATOM     24  C   UNL     1       6.321  -2.684  -1.781  0.00  0.00    +0.036 C 
ENDBRANCH  20  21
ENDBRANCH   1  16
BRANCH   1  25
ATOM     25  N   UNL     1       7.169   0.007   1.331  0.00  0.00    +0.395 N 
ATOM     26  H   UNL     1       7.272   1.028   1.313  0.00  0.00    -0.079 HD
BRANCH  25  27
ATOM     27  C   UNL     1       6.945  -0.429   2.725  0.00  0.00    -0.041 C 
BRANCH  27  28
ATOM     28  C   UNL     1       8.023   0.160   3.598  0.00  0.00    -0.064 A 
ATOM     29  C   UNL     1       9.190  -0.546   3.826  0.00  0.00    +0.002 A 
ATOM     30  C   UNL     1      10.181  -0.004   4.622  0.00  0.00    +0.000 A 
ATOM     31  C   UNL     1      10.002   1.240   5.199  0.00  0.00    +0.000 A 
ATOM     32  C   UNL     1       8.833   1.943   4.975  0.00  0.00    +0.000 A 
ATOM     33  C   UNL     1       7.844   1.403   4.175  0.00  0.00    +0.002 A 
ENDBRANCH  27  28
ENDBRANCH  25  27
BRANCH  25  34
ATOM     34  C   UNL     1       8.404  -0.610   0.802  0.00  0.00    -0.040 C 
BRANCH  34  35
ATOM     35  C   UNL     1       8.925   0.245  -0.324  0.00  0.00    -0.046 A 
ATOM     36  C   UNL     1       8.665  -0.095  -1.643  0.00  0.00    +0.005 A 
ATOM     37  C   UNL     1       9.160   0.724  -2.646  0.00  0.00    +0.020 A 
ATOM     38  C   UNL     1       9.900   1.839  -2.301  0.00  0.00    +0.111 A 
ATOM     39  N   UNL     1      10.133   2.129  -1.036  0.00  0.00    -0.263 NA
ATOM     40  C   UNL     1       9.674   1.376  -0.056  0.00  0.00    +0.112 A 
ENDBRANCH  34  35
ENDBRANCH  25  34
ENDBRANCH   1  25
TORSDOF 9
