REMARK  Name = ZINC35664900
REMARK  11 active torsions:
REMARK  status: ('A' for Active; 'I' for Inactive)
REMARK    1  A    between atoms: C_1  and  C_2
REMARK    2  A    between atoms: C_2  and  O_3
REMARK    3  A    between atoms: O_3  and  C_4
REMARK    4  A    between atoms: C_4  and  C_6
REMARK    5  A    between atoms: C_7  and  C_24
REMARK    6  A    between atoms: N_8  and  C_21
REMARK    7  A    between atoms: C_12  and  C_14
REMARK    8  A    between atoms: C_18  and  C_20
REMARK    9  A    between atoms: C_21  and  C_22
REMARK   10  A    between atoms: C_24  and  N_25
REMARK   11  A    between atoms: C_32  and  C_34
REMARK                            x       y       z     vdW  Elec       q    Type
REMARK                         _______ _______ _______ _____ _____    ______ ____
ROOT
ATOM      1  C   UNL     1      -2.366  -2.518   0.369  0.00  0.00    +0.076 C 
ATOM      2  C   UNL     1      -2.685  -3.784   0.025  0.00  0.00    +0.011 C 
ATOM      3  N   UNL     1      -3.979  -4.144  -0.219  0.00  0.00    -0.257 N 
ATOM      4  C   UNL     1      -5.013  -3.296  -0.141  0.00  0.00    +0.307 C 
ATOM      5  O   UNL     1      -6.131  -3.710  -0.376  0.00  0.00    -0.252 OA
ATOM      6  N   UNL     1      -4.853  -2.000   0.191  0.00  0.00    -0.288 N 
ATOM      7  C   UNL     1      -3.494  -1.512   0.480  0.00  0.00    +0.143 C 
ATOM      8  H   UNL     1      -5.616  -1.403   0.241  0.00  0.00    +0.151 HD
ENDROOT
BRANCH   7   9
ATOM      9  C   UNL     1      -3.483  -0.955   1.880  0.00  0.00    -0.022 A 
ATOM     10  C   UNL     1      -4.040  -1.680   2.917  0.00  0.00    +0.006 A 
ATOM     11  C   UNL     1      -4.030  -1.169   4.201  0.00  0.00    +0.001 A 
ATOM     12  C   UNL     1      -3.463   0.067   4.449  0.00  0.00    +0.003 A 
ATOM     13  C   UNL     1      -2.905   0.792   3.412  0.00  0.00    -0.050 A 
ATOM     14  C   UNL     1      -2.911   0.278   2.128  0.00  0.00    +0.009 A 
ATOM     15  C   UNL     1      -2.287   2.139   3.682  0.00  0.00    +0.044 C 
ENDBRANCH   7   9
BRANCH   1  16
ATOM     16  C   UNL     1      -1.026  -2.144   0.622  0.00  0.00    +0.339 C 
ATOM     17  O   UNL     1      -0.150  -2.989   0.631  0.00  0.00    -0.245 OA
BRANCH  16  18
ATOM     18  O   UNL     1      -0.718  -0.851   0.854  0.00  0.00    -0.462 OA
BRANCH  18  20
ATOM     19  C   UNL     1       0.808   0.959   1.341  0.00  0.00    +0.048 C 
ATOM     20  C   UNL     1       0.656  -0.545   1.102  0.00  0.00    +0.229 C 
ENDBRANCH  18  20
ENDBRANCH  16  18
ENDBRANCH   1  16
BRANCH   3  21
ATOM     21  C   UNL     1      -4.253  -5.535  -0.587  0.00  0.00    +0.141 C 
BRANCH  21  22
ATOM     22  C   UNL     1      -4.625  -6.318   0.646  0.00  0.00    -0.015 C 
ATOM     23  C   UNL     1      -5.776  -6.940   0.704  0.00  0.00    +0.005 C 
ENDBRANCH  21  22
ENDBRANCH   3  21
BRANCH   2  24
ATOM     24  C   UNL     1      -1.594  -4.817  -0.092  0.00  0.00    -0.026 C 
BRANCH  24  25
ATOM     25  N   UNL     1      -1.150  -4.905  -1.490  0.00  0.00    +0.384 N 
ATOM     26  C   UNL     1      -0.293  -6.080  -1.628  0.00  0.00    -0.077 C 
ATOM     27  C   UNL     1      -0.406  -6.616  -3.038  0.00  0.00    +0.000 C 
ATOM     28  C   UNL     1       0.712  -6.012  -3.907  0.00  0.00    +0.106 C 
ATOM     29  N   UNL     1       0.923  -4.586  -3.585  0.00  0.00    -0.299 N 
ATOM     30  C   UNL     1      -0.177  -3.675  -3.344  0.00  0.00    +0.089 C 
ATOM     31  C   UNL     1      -0.541  -3.679  -1.841  0.00  0.00    -0.059 C 
ATOM     32  C   UNL     1       2.184  -4.116  -3.513  0.00  0.00    +0.247 C 
ATOM     33  O   UNL     1       2.388  -2.976  -3.144  0.00  0.00    -0.270 OA
ATOM     34  H   UNL     1      -1.963  -5.035  -2.073  0.00  0.00    -0.081 HD
BRANCH  32  35
ATOM     35  C   UNL     1       3.319  -4.987  -3.882  0.00  0.00    +0.037 A 
ATOM     36  C   UNL     1       3.191  -5.898  -4.933  0.00  0.00    +0.016 A 
ATOM     37  C   UNL     1       4.253  -6.708  -5.273  0.00  0.00    +0.039 A 
ATOM     38  C   UNL     1       5.447  -6.619  -4.574  0.00  0.00    +0.123 A 
ATOM     39  C   UNL     1       5.580  -5.716  -3.530  0.00  0.00    +0.039 A 
ATOM     40  C   UNL     1       4.527  -4.897  -3.186  0.00  0.00    +0.016 A 
ATOM     41  F   UNL     1       6.485  -7.416  -4.911  0.00  0.00    -0.205 F 
ENDBRANCH  32  35
ENDBRANCH  24  25
ENDBRANCH   2  24
TORSDOF 9
