REMARK  Name = ZINC40555897
REMARK  10 active torsions:
REMARK  status: ('A' for Active; 'I' for Inactive)
REMARK    1  A    between atoms: C_1  and  C_2
REMARK    2  A    between atoms: C_2  and  C_3
REMARK    3  A    between atoms: C_2  and  C_4
REMARK    4  A    between atoms: C_7  and  C_10
REMARK    5  A    between atoms: N_29  and  C_30
REMARK    6  A    between atoms: C_30  and  C_31
REMARK    7  A    between atoms: C_31  and  C_32
REMARK    8  A    between atoms: C_32  and  N_33
REMARK    9  A    between atoms: N_33  and  C_34
REMARK   10  A    between atoms: N_33  and  C_35
REMARK                            x       y       z     vdW  Elec       q    Type
REMARK                         _______ _______ _______ _____ _____    ______ ____
ROOT
ATOM      1  C   UNL     1      -5.419  -2.005   0.043  0.00  0.00    +0.144 C 
ATOM      2  C   UNL     1      -5.436  -3.438   0.464  0.00  0.00    +0.072 A 
ATOM      3  C   UNL     1      -4.996  -4.089   1.701  0.00  0.00    +0.199 A 
ATOM      4  O   UNL     1      -4.683  -3.472   2.704  0.00  0.00    -0.287 OA
ATOM      5  C   UNL     1      -4.970  -5.570   1.617  0.00  0.00    +0.065 A 
ATOM      6  C   UNL     1      -4.377  -6.321   2.647  0.00  0.00    +0.016 A 
ATOM      7  C   UNL     1      -4.337  -7.674   2.583  0.00  0.00    +0.009 A 
ATOM      8  C   UNL     1      -4.896  -8.347   1.476  0.00  0.00    -0.014 A 
ATOM      9  C   UNL     1      -4.859  -9.748   1.393  0.00  0.00    +0.008 A 
ATOM     10  C   UNL     1      -5.408 -10.376   0.315  0.00  0.00    +0.001 A 
ATOM     11  C   UNL     1      -6.008  -9.648  -0.709  0.00  0.00    +0.001 A 
ATOM     12  C   UNL     1      -6.060  -8.287  -0.661  0.00  0.00    +0.012 A 
ATOM     13  C   UNL     1      -5.503  -7.609   0.433  0.00  0.00    +0.025 A 
ATOM     14  C   UNL     1      -5.540  -6.194   0.505  0.00  0.00    +0.147 A 
ATOM     15  O   UNL     1      -6.125  -5.502  -0.495  0.00  0.00    -0.449 OA
ATOM     16  C   UNL     1      -5.966  -4.167  -0.564  0.00  0.00    +0.199 A 
ATOM     17  C   UNL     1      -6.296  -3.244  -1.663  0.00  0.00    +0.283 C 
ATOM     18  O   UNL     1      -6.782  -3.575  -2.726  0.00  0.00    -0.267 OA
ATOM     19  N   UNL     1      -5.981  -1.977  -1.317  0.00  0.00    -0.284 N 
ENDROOT
BRANCH   1  23
ATOM     20  C   UNL     1      -1.412  -0.526   0.013  0.00  0.00    -0.045 A 
ATOM     21  C   UNL     1      -2.259  -0.204   1.056  0.00  0.00    +0.004 A 
ATOM     22  C   UNL     1      -3.556  -0.683   1.066  0.00  0.00    +0.006 A 
ATOM     23  C   UNL     1      -4.006  -1.482   0.032  0.00  0.00    -0.022 A 
ATOM     24  C   UNL     1      -3.159  -1.803  -1.012  0.00  0.00    +0.006 A 
ATOM     25  C   UNL     1      -1.863  -1.321  -1.024  0.00  0.00    +0.004 A 
BRANCH  20  27
ATOM     26  C   UNL     1      -0.019   1.526   0.010  0.00  0.00    +0.012 C 
ATOM     27  C   UNL     1       0.002  -0.004   0.002  0.00  0.00    +0.013 C 
ATOM     28  C   UNL     1       0.742  -0.511   1.242  0.00  0.00    +0.012 C 
ENDBRANCH  20  27
ENDBRANCH   1  23
BRANCH  19  29
ATOM     29  C   UNL     1      -6.166  -0.785  -2.148  0.00  0.00    +0.107 C 
BRANCH  29  30
ATOM     30  C   UNL     1      -4.909  -0.549  -2.987  0.00  0.00    +0.000 C 
BRANCH  30  31
ATOM     31  C   UNL     1      -5.102   0.696  -3.856  0.00  0.00    -0.078 C 
BRANCH  31  32
ATOM     32  N   UNL     1      -3.895   0.923  -4.661  0.00  0.00    +0.376 N 
ATOM     33  C   UNL     1      -4.124   2.046  -5.581  0.00  0.00    -0.097 C 
ATOM     34  C   UNL     1      -2.767   1.238  -3.775  0.00  0.00    -0.097 C 
ATOM     35  H   UNL     1      -3.683   0.091  -5.192  0.00  0.00    -0.083 HD
ENDBRANCH  31  32
ENDBRANCH  30  31
ENDBRANCH  29  30
ENDBRANCH  19  29
TORSDOF 6
