REMARK  Name = ZINC20518389
REMARK  18 active torsions:
REMARK  status: ('A' for Active; 'I' for Inactive)
REMARK    1  A    between atoms: C_1  and  C_2
REMARK    2  A    between atoms: C_2  and  C_3
REMARK    3  A    between atoms: C_3  and  C_4
REMARK    4  A    between atoms: C_4  and  C_5
REMARK    5  A    between atoms: C_5  and  O_6
REMARK    6  A    between atoms: O_6  and  C_7
REMARK    7  A    between atoms: C_10  and  C_16
REMARK    8  A    between atoms: C_12  and  O_13
REMARK    9  A    between atoms: O_13  and  C_14
REMARK   10  A    between atoms: C_14  and  C_15
REMARK   11  A    between atoms: C_18  and  C_29
REMARK   12  A    between atoms: N_22  and  C_23
REMARK   13  A    between atoms: C_23  and  C_24
REMARK   14  A    between atoms: C_24  and  N_25
REMARK   15  A    between atoms: N_25  and  C_26
REMARK   16  A    between atoms: N_25  and  C_27
REMARK   17  A    between atoms: C_29  and  C_31
REMARK   18  A    between atoms: C_38  and  C_41
REMARK                            x       y       z     vdW  Elec       q    Type
REMARK                         _______ _______ _______ _____ _____    ______ ____
ROOT
ATOM      1  C   UNL     1       1.137  -1.266   0.016  0.00  0.00    +0.145 C 
ATOM      2  C   UNL     1       2.443  -0.508   0.065  0.00  0.00    +0.076 C 
ATOM      3  C   UNL     1       3.430  -1.433   0.107  0.00  0.00    +0.249 C 
ATOM      4  C   UNL     1       2.830  -2.784   0.082  0.00  0.00    +0.288 C 
ATOM      5  O   UNL     1       3.456  -3.825   0.109  0.00  0.00    -0.266 OA
ATOM      6  N   UNL     1       1.489  -2.690   0.025  0.00  0.00    -0.285 N 
ATOM      7  O   UNL     1       4.755  -1.164   0.163  0.00  0.00    -0.282 OA
ENDROOT
BRANCH   1  11
ATOM      8  C   UNL     1      -1.242  -0.313   3.439  0.00  0.00    +0.162 A 
ATOM      9  C   UNL     1      -0.079  -1.051   3.584  0.00  0.00    +0.050 A 
ATOM     10  C   UNL     1       0.685  -1.362   2.475  0.00  0.00    +0.009 A 
ATOM     11  C   UNL     1       0.297  -0.929   1.221  0.00  0.00    -0.019 A 
ATOM     12  C   UNL     1      -0.863  -0.192   1.069  0.00  0.00    +0.055 A 
ATOM     13  C   UNL     1      -1.636   0.119   2.176  0.00  0.00    +0.162 A 
BRANCH   8  14
ATOM     14  O   UNL     1      -1.998  -0.011   4.529  0.00  0.00    -0.488 OA
BRANCH  14  15
ATOM     15  C   UNL     1      -1.533  -0.487   5.793  0.00  0.00    +0.229 C 
BRANCH  15  16
ATOM     16  C   UNL     1      -2.506  -0.052   6.891  0.00  0.00    +0.041 C 
BRANCH  16  17
ATOM     17  C   UNL     1      -2.007  -0.562   8.245  0.00  0.00    +0.003 C 
BRANCH  17  19
ATOM     18  C   UNL     1      -2.482  -0.637  10.697  0.00  0.00    +0.004 C 
ATOM     19  C   UNL     1      -2.980  -0.127   9.343  0.00  0.00    -0.003 C 
ENDBRANCH  17  19
ENDBRANCH  16  17
ENDBRANCH  15  16
ENDBRANCH  14  15
ENDBRANCH   8  14
BRANCH  13  20
ATOM     20  O   UNL     1      -2.777   0.843   2.029  0.00  0.00    -0.489 OA
BRANCH  20  21
ATOM     21  C   UNL     1      -3.058   1.354   0.724  0.00  0.00    +0.226 C 
ATOM     22  C   UNL     1      -4.308   2.235   0.778  0.00  0.00    +0.048 C 
ENDBRANCH  20  21
ENDBRANCH  13  20
ENDBRANCH   1  11
BRANCH   2  23
ATOM     23  C   UNL     1       2.609   0.949   0.071  0.00  0.00    +0.195 C 
ATOM     24  O   UNL     1       3.122   1.498   1.028  0.00  0.00    -0.287 OA
BRANCH  23  25
ATOM     25  C   UNL     1       2.155   1.749  -1.083  0.00  0.00    +0.023 A 
ATOM     26  C   UNL     1       1.637   1.117  -2.218  0.00  0.00    +0.015 A 
ATOM     27  C   UNL     1       1.223   1.863  -3.296  0.00  0.00    +0.046 A 
ATOM     28  C   UNL     1       1.306   3.257  -3.265  0.00  0.00    +0.124 A 
ATOM     29  C   UNL     1       1.817   3.880  -2.130  0.00  0.00    -0.002 A 
ATOM     30  C   UNL     1       2.240   3.145  -1.051  0.00  0.00    +0.019 A 
ATOM     31  C   UNL     1       1.772   5.374  -2.387  0.00  0.00    +0.083 C 
ATOM     32  C   UNL     1       0.817   5.460  -3.601  0.00  0.00    +0.175 C 
ATOM     33  O   UNL     1       0.963   4.168  -4.214  0.00  0.00    -0.488 OA
ATOM     34  C   UNL     1      -0.626   5.682  -3.141  0.00  0.00    +0.052 C 
ENDBRANCH  23  25
ENDBRANCH   2  23
BRANCH   6  35
ATOM     35  C   UNL     1       0.548  -3.812  -0.015  0.00  0.00    +0.090 C 
BRANCH  35  36
ATOM     36  C   UNL     1       0.159  -4.201   1.413  0.00  0.00    -0.060 C 
BRANCH  36  37
ATOM     37  N   UNL     1      -0.785  -5.326   1.374  0.00  0.00    +0.377 N 
ATOM     38  C   UNL     1      -0.999  -5.881   2.717  0.00  0.00    -0.097 C 
ATOM     39  C   UNL     1      -2.059  -4.923   0.762  0.00  0.00    -0.097 C 
ATOM     40  H   UNL     1      -0.345  -6.116   0.748  0.00  0.00    -0.083 HD
ENDBRANCH  36  37
ENDBRANCH  35  36
ENDBRANCH   6  35
TORSDOF 13
