REMARK  Name = ZINC38546350
REMARK  10 active torsions:
REMARK  status: ('A' for Active; 'I' for Inactive)
REMARK    1  A    between atoms: C_1  and  C_2
REMARK    2  A    between atoms: C_2  and  O_3
REMARK    3  A    between atoms: O_3  and  C_4
REMARK    4  A    between atoms: C_4  and  C_6
REMARK    5  A    between atoms: N_9  and  C_12
REMARK    6  A    between atoms: C_12  and  C_14
REMARK    7  A    between atoms: C_12  and  C_21
REMARK    8  A    between atoms: C_23  and  C_34
REMARK    9  A    between atoms: C_25  and  N_26
REMARK   10  A    between atoms: C_27  and  C_29
REMARK                            x       y       z     vdW  Elec       q    Type
REMARK                         _______ _______ _______ _____ _____    ______ ____
ROOT
ATOM      1  C   UNL     1       4.369  -4.570  -4.747  0.00  0.00    -0.004 C 
ENDROOT
BRANCH   1   5
ATOM      2  C   UNL     1       1.468  -2.353  -2.550  0.00  0.00    +0.094 C 
ATOM      3  C   UNL     1       2.921  -1.871  -2.579  0.00  0.00    -0.004 C 
ATOM      4  C   UNL     1       3.640  -2.506  -3.772  0.00  0.00    -0.077 C 
ATOM      5  N   UNL     1       3.611  -3.968  -3.642  0.00  0.00    +0.387 N 
ATOM      6  C   UNL     1       2.223  -4.444  -3.685  0.00  0.00    -0.077 C 
ATOM      7  C   UNL     1       1.450  -3.884  -2.490  0.00  0.00    -0.004 C 
ATOM      8  H   UNL     1       4.030  -4.235  -2.764  0.00  0.00    -0.080 HD
BRANCH   2   9
ATOM      9  C   UNL     1       0.775  -1.794  -1.334  0.00  0.00    +0.310 C 
ATOM     10  O   UNL     1       0.314  -2.540  -0.504  0.00  0.00    -0.251 OA
BRANCH   9  11
ATOM     11  O   UNL     1       0.671  -0.465  -1.174  0.00  0.00    -0.465 OA
BRANCH  11  13
ATOM     12  C   UNL     1      -0.019   1.526   0.010  0.00  0.00    +0.048 C 
ATOM     13  C   UNL     1       0.002  -0.004   0.002  0.00  0.00    +0.229 C 
ENDBRANCH  11  13
ENDBRANCH   9  11
ENDBRANCH   2   9
ENDBRANCH   1   5
BRANCH   1  14
ATOM     14  C   UNL     1       5.796  -4.089  -4.699  0.00  0.00    -0.057 A 
ATOM     15  C   UNL     1       6.443  -3.966  -3.483  0.00  0.00    +0.004 A 
ATOM     16  C   UNL     1       7.752  -3.524  -3.438  0.00  0.00    +0.020 A 
ATOM     17  C   UNL     1       8.415  -3.206  -4.610  0.00  0.00    +0.041 A 
ATOM     18  C   UNL     1       7.767  -3.329  -5.827  0.00  0.00    +0.020 A 
ATOM     19  C   UNL     1       6.460  -3.776  -5.870  0.00  0.00    +0.004 A 
ATOM     20 CL   UNL     1      10.059  -2.651  -4.555  0.00  0.00    -0.084 Cl
ENDBRANCH   1  14
BRANCH   1  21
ATOM     21  C   UNL     1       4.340  -6.071  -4.616  0.00  0.00    -0.028 A 
ATOM     22  C   UNL     1       4.041  -6.667  -3.404  0.00  0.00    +0.015 A 
ATOM     23  C   UNL     1       4.023  -8.018  -3.321  0.00  0.00    -0.011 A 
ATOM     24  S   UNL     1       4.439  -8.500  -4.989  0.00  0.00    -0.078 S 
ATOM     25  C   UNL     1       4.603  -6.867  -5.690  0.00  0.00    +0.074 A 
ATOM     26  C   UNL     1       3.729  -8.891  -2.128  0.00  0.00    +0.051 C 
BRANCH  25  27
ATOM     27  N   UNL     1       4.922  -6.500  -7.000  0.00  0.00    -0.273 N 
ATOM     28  C   UNL     1       5.150  -7.449  -7.929  0.00  0.00    +0.284 C 
ATOM     29  O   UNL     1       5.079  -8.626  -7.627  0.00  0.00    -0.266 OA
ATOM     30  H   UNL     1       4.978  -5.562  -7.240  0.00  0.00    +0.156 HD
BRANCH  28  31
ATOM     31  C   UNL     1       5.484  -7.064  -9.303  0.00  0.00    +0.189 A 
ATOM     32  C   UNL     1       5.732  -7.919 -10.339  0.00  0.00    +0.054 A 
ATOM     33  C   UNL     1       6.006  -7.124 -11.463  0.00  0.00    +0.042 A 
ATOM     34  C   UNL     1       5.914  -5.834 -11.069  0.00  0.00    +0.196 A 
ATOM     35  O   UNL     1       5.594  -5.802  -9.769  0.00  0.00    -0.458 OA
ENDBRANCH  28  31
ENDBRANCH  25  27
ENDBRANCH   1  21
TORSDOF 8
