REMARK  Name = ZINC38706043
REMARK  13 active torsions:
REMARK  status: ('A' for Active; 'I' for Inactive)
REMARK    1  A    between atoms: C_1  and  C_2
REMARK    2  A    between atoms: C_5  and  C_8
REMARK    3  A    between atoms: C_8  and  N_9
REMARK    4  A    between atoms: C_10  and  C_29
REMARK    5  A    between atoms: C_13  and  C_20
REMARK    6  A    between atoms: C_21  and  C_28
REMARK    7  A    between atoms: C_23  and  C_27
REMARK    8  A    between atoms: C_25  and  O_26
REMARK    9  A    between atoms: C_32  and  O_37
REMARK   10  A    between atoms: C_33  and  O_35
REMARK   11  A    between atoms: O_35  and  C_36
REMARK   12  A    between atoms: O_37  and  C_38
REMARK   13  A    between atoms: C_38  and  C_39
REMARK                            x       y       z     vdW  Elec       q    Type
REMARK                         _______ _______ _______ _____ _____    ______ ____
ROOT
ATOM      1  N   UNL     1       1.504  -4.788  -0.109  0.00  0.00    -0.281 N 
ATOM      2  C   UNL     1       2.387  -4.993  -1.265  0.00  0.00    +0.142 C 
ATOM      3  C   UNL     1       3.695  -5.484  -0.707  0.00  0.00    +0.035 A 
ATOM      4  C   UNL     1       5.003  -5.908  -0.966  0.00  0.00    +0.102 A 
ATOM      5  N   UNL     1       5.562  -6.194   0.193  0.00  0.00    -0.173 NA
ATOM      6  N   UNL     1       4.737  -5.993   1.158  0.00  0.00    -0.272 N 
ATOM      7  H   UNL     1       4.933  -6.137   2.097  0.00  0.00    +0.189 HD
ATOM      8  C   UNL     1       3.544  -5.546   0.665  0.00  0.00    +0.126 A 
ATOM      9  C   UNL     1       2.186  -5.107   1.005  0.00  0.00    +0.266 C 
ATOM     10  O   UNL     1       1.740  -5.043   2.135  0.00  0.00    -0.268 OA
ENDROOT
BRANCH   4  11
ATOM     11  C   UNL     1       5.643  -6.016  -2.301  0.00  0.00    +0.047 A 
ATOM     12  C   UNL     1       6.315  -7.181  -2.662  0.00  0.00    -0.037 A 
ATOM     13  C   UNL     1       6.908  -7.277  -3.904  0.00  0.00    +0.007 A 
ATOM     14  C   UNL     1       6.838  -6.220  -4.794  0.00  0.00    -0.047 A 
ATOM     15  C   UNL     1       6.174  -5.059  -4.445  0.00  0.00    +0.049 A 
ATOM     16  C   UNL     1       5.569  -4.951  -3.203  0.00  0.00    +0.127 A 
ATOM     17  C   UNL     1       7.490  -6.333  -6.148  0.00  0.00    +0.044 C 
ATOM     18  C   UNL     1       6.395  -8.336  -1.696  0.00  0.00    +0.044 C 
BRANCH  16  19
ATOM     19  O   UNL     1       4.911  -3.813  -2.862  0.00  0.00    -0.506 OA
ATOM     20  H   UNL     1       5.483  -3.121  -2.502  0.00  0.00    +0.292 HD
ENDBRANCH  16  19
ENDBRANCH   4  11
BRANCH   2  21
ATOM     21  C   UNL     1       1.797  -6.024  -2.192  0.00  0.00    -0.019 A 
ATOM     22  C   UNL     1       1.259  -7.188  -1.676  0.00  0.00    +0.009 A 
ATOM     23  C   UNL     1       0.716  -8.137  -2.522  0.00  0.00    +0.050 A 
ATOM     24  C   UNL     1       0.712  -7.922  -3.891  0.00  0.00    +0.162 A 
ATOM     25  C   UNL     1       1.254  -6.751  -4.411  0.00  0.00    +0.162 A 
ATOM     26  C   UNL     1       1.791  -5.801  -3.556  0.00  0.00    +0.055 A 
BRANCH  25  27
ATOM     27  O   UNL     1       1.251  -6.535  -5.754  0.00  0.00    -0.491 OA
ATOM     28  C   UNL     1       1.825  -5.311  -6.215  0.00  0.00    +0.277 C 
ENDBRANCH  25  27
BRANCH  24  29
ATOM     29  O   UNL     1       0.179  -8.855  -4.726  0.00  0.00    -0.484 OA
BRANCH  29  30
ATOM     30  C   UNL     1      -0.359 -10.034  -4.122  0.00  0.00    +0.256 C 
BRANCH  30  31
ATOM     31  C   UNL     1      -0.900 -10.944  -5.194  0.00  0.00    +0.006 C 
ATOM     32  C   UNL     1      -0.637 -12.227  -5.157  0.00  0.00    +0.007 C 
ENDBRANCH  30  31
ENDBRANCH  29  30
ENDBRANCH  24  29
ENDBRANCH   2  21
BRANCH   1  33
ATOM     33  C   UNL     1       0.119  -4.312  -0.161  0.00  0.00    +0.144 C 
BRANCH  33  38
ATOM     34  C   UNL     1       0.049   1.457   0.171  0.00  0.00    +0.044 C 
ATOM     35  C   UNL     1       0.067  -0.048   0.084  0.00  0.00    -0.050 A 
ATOM     36  C   UNL     1       0.145  -0.668  -1.149  0.00  0.00    +0.003 A 
ATOM     37  C   UNL     1       0.162  -2.048  -1.228  0.00  0.00    +0.005 A 
ATOM     38  C   UNL     1       0.102  -2.808  -0.075  0.00  0.00    -0.030 A 
ATOM     39  C   UNL     1       0.025  -2.187   1.158  0.00  0.00    +0.005 A 
ATOM     40  C   UNL     1       0.012  -0.807   1.238  0.00  0.00    +0.003 A 
ENDBRANCH  33  38
ENDBRANCH   1  33
TORSDOF 9
