REMARK  Name = ZINC13976500
REMARK  12 active torsions:
REMARK  status: ('A' for Active; 'I' for Inactive)
REMARK    1  A    between atoms: C_1  and  C_2
REMARK    2  A    between atoms: C_7  and  C_8
REMARK    3  A    between atoms: N_10  and  N_11
REMARK    4  A    between atoms: N_11  and  C_12
REMARK    5  A    between atoms: C_12  and  N_14
REMARK    6  A    between atoms: C_15  and  C_17
REMARK    7  A    between atoms: C_17  and  O_18
REMARK    8  A    between atoms: O_18  and  C_19
REMARK    9  A    between atoms: C_21  and  C_29
REMARK   10  A    between atoms: C_24  and  C_25
REMARK   11  A    between atoms: C_25  and  C_26
REMARK   12  A    between atoms: C_25  and  C_27
REMARK                            x       y       z     vdW  Elec       q    Type
REMARK                         _______ _______ _______ _____ _____    ______ ____
ROOT
ATOM      1  N   UNL     1       0.915  -1.984   5.958  0.00  0.00    -0.264 N 
ATOM      2  C   UNL     1       1.138  -2.662   7.102  0.00  0.00    +0.256 C 
ATOM      3  O   UNL     1       1.232  -2.063   8.152  0.00  0.00    -0.272 OA
ATOM      4  H   UNL     1       0.840  -2.463   5.118  0.00  0.00    +0.157 HD
ENDROOT
BRANCH   1   5
ATOM      5  C   UNL     1       0.797  -0.642   5.982  0.00  0.00    +0.153 C 
ATOM      6  S   UNL     1       0.929   0.203   7.465  0.00  0.00    -0.017 S 
BRANCH   5   7
ATOM      7  N   UNL     1       0.574   0.035   4.838  0.00  0.00    -0.245 N 
ATOM      8  H   UNL     1       0.489   1.002   4.856  0.00  0.00    +0.172 HD
BRANCH   7  11
ATOM      9  C   UNL     1       0.243   0.022   2.481  0.00  0.00    +0.260 C 
ATOM     10  O   UNL     1       0.136   1.232   2.502  0.00  0.00    -0.269 OA
ATOM     11  N   UNL     1       0.466  -0.656   3.624  0.00  0.00    -0.231 N 
ATOM     12  H   UNL     1       0.551  -1.622   3.607  0.00  0.00    +0.173 HD
BRANCH   9  19
ATOM     13  C   UNL     1      -0.513   1.452   0.082  0.00  0.00    +0.044 C 
ATOM     14  C   UNL     1      -0.235  -0.028   0.036  0.00  0.00    -0.038 A 
ATOM     15  C   UNL     1      -0.335  -0.714  -1.157  0.00  0.00    +0.004 A 
ATOM     16  C   UNL     1      -0.080  -2.073  -1.200  0.00  0.00    +0.000 A 
ATOM     17  C   UNL     1       0.275  -2.754  -0.049  0.00  0.00    +0.001 A 
ATOM     18  C   UNL     1       0.377  -2.081   1.150  0.00  0.00    +0.013 A 
ATOM     19  C   UNL     1       0.128  -0.708   1.200  0.00  0.00    +0.041 A 
ENDBRANCH   9  19
ENDBRANCH   7  11
ENDBRANCH   5   7
ENDBRANCH   1   5
BRANCH   2  20
ATOM     20  C   UNL     1       1.270  -4.163   7.075  0.00  0.00    +0.325 C 
BRANCH  20  21
ATOM     21  O   UNL     1       1.501  -4.644   8.400  0.00  0.00    -0.482 OA
BRANCH  21  22
ATOM     22  C   UNL     1       1.644  -5.987   8.553  0.00  0.00    +0.125 A 
ATOM     23  C   UNL     1       1.570  -6.824   7.448  0.00  0.00    +0.050 A 
ATOM     24  C   UNL     1       1.716  -8.188   7.605  0.00  0.00    -0.033 A 
ATOM     25  C   UNL     1       1.936  -8.721   8.863  0.00  0.00    +0.021 A 
ATOM     26  C   UNL     1       2.010  -7.889   9.966  0.00  0.00    +0.023 A 
ATOM     27  C   UNL     1       1.870  -6.523   9.812  0.00  0.00    -0.002 A 
ATOM     28 BR   UNL     1       2.135 -10.589   9.075  0.00  0.00    -0.050 Br
ATOM     29  C   UNL     1       1.635  -9.097   6.406  0.00  0.00    +0.045 C 
BRANCH  27  30
ATOM     30  C   UNL     1       1.958  -5.617  11.012  0.00  0.00    +0.016 C 
ATOM     31  C   UNL     1       0.867  -5.993  12.017  0.00  0.00    +0.012 C 
ATOM     32  C   UNL     1       3.331  -5.771  11.669  0.00  0.00    +0.012 C 
ENDBRANCH  27  30
ENDBRANCH  21  22
ENDBRANCH  20  21
ENDBRANCH   2  20
TORSDOF 8
