REMARK  Name = ZINC43258989
REMARK  6 active torsions:
REMARK  status: ('A' for Active; 'I' for Inactive)
REMARK    1  A    between atoms: C_1  and  C_2
REMARK    2  A    between atoms: C_2  and  C_3
REMARK    3  A    between atoms: C_3  and  C_5
REMARK    4  A    between atoms: C_3  and  N_22
REMARK    5  A    between atoms: C_5  and  C_7
REMARK    6  A    between atoms: C_5  and  N_13
REMARK                            x       y       z     vdW  Elec       q    Type
REMARK                         _______ _______ _______ _____ _____    ______ ____
ROOT
ATOM      1  C   UNL     1       0.960  -2.004  -1.148  0.00  0.00    +0.096 C 
ENDROOT
BRANCH   1   2
ATOM      2  N   UNL     1       1.582  -2.307   0.143  0.00  0.00    -0.323 N 
ATOM      3  C   UNL     1       1.010  -3.190   1.164  0.00  0.00    +0.110 C 
ATOM      4  C   UNL     1       2.025  -3.182   2.318  0.00  0.00    +0.056 C 
ATOM      5  C   UNL     1       3.130  -2.265   1.846  0.00  0.00    -0.025 A 
ATOM      6  C   UNL     1       2.808  -1.802   0.579  0.00  0.00    +0.033 A 
ATOM      7  C   UNL     1       3.689  -0.935  -0.070  0.00  0.00    +0.023 A 
ATOM      8  C   UNL     1       4.864  -0.552   0.541  0.00  0.00    +0.002 A 
ATOM      9  C   UNL     1       5.178  -1.023   1.802  0.00  0.00    +0.000 A 
ATOM     10  C   UNL     1       4.306  -1.874   2.456  0.00  0.00    +0.005 A 
ENDBRANCH   1   2
BRANCH   1  11
ATOM     11  C   UNL     1      -0.277  -2.847  -1.321  0.00  0.00    +0.010 A 
ATOM     12  C   UNL     1      -0.732  -3.478  -2.431  0.00  0.00    +0.014 A 
ATOM     13  C   UNL     1      -1.905  -4.205  -2.356  0.00  0.00    +0.023 A 
ATOM     14  C   UNL     1      -2.566  -4.265  -1.173  0.00  0.00    +0.055 A 
ATOM     15  S   UNL     1      -1.518  -3.281  -0.114  0.00  0.00    -0.085 S 
ATOM     16 BR   UNL     1      -4.176  -5.164  -0.753  0.00  0.00    -0.043 Br
ENDBRANCH   1  11
BRANCH   1  17
ATOM     17  C   UNL     1       0.579  -0.523  -1.196  0.00  0.00    -0.050 C 
BRANCH  17  18
ATOM     18  N   UNL     1      -0.075  -0.227  -2.478  0.00  0.00    +0.381 N 
ATOM     19  H   UNL     1      -0.327   0.750  -2.509  0.00  0.00    -0.090 HD
ATOM     20  H   UNL     1       0.559  -0.436  -3.235  0.00  0.00    -0.090 HD
ATOM     21  H   UNL     1      -0.906  -0.792  -2.569  0.00  0.00    -0.090 HD
ENDBRANCH  17  18
BRANCH  17  23
ATOM     22  C   UNL     1      -0.656   1.298  -0.012  0.00  0.00    +0.002 C 
ATOM     23  C   UNL     1      -0.382  -0.207  -0.048  0.00  0.00    -0.018 C 
ENDBRANCH  17  23
ENDBRANCH   1  17
TORSDOF 5
