REMARK  Name = ZINC55104704
REMARK  8 active torsions:
REMARK  status: ('A' for Active; 'I' for Inactive)
REMARK    1  A    between atoms: C_1  and  C_2
REMARK    2  A    between atoms: C_2  and  C_3
REMARK    3  A    between atoms: C_3  and  O_4
REMARK    4  A    between atoms: O_4  and  C_5
REMARK    5  A    between atoms: C_8  and  N_11
REMARK    6  A    between atoms: C_14  and  C_38
REMARK    7  A    between atoms: N_24  and  C_27
REMARK    8  A    between atoms: C_27  and  N_28
REMARK                            x       y       z     vdW  Elec       q    Type
REMARK                         _______ _______ _______ _____ _____    ______ ____
ROOT
ATOM      1  N   UNL     1       3.498  -4.372   5.281  0.00  0.00    -0.243 N 
ATOM      2  C   UNL     1       4.216  -3.629   6.122  0.00  0.00    +0.234 C 
ATOM      3  O   UNL     1       4.243  -2.420   6.028  0.00  0.00    -0.274 OA
ATOM      4  C   UNL     1       5.000  -4.354   7.206  0.00  0.00    +0.132 C 
ATOM      5  S   UNL     1       4.934  -6.086   6.566  0.00  0.00    -0.108 S 
ATOM      6  C   UNL     1       3.508  -5.822   5.440  0.00  0.00    +0.193 C 
ATOM      7  C   UNL     1       2.246  -6.367   6.032  0.00  0.00    +0.017 A 
ATOM      8  C   UNL     1       1.540  -6.104   7.185  0.00  0.00    +0.009 A 
ATOM      9  C   UNL     1       0.375  -6.797   7.459  0.00  0.00    +0.000 A 
ATOM     10  C   UNL     1      -0.080  -7.756   6.572  0.00  0.00    +0.002 A 
ATOM     11  C   UNL     1       0.622  -8.023   5.415  0.00  0.00    +0.024 A 
ATOM     12  C   UNL     1       1.796  -7.330   5.131  0.00  0.00    +0.044 A 
ATOM     13  N   UNL     1       2.668  -7.419   4.043  0.00  0.00    -0.255 N 
ATOM     14  C   UNL     1       3.703  -6.561   4.150  0.00  0.00    +0.260 C 
ATOM     15  O   UNL     1       4.612  -6.415   3.360  0.00  0.00    -0.271 OA
ATOM     16  C   UNL     1       6.441  -3.845   7.282  0.00  0.00    +0.029 C 
ENDROOT
BRANCH   1  20
ATOM     17  C   UNL     1       1.247  -2.584   2.260  0.00  0.00    +0.121 A 
ATOM     18  C   UNL     1       2.633  -2.552   2.204  0.00  0.00    +0.047 A 
ATOM     19  C   UNL     1       3.379  -3.143   3.204  0.00  0.00    +0.027 A 
ATOM     20  C   UNL     1       2.741  -3.771   4.266  0.00  0.00    +0.039 A 
ATOM     21  C   UNL     1       1.354  -3.804   4.321  0.00  0.00    +0.027 A 
ATOM     22  C   UNL     1       0.610  -3.207   3.323  0.00  0.00    +0.047 A 
BRANCH  17  23
ATOM     23  O   UNL     1       0.513  -2.002   1.275  0.00  0.00    -0.492 OA
BRANCH  23  24
ATOM     24  C   UNL     1       1.235  -1.379   0.210  0.00  0.00    +0.229 C 
BRANCH  24  26
ATOM     25  C   UNL     1       1.020  -0.117  -1.935  0.00  0.00    +0.007 C 
ATOM     26  C   UNL     1       0.247  -0.783  -0.796  0.00  0.00    +0.038 C 
ENDBRANCH  24  26
ENDBRANCH  23  24
ENDBRANCH  17  23
ENDBRANCH   1  20
BRANCH  13  27
ATOM     27  C   UNL     1       2.481  -8.338   2.918  0.00  0.00    +0.200 C 
BRANCH  27  28
ATOM     28  N   UNL     1       1.909  -7.607   1.778  0.00  0.00    -0.286 NA
ATOM     29  C   UNL     1       0.459  -7.439   1.935  0.00  0.00    +0.091 C 
ATOM     30  C   UNL     1      -0.076  -6.547   0.812  0.00  0.00    +0.080 C 
ATOM     31  C   UNL     1       0.245  -7.191  -0.539  0.00  0.00    +0.172 C 
ATOM     32  C   UNL     1       1.755  -7.407  -0.658  0.00  0.00    +0.080 C 
ATOM     33  C   UNL     1       2.234  -8.272   0.510  0.00  0.00    +0.091 C 
ATOM     34  O   UNL     1      -0.201  -6.329  -1.599  0.00  0.00    -0.346 OA
ATOM     35  C   UNL     1      -0.669  -7.227  -2.633  0.00  0.00    +0.191 C 
ATOM     36  C   UNL     1      -1.299  -8.370  -1.798  0.00  0.00    +0.191 C 
ATOM     37  O   UNL     1      -0.432  -8.448  -0.647  0.00  0.00    -0.346 OA
ENDBRANCH  27  28
ENDBRANCH  13  27
TORSDOF 6
