REMARK  Name = ZINC12820971
REMARK  13 active torsions:
REMARK  status: ('A' for Active; 'I' for Inactive)
REMARK    1  A    between atoms: C_1  and  C_2
REMARK    2  A    between atoms: C_2  and  C_3
REMARK    3  A    between atoms: C_8  and  N_9
REMARK    4  A    between atoms: C_10  and  C_12
REMARK    5  A    between atoms: C_12  and  N_65
REMARK    6  A    between atoms: C_13  and  N_65
REMARK    7  A    between atoms: C_14  and  C_15
REMARK    8  A    between atoms: C_14  and  N_65
REMARK    9  A    between atoms: N_17  and  C_18
REMARK   10  A    between atoms: C_19  and  C_30
REMARK   11  A    between atoms: C_20  and  C_29
REMARK   12  A    between atoms: C_21  and  C_28
REMARK   13  A    between atoms: N_22  and  C_23
REMARK                            x       y       z     vdW  Elec       q    Type
REMARK                         _______ _______ _______ _____ _____    ______ ____
ROOT
ATOM      1  C   UNL     1      -0.939   3.441  -0.127  0.00  0.00    +0.202 C 
ATOM      2  O   UNL     1       0.161   3.942  -0.232  0.00  0.00    -0.278 OA
ATOM      3  N   UNL     1      -1.081   2.104  -0.216  0.00  0.00    -0.272 N 
ATOM      4  H   UNL     1      -1.963   1.705  -0.152  0.00  0.00    +0.156 HD
ENDROOT
BRANCH   3   5
ATOM      5  C   UNL     1       0.033   1.298  -0.400  0.00  0.00    +0.123 A 
ATOM      6  C   UNL     1       1.254   1.434   0.244  0.00  0.00    +0.095 A 
ATOM      7  C   UNL     1       2.106   0.355  -0.272  0.00  0.00    -0.011 A 
ATOM      8  C   UNL     1       1.365  -0.330  -1.158  0.00  0.00    +0.022 A 
ATOM      9  N   UNL     1       0.119   0.233  -1.238  0.00  0.00    -0.329 N 
ATOM     10  C   UNL     1       1.831  -1.530  -1.942  0.00  0.00    +0.064 C 
ATOM     11  C   UNL     1       3.534   0.072   0.117  0.00  0.00    +0.047 C 
BRANCH   9  12
ATOM     12  C   UNL     1      -0.963  -0.244  -2.102  0.00  0.00    +0.089 C 
ATOM     13  C   UNL     1      -1.357   0.854  -3.112  0.00  0.00    +0.025 C 
ATOM     14  C   UNL     1      -2.895   0.719  -3.238  0.00  0.00    +0.002 C 
ATOM     15  C   UNL     1      -3.330   0.389  -1.788  0.00  0.00    +0.002 C 
ATOM     16  C   UNL     1      -2.217  -0.540  -1.262  0.00  0.00    +0.025 C 
ENDBRANCH   9  12
BRANCH   6  17
ATOM     17  C   UNL     1       1.612   2.425   1.215  0.00  0.00    +0.103 C 
ATOM     18  N   UNL     1       1.895   3.211   1.984  0.00  0.00    -0.191 NA
ENDBRANCH   6  17
ENDBRANCH   3   5
BRANCH   1  19
ATOM     19  C   UNL     1      -2.145   4.314   0.104  0.00  0.00    +0.019 C 
BRANCH  19  21
ATOM     20  C   UNL     1      -0.939   5.837   1.549  0.00  0.00    -0.095 C 
ATOM     21  N   UNL     1      -1.696   5.710   0.285  0.00  0.00    +0.389 N 
ATOM     22  H   UNL     1      -1.084   5.968  -0.497  0.00  0.00    -0.081 HD
BRANCH  21  23
ATOM     23  C   UNL     1      -2.862   6.618   0.302  0.00  0.00    +0.019 C 
BRANCH  23  25
ATOM     24  N   UNL     1      -3.254   9.060   0.255  0.00  0.00    -0.287 N 
ATOM     25  C   UNL     1      -2.370   8.042   0.266  0.00  0.00    +0.201 C 
ATOM     26  O   UNL     1      -1.180   8.272   0.246  0.00  0.00    -0.278 OA
ATOM     27  H   UNL     1      -4.203   8.880   0.343  0.00  0.00    +0.155 HD
BRANCH  24  33
ATOM     28  C   UNL     1      -3.636  11.345  -0.425  0.00  0.00    -0.026 A 
ATOM     29  C   UNL     1      -3.187  12.645  -0.560  0.00  0.00    +0.005 A 
ATOM     30  C   UNL     1      -1.908  12.982  -0.155  0.00  0.00    +0.000 A 
ATOM     31  C   UNL     1      -1.075  12.019   0.386  0.00  0.00    +0.002 A 
ATOM     32  C   UNL     1      -1.520  10.720   0.528  0.00  0.00    +0.023 A 
ATOM     33  C   UNL     1      -2.802  10.377   0.117  0.00  0.00    +0.036 A 
BRANCH  28  35
ATOM     34  C   UNL     1      -5.978  11.045   0.333  0.00  0.00    +0.009 C 
ATOM     35  C   UNL     1      -5.030  10.980  -0.867  0.00  0.00    +0.033 C 
ENDBRANCH  28  35
ENDBRANCH  24  33
ENDBRANCH  23  25
ENDBRANCH  21  23
ENDBRANCH  19  21
ENDBRANCH   1  19
TORSDOF 9
