REMARK  Name = ZINC38529455
REMARK  11 active torsions:
REMARK  status: ('A' for Active; 'I' for Inactive)
REMARK    1  A    between atoms: CG1_1  and  CB_2
REMARK    2  A    between atoms: CB_2  and  CG2_3
REMARK    3  A    between atoms: CB_2  and  CA_4
REMARK    4  A    between atoms: CA_4  and  C_6
REMARK    5  A    between atoms: CA_4  and  N_12
REMARK    6  A    between atoms: N_8  and  CA_9
REMARK    7  A    between atoms: CA_9  and  C_10
REMARK    8  A    between atoms: C_10  and  O_11
REMARK    9  A    between atoms: C_13  and  O_15
REMARK   10  A    between atoms: O_15  and  C_16
REMARK   11  A    between atoms: C_16  and  C_17
REMARK                            x       y       z     vdW  Elec       q    Type
REMARK                         _______ _______ _______ _____ _____    ______ ____
ROOT
ATOM      1  N   GLY A   1      -1.702  -2.030   0.251  0.00  0.00    -0.270 N 
ATOM      2  C   UNK A   0      -1.649  -2.470   1.524  0.00  0.00    +0.401 C 
ATOM      3  O   UNK A   0      -1.339  -1.707   2.417  0.00  0.00    -0.226 OA
ATOM      4  H   GLY A   1      -1.950  -2.639  -0.463  0.00  0.00    +0.153 HD
ENDROOT
BRANCH   1   5
ATOM      5  CA  GLY A   1      -1.386  -0.633  -0.056  0.00  0.00    +0.165 C 
BRANCH   5   6
ATOM      6  C   GLY A   1      -2.074  -0.231  -1.335  0.00  0.00    +0.234 C 
ATOM      7  O   GLY A   1      -2.511  -1.081  -2.081  0.00  0.00    -0.274 OA
ATOM      8  N   GLY A   1      -2.204   1.073  -1.649  0.00  0.00    -0.312 N 
ATOM      9  H   GLY A   1      -1.924   1.754  -1.018  0.00  0.00    +0.149 HD
BRANCH   8  10
ATOM     10  CA  GLY A   1      -2.768   1.462  -2.944  0.00  0.00    +0.132 C 
BRANCH  10  11
ATOM     11  C   GLY A   1      -2.804   2.988  -3.047  0.00  0.00    +0.174 C 
BRANCH  11  12
ATOM     12  O   GLY A   1      -1.469   3.497  -3.048  0.00  0.00    -0.393 OA
ATOM     13  H   GLY A   1      -1.415   4.461  -3.111  0.00  0.00    +0.209 HD
ENDBRANCH  11  12
ENDBRANCH  10  11
ENDBRANCH   8  10
ENDBRANCH   5   6
BRANCH   5  15
ATOM     14  CG1 GLY A   1       0.820  -0.801   1.106  0.00  0.00    +0.009 C 
ATOM     15  CB  GLY A   1       0.127  -0.476  -0.219  0.00  0.00    +0.012 C 
ATOM     16  CG2 GLY A   1       0.624  -1.435  -1.304  0.00  0.00    +0.009 C 
ENDBRANCH   5  15
ENDBRANCH   1   5
BRANCH   2  17
ATOM     17  O   UNK A   0      -1.940  -3.754   1.805  0.00  0.00    -0.449 OA
BRANCH  17  18
ATOM     18  C   UNK A   0      -1.863  -4.152   3.175  0.00  0.00    +0.246 C 
BRANCH  18  19
ATOM     19  C   UNK A   0      -2.224  -5.633   3.298  0.00  0.00    +0.088 C 
ATOM     20  C   UNK A   0      -1.154  -6.484   2.659  0.00  0.00    -0.029 A 
ATOM     21  C   UNK A   0      -0.675  -6.554   1.368  0.00  0.00    +0.005 A 
ATOM     22  C   UNK A   0       0.336  -7.444   1.052  0.00  0.00    +0.000 A 
ATOM     23  C   UNK A   0       0.867  -8.266   2.029  0.00  0.00    +0.001 A 
ATOM     24  C   UNK A   0       0.394  -8.203   3.323  0.00  0.00    +0.009 A 
ATOM     25  C   UNK A   0      -0.625  -7.306   3.650  0.00  0.00    -0.014 A 
ATOM     26  C   UNK A   0      -1.310  -7.033   4.937  0.00  0.00    -0.014 A 
ATOM     27  C   UNK A   0      -2.268  -6.039   4.751  0.00  0.00    -0.029 A 
ATOM     28  C   UNK A   0      -3.040  -5.610   5.809  0.00  0.00    +0.005 A 
ATOM     29  C   UNK A   0      -2.867  -6.167   7.064  0.00  0.00    +0.000 A 
ATOM     30  C   UNK A   0      -1.918  -7.154   7.259  0.00  0.00    +0.001 A 
ATOM     31  C   UNK A   0      -1.141  -7.590   6.206  0.00  0.00    +0.009 A 
ENDBRANCH  18  19
ENDBRANCH  17  18
ENDBRANCH   2  17
TORSDOF 9
