REMARK  Name = ZINC20754042
REMARK  9 active torsions:
REMARK  status: ('A' for Active; 'I' for Inactive)
REMARK    1  A    between atoms: C_1  and  C_2
REMARK    2  A    between atoms: C_2  and  N_3
REMARK    3  A    between atoms: N_3  and  C_4
REMARK    4  A    between atoms: N_3  and  C_6
REMARK    5  A    between atoms: C_4  and  C_5
REMARK    6  A    between atoms: C_6  and  C_7
REMARK    7  A    between atoms: C_7  and  N_8
REMARK    8  A    between atoms: C_9  and  C_11
REMARK    9  A    between atoms: C_24  and  C_27
REMARK                            x       y       z     vdW  Elec       q    Type
REMARK                         _______ _______ _______ _____ _____    ______ ____
ROOT
ATOM      1  C   UNL     1       1.368  -3.612   0.259  0.00  0.00    +0.037 A 
ATOM      2  C   UNL     1       0.382  -2.626   0.355  0.00  0.00    +0.015 A 
ATOM      3  C   UNL     1       0.741  -1.302   0.442  0.00  0.00    +0.024 A 
ATOM      4  C   UNL     1       2.083  -0.930   0.436  0.00  0.00    +0.031 A 
ATOM      5  C   UNL     1       3.072  -1.922   0.353  0.00  0.00    -0.019 A 
ATOM      6  C   UNL     1       2.716  -3.245   0.259  0.00  0.00    +0.019 A 
ATOM      7  C   UNL     1       4.484  -1.483   0.394  0.00  0.00    +0.049 C 
ATOM      8  C   UNL     1       5.572  -2.279  -0.228  0.00  0.00    -0.023 C 
ATOM      9  C   UNL     1       6.519  -1.448  -0.648  0.00  0.00    -0.030 C 
ATOM     10  C   UNL     1       6.108  -0.002  -0.363  0.00  0.00    +0.033 C 
ATOM     11  C   UNL     1       4.578  -0.114  -0.343  0.00  0.00    +0.029 C 
ATOM     12  C   UNL     1       3.822   0.870   0.532  0.00  0.00    +0.106 C 
ATOM     13  N   UNL     1       2.413   0.423   0.509  0.00  0.00    -0.336 N 
ATOM     14  H   UNL     1       1.600   1.163   0.550  0.00  0.00    +0.147 HD
ENDROOT
BRANCH  12  15
ATOM     15  C   UNL     1       3.936   2.263  -0.032  0.00  0.00    -0.012 A 
ATOM     16  C   UNL     1       3.268   2.600  -1.207  0.00  0.00    -0.012 A 
ATOM     17  C   UNL     1       2.475   1.653  -1.892  0.00  0.00    +0.009 A 
ATOM     18  C   UNL     1       1.838   2.015  -3.035  0.00  0.00    +0.001 A 
ATOM     19  C   UNL     1       1.943   3.305  -3.557  0.00  0.00    +0.001 A 
ATOM     20  C   UNL     1       2.679   4.266  -2.942  0.00  0.00    +0.008 A 
ATOM     21  C   UNL     1       3.373   3.957  -1.753  0.00  0.00    -0.017 A 
ATOM     22  C   UNL     1       4.152   4.915  -1.105  0.00  0.00    +0.017 A 
ATOM     23  C   UNL     1       4.825   4.576   0.067  0.00  0.00    -0.017 A 
ATOM     24  C   UNL     1       4.714   3.220   0.616  0.00  0.00    -0.012 A 
ATOM     25  C   UNL     1       5.409   2.911   1.805  0.00  0.00    +0.009 A 
ATOM     26  C   UNL     1       6.158   3.868   2.411  0.00  0.00    +0.001 A 
ATOM     27  C   UNL     1       6.263   5.157   1.889  0.00  0.00    +0.001 A 
ATOM     28  C   UNL     1       5.622   5.521   0.749  0.00  0.00    +0.008 A 
ENDBRANCH  12  15
BRANCH   1  30
ATOM     29  N   UNL     1      -0.315  -5.385   0.160  0.00  0.00    -0.313 N 
ATOM     30  C   UNL     1       0.987  -5.034   0.160  0.00  0.00    +0.244 C 
ATOM     31  O   UNL     1       1.847  -5.890   0.077  0.00  0.00    -0.270 OA
ATOM     32  H   UNL     1      -1.093  -4.611   0.235  0.00  0.00    +0.149 HD
BRANCH  29  33
ATOM     33  C   UNL     1      -0.693  -6.797   0.061  0.00  0.00    +0.086 C 
BRANCH  33  34
ATOM     34  C   UNL     1      -2.218  -6.919   0.084  0.00  0.00    -0.060 C 
BRANCH  34  35
ATOM     35  N   UNL     1      -2.597  -8.335  -0.016  0.00  0.00    +0.380 N 
ATOM     36  H   UNL     1      -2.045  -8.888   0.758  0.00  0.00    -0.082 HD
BRANCH  35  38
ATOM     37  C   UNL     1      -4.303  -8.393   1.740  0.00  0.00    -0.017 C 
ATOM     38  C   UNL     1      -4.033  -8.514   0.239  0.00  0.00    -0.082 C 
ENDBRANCH  35  38
BRANCH  35  39
ATOM     39  C   UNL     1      -2.221  -8.890  -1.323  0.00  0.00    -0.082 C 
ATOM     40  C   UNL     1      -2.257 -10.418  -1.256  0.00  0.00    -0.017 C 
ENDBRANCH  35  39
ENDBRANCH  34  35
ENDBRANCH  33  34
ENDBRANCH  29  33
ENDBRANCH   1  30
TORSDOF 7
