REMARK  Name = ZINC38959922
REMARK  7 active torsions:
REMARK  status: ('A' for Active; 'I' for Inactive)
REMARK    1  A    between atoms: C_1  and  C_2
REMARK    2  A    between atoms: C_5  and  C_32
REMARK    3  A    between atoms: C_6  and  N_8
REMARK    4  A    between atoms: N_8  and  C_9
REMARK    5  A    between atoms: C_9  and  C_10
REMARK    6  A    between atoms: C_17  and  C_22
REMARK    7  A    between atoms: C_23  and  C_25
REMARK                            x       y       z     vdW  Elec       q    Type
REMARK                         _______ _______ _______ _____ _____    ______ ____
ROOT
ATOM      1  N   UNL     1       0.155  -2.635   2.836  0.00  0.00    -0.266 N 
ATOM      2  C   UNL     1       1.161  -3.166   3.559  0.00  0.00    +0.252 C 
ATOM      3  O   UNL     1       0.916  -3.937   4.467  0.00  0.00    -0.270 OA
ENDROOT
BRANCH   1   9
ATOM      4  C   UNL     1       2.436  -1.386  -1.335  0.00  0.00    +0.044 C 
ATOM      5  C   UNL     1       1.532  -1.045  -0.179  0.00  0.00    -0.049 A 
ATOM      6  C   UNL     1       0.972   0.216  -0.088  0.00  0.00    +0.004 A 
ATOM      7  C   UNL     1       0.142   0.533   0.971  0.00  0.00    +0.005 A 
ATOM      8  C   UNL     1      -0.131  -0.410   1.943  0.00  0.00    -0.029 A 
ATOM      9  C   UNL     1       0.429  -1.678   1.854  0.00  0.00    +0.040 A 
ATOM     10  C   UNL     1       1.258  -1.994   0.786  0.00  0.00    +0.027 A 
ATOM     11  C   UNL     1      -1.035  -0.063   3.098  0.00  0.00    +0.045 C 
ENDBRANCH   1   9
BRANCH   2  12
ATOM     12  C   UNL     1       2.561  -2.810   3.249  0.00  0.00    +0.051 A 
ATOM     13  C   UNL     1       2.931  -1.471   3.114  0.00  0.00    +0.014 A 
ATOM     14  C   UNL     1       4.239  -1.146   2.824  0.00  0.00    +0.001 A 
ATOM     15  C   UNL     1       5.186  -2.144   2.668  0.00  0.00    +0.001 A 
ATOM     16  C   UNL     1       4.827  -3.473   2.801  0.00  0.00    +0.016 A 
ATOM     17  C   UNL     1       3.522  -3.812   3.097  0.00  0.00    +0.030 A 
ATOM     18 BR   UNL     1       3.035  -5.630   3.287  0.00  0.00    -0.050 Br
ENDBRANCH   2  12
BRANCH   1  19
ATOM     19  C   UNL     1      -1.226  -3.061   3.079  0.00  0.00    +0.131 C 
BRANCH  19  20
ATOM     20  C   UNL     1      -1.494  -4.371   2.336  0.00  0.00    +0.116 C 
ATOM     21  C   UNL     1      -2.745  -4.992   2.925  0.00  0.00    -0.003 C 
ATOM     22  C   UNL     1      -3.782  -5.235   2.074  0.00  0.00    -0.007 A 
ATOM     23  C   UNL     1      -5.027  -5.833   2.558  0.00  0.00    +0.009 A 
ATOM     24  C   UNL     1      -6.033  -6.057   1.674  0.00  0.00    +0.001 A 
ATOM     25  C   UNL     1      -5.900  -5.731   0.324  0.00  0.00    +0.005 A 
ATOM     26  C   UNL     1      -4.771  -5.174  -0.188  0.00  0.00    -0.029 A 
ATOM     27  C   UNL     1      -3.670  -4.900   0.643  0.00  0.00    +0.043 A 
ATOM     28  N   UNL     1      -2.568  -4.353   0.131  0.00  0.00    -0.284 N 
ATOM     29  C   UNL     1      -1.498  -4.072   0.854  0.00  0.00    +0.226 C 
ATOM     30  O   UNL     1      -0.521  -3.572   0.329  0.00  0.00    -0.275 OA
ATOM     31  C   UNL     1      -4.699  -4.848  -1.657  0.00  0.00    +0.045 C 
ATOM     32  H   UNL     1      -2.550  -4.153  -0.818  0.00  0.00    +0.155 HD
ENDBRANCH  19  20
ENDBRANCH   1  19
TORSDOF 4
