REMARK  Name = ZINC41031508
REMARK  7 active torsions:
REMARK  status: ('A' for Active; 'I' for Inactive)
REMARK    1  A    between atoms: C_1  and  C_2
REMARK    2  A    between atoms: C_5  and  N_18
REMARK    3  A    between atoms: C_7  and  C_8
REMARK    4  A    between atoms: C_10  and  N_17
REMARK    5  A    between atoms: C_11  and  C_13
REMARK    6  A    between atoms: C_13  and  O_15
REMARK    7  A    between atoms: O_15  and  C_16
REMARK                            x       y       z     vdW  Elec       q    Type
REMARK                         _______ _______ _______ _____ _____    ______ ____
ROOT
ATOM      1  C   UNL     1       0.026   0.017   2.493  0.00  0.00    +0.022 A 
ATOM      2  C   UNL     1      -0.783  -0.174   3.598  0.00  0.00    +0.039 A 
ATOM      3  C   UNL     1      -0.601   0.628   4.698  0.00  0.00    +0.047 A 
ATOM      4  C   UNL     1       0.397   1.604   4.648  0.00  0.00    +0.117 A 
ATOM      5  S   UNL     1       1.079   1.359   3.016  0.00  0.00    -0.080 S 
ENDROOT
BRANCH   1  12
ATOM      6  C   UNL     1      -0.018   1.503   0.010  0.00  0.00    +0.044 C 
ATOM      7  C   UNL     1       0.002  -0.004   0.002  0.00  0.00    -0.042 A 
ATOM      8  C   UNL     1       0.006  -0.689  -1.196  0.00  0.00    +0.006 A 
ATOM      9  C   UNL     1       0.024  -2.072  -1.205  0.00  0.00    +0.033 A 
ATOM     10  C   UNL     1       0.039  -2.778  -0.015  0.00  0.00    +0.127 A 
ATOM     11  C   UNL     1       0.036  -2.106   1.189  0.00  0.00    +0.042 A 
ATOM     12  C   UNL     1       0.023  -0.710   1.206  0.00  0.00    -0.006 A 
BRANCH  10  13
ATOM     13  N   UNL     1       0.057  -4.258  -0.035  0.00  0.00    +0.056 N 
ATOM     14  O   UNL     1       0.059  -4.849  -1.089  0.00  0.00    -0.126 OA
ATOM     15  O   UNL     1       0.070  -4.876   1.004  0.00  0.00    -0.126 OA
ENDBRANCH  10  13
ENDBRANCH   1  12
BRANCH   3  16
ATOM     16  N   UNL     1      -1.391   0.473   5.833  0.00  0.00    -0.357 N 
ATOM     17  H   UNL     1      -2.081  -0.209   5.855  0.00  0.00    +0.142 HD
ATOM     18  H   UNL     1      -1.252   1.047   6.603  0.00  0.00    +0.142 HD
ENDBRANCH   3  16
BRANCH   4  19
ATOM     19  C   UNL     1       0.774   2.539   5.636  0.00  0.00    +0.347 C 
ATOM     20  O   UNL     1       0.195   2.560   6.707  0.00  0.00    -0.244 OA
BRANCH  19  21
ATOM     21  O   UNL     1       1.776   3.410   5.394  0.00  0.00    -0.464 OA
ATOM     22  C   UNL     1       2.105   4.329   6.438  0.00  0.00    +0.280 C 
ENDBRANCH  19  21
ENDBRANCH   4  19
TORSDOF 5
