REMARK  Name = ZINC02234328
REMARK  6 active torsions:
REMARK  status: ('A' for Active; 'I' for Inactive)
REMARK    1  A    between atoms: C_4  and  S_7
REMARK    2  A    between atoms: S_7  and  C_10
REMARK    3  A    between atoms: N_21  and  C_24
REMARK    4  A    between atoms: C_22  and  N_23
REMARK    5  A    between atoms: C_24  and  C_25
REMARK    6  A    between atoms: C_25  and  C_26
REMARK                            x       y       z     vdW  Elec       q    Type
REMARK                         _______ _______ _______ _____ _____    ______ ____
ROOT
ATOM      1  C   UNL     1      -2.363   2.670   2.568  0.00  0.00    +0.160 A 
ATOM      2  C   UNL     1      -1.171   2.709   3.329  0.00  0.00    +0.135 A 
ATOM      3  C   UNL     1      -0.101   2.267   2.426  0.00  0.00    +0.163 A 
ATOM      4  N   UNL     1       1.136   2.202   2.864  0.00  0.00    -0.226 NA
ATOM      5  C   UNL     1       1.413   2.541   4.130  0.00  0.00    +0.092 A 
ATOM      6  C   UNL     1       2.735   2.474   4.608  0.00  0.00    +0.030 A 
ATOM      7  C   UNL     1       3.009   2.820   5.895  0.00  0.00    +0.002 A 
ATOM      8  C   UNL     1       1.995   3.240   6.755  0.00  0.00    +0.002 A 
ATOM      9  C   UNL     1       0.705   3.317   6.330  0.00  0.00    +0.030 A 
ATOM     10  C   UNL     1       0.383   2.968   5.005  0.00  0.00    +0.090 A 
ATOM     11  N   UNL     1      -0.882   3.040   4.578  0.00  0.00    -0.240 NA
ATOM     12  N   UNL     1      -0.704   1.998   1.216  0.00  0.00    -0.311 N 
ATOM     13  C   UNL     1      -2.050   2.250   1.319  0.00  0.00    +0.126 A 
ENDROOT
BRANCH   1  14
ATOM     14  S   UNL     1      -3.972   3.098   3.142  0.00  0.00    +0.030 S 
ATOM     15  O   UNL     1      -4.897   2.412   2.309  0.00  0.00    -0.164 OA
ATOM     16  O   UNL     1      -3.955   2.939   4.554  0.00  0.00    -0.164 OA
BRANCH  14  20
ATOM     17  C   UNL     1      -4.546   7.517   2.346  0.00  0.00    +0.000 A 
ATOM     18  C   UNL     1      -4.911   6.589   1.388  0.00  0.00    +0.002 A 
ATOM     19  C   UNL     1      -4.736   5.240   1.631  0.00  0.00    +0.027 A 
ATOM     20  C   UNL     1      -4.196   4.818   2.832  0.00  0.00    +0.094 A 
ATOM     21  C   UNL     1      -3.836   5.746   3.792  0.00  0.00    +0.027 A 
ATOM     22  C   UNL     1      -4.006   7.096   3.546  0.00  0.00    +0.002 A 
ENDBRANCH  14  20
ENDBRANCH   1  14
BRANCH  13  23
ATOM     23  N   UNL     1      -2.961   2.093   0.291  0.00  0.00    -0.343 N 
ATOM     24  H   UNL     1      -2.662   1.784  -0.579  0.00  0.00    +0.144 HD
ATOM     25  H   UNL     1      -3.898   2.291   0.439  0.00  0.00    +0.144 HD
ENDBRANCH  13  23
BRANCH  12  26
ATOM     26  C   UNL     1      -0.019   1.526   0.010  0.00  0.00    +0.130 C 
BRANCH  26  27
ATOM     27  C   UNL     1       0.002  -0.004   0.002  0.00  0.00    +0.059 C 
BRANCH  27  28
ATOM     28  C   UNL     1       0.707  -0.490  -1.238  0.00  0.00    -0.011 A 
ATOM     29  C   UNL     1      -0.023  -0.828  -2.361  0.00  0.00    +0.006 A 
ATOM     30  C   UNL     1       0.624  -1.268  -3.501  0.00  0.00    +0.000 A 
ATOM     31  C   UNL     1       2.002  -1.382  -3.514  0.00  0.00    +0.003 A 
ATOM     32  C   UNL     1       2.734  -1.050  -2.390  0.00  0.00    +0.038 A 
ATOM     33  C   UNL     1       2.087  -0.604  -1.250  0.00  0.00    +0.127 A 
ATOM     34  F   UNL     1       2.802  -0.279  -0.150  0.00  0.00    -0.205 F 
ENDBRANCH  27  28
ENDBRANCH  26  27
ENDBRANCH  12  26
TORSDOF 6
