REMARK  Name = ZINC28289557
REMARK  9 active torsions:
REMARK  status: ('A' for Active; 'I' for Inactive)
REMARK    1  A    between atoms: C_1  and  C_2
REMARK    2  A    between atoms: C_2  and  C_3
REMARK    3  A    between atoms: C_2  and  C_4
REMARK    4  A    between atoms: C_2  and  C_5
REMARK    5  A    between atoms: C_8  and  C_11
REMARK    6  A    between atoms: C_11  and  C_13
REMARK    7  A    between atoms: C_11  and  N_28
REMARK    8  A    between atoms: C_13  and  N_14
REMARK    9  A    between atoms: C_15  and  C_17
REMARK                            x       y       z     vdW  Elec       q    Type
REMARK                         _______ _______ _______ _____ _____    ______ ____
ROOT
ATOM      1  C   UNL     1      -5.620  -2.827   0.104  0.00  0.00    -0.020 C 
ENDROOT
BRANCH   1   5
ATOM      2  C   UNL     1      -9.219  -5.127   0.207  0.00  0.00    -0.042 A 
ATOM      3  C   UNL     1      -8.545  -4.950  -0.987  0.00  0.00    +0.004 A 
ATOM      4  C   UNL     1      -7.381  -4.206  -1.020  0.00  0.00    +0.002 A 
ATOM      5  C   UNL     1      -6.890  -3.638   0.141  0.00  0.00    -0.059 A 
ATOM      6  C   UNL     1      -7.560  -3.820   1.336  0.00  0.00    +0.002 A 
ATOM      7  C   UNL     1      -8.727  -4.560   1.368  0.00  0.00    +0.004 A 
BRANCH   2   9
ATOM      8  C   UNL     1     -10.197  -7.363  -0.231  0.00  0.00    +0.015 C 
ATOM      9  C   UNL     1     -10.488  -5.938   0.244  0.00  0.00    -0.013 C 
ATOM     10  C   UNL     1     -11.028  -5.977   1.675  0.00  0.00    +0.015 C 
ATOM     11  C   UNL     1     -11.529  -5.297  -0.677  0.00  0.00    +0.015 C 
ENDBRANCH   2   9
ENDBRANCH   1   5
BRANCH   1  12
ATOM     12  N   UNL     1      -4.814  -3.127   1.295  0.00  0.00    +0.385 N 
ATOM     13  C   UNL     1      -4.457  -4.567   1.348  0.00  0.00    -0.078 C 
ATOM     14  C   UNL     1      -3.234  -4.596   2.299  0.00  0.00    -0.020 C 
ATOM     15  C   UNL     1      -2.475  -3.302   1.923  0.00  0.00    -0.020 C 
ATOM     16  C   UNL     1      -3.529  -2.394   1.262  0.00  0.00    -0.078 C 
ATOM     17  H   UNL     1      -5.428  -2.825   2.156  0.00  0.00    -0.081 HD
ENDBRANCH   1  12
BRANCH   1  18
ATOM     18  C   UNL     1      -5.967  -1.337   0.085  0.00  0.00    +0.094 C 
BRANCH  18  19
ATOM     19  N   UNL     1      -6.658  -1.013  -1.166  0.00  0.00    -0.310 N 
ATOM     20  C   UNL     1      -7.155   0.225  -1.360  0.00  0.00    +0.279 C 
ATOM     21  O   UNL     1      -7.031   1.071  -0.497  0.00  0.00    -0.267 OA
ATOM     22  H   UNL     1      -6.771  -1.780  -1.947  0.00  0.00    +0.149 HD
BRANCH  20  23
ATOM     23  C   UNL     1      -7.854   0.552  -2.625  0.00  0.00    +0.193 A 
ATOM     24  C   UNL     1      -8.344   1.804  -2.792  0.00  0.00    +0.103 A 
ATOM     25  C   UNL     1      -9.038   2.131  -4.047  0.00  0.00    +0.193 A 
ATOM     26  O   UNL     1      -9.498   3.240  -4.252  0.00  0.00    -0.287 OA
ATOM     27  C   UNL     1      -9.150   1.051  -5.046  0.00  0.00    +0.064 A 
ATOM     28  C   UNL     1      -9.790   1.257  -6.268  0.00  0.00    +0.015 A 
ATOM     29  C   UNL     1      -9.874   0.232  -7.169  0.00  0.00    +0.001 A 
ATOM     30  C   UNL     1      -9.328  -1.009  -6.874  0.00  0.00    +0.004 A 
ATOM     31  C   UNL     1      -8.693  -1.231  -5.672  0.00  0.00    +0.047 A 
ATOM     32  C   UNL     1      -8.599  -0.204  -4.737  0.00  0.00    +0.139 A 
ATOM     33  O   UNL     1      -7.978  -0.402  -3.559  0.00  0.00    -0.450 OA
ENDBRANCH  20  23
ENDBRANCH  18  19
ENDBRANCH   1  18
TORSDOF 6
