REMARK  Name = ZINC39627014
REMARK  14 active torsions:
REMARK  status: ('A' for Active; 'I' for Inactive)
REMARK    1  A    between atoms: C_1  and  C_2
REMARK    2  A    between atoms: C_2  and  C_3
REMARK    3  A    between atoms: C_3  and  C_4
REMARK    4  A    between atoms: C_4  and  C_5
REMARK    5  A    between atoms: C_5  and  C_7
REMARK    6  A    between atoms: C_5  and  C_8
REMARK    7  A    between atoms: C_12  and  C_21
REMARK    8  A    between atoms: N_23  and  C_24
REMARK    9  A    between atoms: C_24  and  C_25
REMARK   10  A    between atoms: C_25  and  N_26
REMARK   11  A    between atoms: N_26  and  C_27
REMARK   12  A    between atoms: N_26  and  C_29
REMARK   13  A    between atoms: C_27  and  C_28
REMARK   14  A    between atoms: C_29  and  C_30
REMARK                            x       y       z     vdW  Elec       q    Type
REMARK                         _______ _______ _______ _____ _____    ______ ____
ROOT
ATOM      1  C   UNL     1      -3.151  -5.475   1.544  0.00  0.00    +0.218 C 
ATOM      2  O   UNL     1      -2.216  -6.247   1.560  0.00  0.00    -0.275 OA
ATOM      3  N   UNL     1      -4.398  -5.932   1.317  0.00  0.00    -0.300 N 
ATOM      4  C   UNL     1      -5.655  -5.149   1.254  0.00  0.00    +0.121 C 
ATOM      5  C   UNL     1      -6.456  -5.790   0.099  0.00  0.00    +0.100 C 
ATOM      6  C   UNL     1      -5.907  -7.222  -0.013  0.00  0.00    -0.004 C 
ATOM      7  C   UNL     1      -4.822  -7.330   1.068  0.00  0.00    +0.115 C 
ATOM      8  C   UNL     1      -5.294  -7.447  -1.392  0.00  0.00    -0.010 C 
ATOM      9  C   UNL     1      -4.806  -8.894  -1.498  0.00  0.00    -0.082 C 
ATOM     10  N   UNL     1      -5.935  -9.809  -1.287  0.00  0.00    +0.379 N 
ATOM     11  C   UNL     1      -6.460  -9.651   0.074  0.00  0.00    -0.082 C 
ATOM     12  C   UNL     1      -7.017  -8.236   0.247  0.00  0.00    -0.010 C 
ATOM     13  H   UNL     1      -6.663  -9.602  -1.954  0.00  0.00    -0.086 HD
ATOM     14  H   UNL     1      -5.624 -10.760  -1.418  0.00  0.00    -0.086 HD
ENDROOT
BRANCH   5  15
ATOM     15  C   UNL     1      -7.926  -5.813   0.430  0.00  0.00    +0.218 C 
ATOM     16  O   UNL     1      -8.287  -5.835   1.587  0.00  0.00    -0.275 OA
ATOM     17  N   UNL     1      -8.840  -5.810  -0.561  0.00  0.00    -0.317 N 
ATOM     18  H   UNL     1      -8.552  -5.793  -1.487  0.00  0.00    +0.149 HD
BRANCH  17  19
ATOM     19  C   UNL     1     -10.269  -5.833  -0.239  0.00  0.00    +0.085 C 
BRANCH  19  20
ATOM     20  C   UNL     1     -11.084  -5.824  -1.534  0.00  0.00    -0.060 C 
BRANCH  20  21
ATOM     21  N   UNL     1     -12.510  -5.978  -1.217  0.00  0.00    +0.380 N 
ATOM     22  H   UNL     1     -12.643  -6.807  -0.658  0.00  0.00    -0.082 HD
BRANCH  21  23
ATOM     23  C   UNL     1     -12.974  -4.803  -0.467  0.00  0.00    -0.082 C 
ATOM     24  C   UNL     1     -14.424  -5.017  -0.029  0.00  0.00    -0.017 C 
ENDBRANCH  21  23
BRANCH  21  25
ATOM     25  C   UNL     1     -13.279  -6.098  -2.463  0.00  0.00    -0.082 C 
ATOM     26  C   UNL     1     -12.886  -7.390  -3.182  0.00  0.00    -0.017 C 
ENDBRANCH  21  25
ENDBRANCH  20  21
ENDBRANCH  19  20
ENDBRANCH  17  19
ENDBRANCH   5  15
BRANCH   1  27
ATOM     27  C   UNL     1      -2.918  -4.004   1.778  0.00  0.00    +0.072 C 
ATOM     28  C   UNL     1      -3.707  -3.553   3.008  0.00  0.00    +0.017 C 
BRANCH  27  29
ATOM     29  C   UNL     1      -1.426  -3.755   2.007  0.00  0.00    +0.012 C 
BRANCH  29  30
ATOM     30  C   UNL     1      -1.173  -2.250   2.121  0.00  0.00    +0.000 C 
BRANCH  30  32
ATOM     31  C   UNL     1       0.573  -0.495   2.464  0.00  0.00    +0.004 C 
ATOM     32  C   UNL     1       0.319  -2.000   2.351  0.00  0.00    -0.003 C 
ENDBRANCH  30  32
ENDBRANCH  29  30
ENDBRANCH  27  29
ENDBRANCH   1  27
TORSDOF 10
