REMARK  Name = ZINC38872572
REMARK  5 active torsions:
REMARK  status: ('A' for Active; 'I' for Inactive)
REMARK    1  A    between atoms: C_10  and  N_12
REMARK    2  A    between atoms: C_13  and  C_15
REMARK    3  A    between atoms: N_18  and  C_21
REMARK    4  A    between atoms: C_21  and  C_22
REMARK    5  A    between atoms: C_24  and  C_27
REMARK                            x       y       z     vdW  Elec       q    Type
REMARK                         _______ _______ _______ _____ _____    ______ ____
ROOT
ATOM      1  C   UNL     1       6.269   1.814   1.377  0.00  0.00    +0.071 C 
ATOM      2  C   UNL     1       5.487   2.329   2.589  0.00  0.00    -0.006 C 
ATOM      3  C   UNL     1       6.429   3.120   3.499  0.00  0.00    -0.077 C 
ATOM      4  N   UNL     1       6.991   4.256   2.759  0.00  0.00    +0.386 N 
ATOM      5  C   UNL     1       7.802   3.768   1.637  0.00  0.00    -0.077 C 
ATOM      6  C   UNL     1       6.912   3.002   0.655  0.00  0.00    -0.006 C 
ATOM      7  H   UNL     1       6.240   4.830   2.405  0.00  0.00    -0.081 HD
ENDROOT
BRANCH   1   9
ATOM      8  N   UNL     1       4.649   0.018   0.860  0.00  0.00    -0.308 N 
ATOM      9  C   UNL     1       5.330   1.101   0.438  0.00  0.00    +0.216 C 
ATOM     10  O   UNL     1       5.189   1.502  -0.698  0.00  0.00    -0.276 OA
ATOM     11  H   UNL     1       4.762  -0.302   1.769  0.00  0.00    +0.149 HD
BRANCH   8  21
ATOM     12  C   UNL     1      -0.017   1.375   0.010  0.00  0.00    +0.000 A 
ATOM     13  C   UNL     1       1.174   2.078   0.002  0.00  0.00    +0.000 A 
ATOM     14  C   UNL     1       2.372   1.395  -0.016  0.00  0.00    +0.006 A 
ATOM     15  C   UNL     1       2.393   0.006  -0.025  0.00  0.00    -0.024 A 
ATOM     16  C   UNL     1       1.208  -0.694  -0.013  0.00  0.00    -0.042 A 
ATOM     17  C   UNL     1       0.002  -0.004   0.002  0.00  0.00    +0.004 A 
ATOM     18  C   UNL     1       1.155  -2.199  -0.005  0.00  0.00    +0.035 C 
ATOM     19  C   UNL     1       2.493  -2.786  -0.452  0.00  0.00    +0.007 C 
ATOM     20  C   UNL     1       3.607  -2.135   0.376  0.00  0.00    +0.027 C 
ATOM     21  C   UNL     1       3.736  -0.675  -0.053  0.00  0.00    +0.103 C 
ENDBRANCH   8  21
ENDBRANCH   1   9
BRANCH   4  22
ATOM     22  C   UNL     1       7.833   5.056   3.658  0.00  0.00    +0.022 C 
BRANCH  22  23
ATOM     23  C   UNL     1       8.312   6.288   2.934  0.00  0.00    +0.211 A 
ATOM     24  N   UNL     1       7.702   7.439   2.905  0.00  0.00    -0.193 NA
ATOM     25  C   UNL     1       8.406   8.315   2.167  0.00  0.00    +0.203 A 
ATOM     26  N   UNL     1       9.482   7.716   1.719  0.00  0.00    -0.056 NA
ATOM     27  O   UNL     1       9.439   6.387   2.217  0.00  0.00    -0.340 OA
BRANCH  25  28
ATOM     28  C   UNL     1       8.029   9.726   1.904  0.00  0.00    +0.041 A 
ATOM     29  C   UNL     1       6.856  10.248   2.446  0.00  0.00    +0.014 A 
ATOM     30  C   UNL     1       6.509  11.561   2.199  0.00  0.00    +0.021 A 
ATOM     31  C   UNL     1       7.324  12.359   1.414  0.00  0.00    +0.042 A 
ATOM     32  C   UNL     1       8.490  11.846   0.873  0.00  0.00    +0.040 A 
ATOM     33  C   UNL     1       8.849  10.535   1.119  0.00  0.00    +0.053 A 
ATOM     34 CL   UNL     1      10.316   9.894   0.446  0.00  0.00    -0.083 Cl
ATOM     35 CL   UNL     1       6.881  14.009   1.107  0.00  0.00    -0.083 Cl
ENDBRANCH  25  28
ENDBRANCH  22  23
ENDBRANCH   4  22
TORSDOF 5
