REMARK  Name = ZINC34736813
REMARK  9 active torsions:
REMARK  status: ('A' for Active; 'I' for Inactive)
REMARK    1  A    between atoms: C_1  and  C_2
REMARK    2  A    between atoms: C_4  and  C_32
REMARK    3  A    between atoms: C_5  and  C_9
REMARK    4  A    between atoms: C_6  and  C_8
REMARK    5  A    between atoms: C_9  and  N_10
REMARK    6  A    between atoms: N_14  and  C_17
REMARK    7  A    between atoms: C_20  and  N_23
REMARK    8  A    between atoms: C_24  and  C_26
REMARK    9  A    between atoms: C_26  and  C_27
REMARK                            x       y       z     vdW  Elec       q    Type
REMARK                         _______ _______ _______ _____ _____    ______ ____
ROOT
ATOM      1  N   UNL     1       1.421  -4.781   0.110  0.00  0.00    -0.281 N 
ATOM      2  C   UNL     1       2.255  -4.866  -1.090  0.00  0.00    +0.111 C 
ATOM      3  C   UNL     1       3.717  -4.613  -0.707  0.00  0.00    +0.038 C 
ATOM      4  C   UNL     1       4.112  -5.606   0.391  0.00  0.00    +0.117 C 
ATOM      5  N   UNL     1       3.178  -5.481   1.511  0.00  0.00    -0.255 N 
ATOM      6  C   UNL     1       1.910  -5.085   1.322  0.00  0.00    +0.309 C 
ATOM      7  O   UNL     1       1.174  -5.003   2.286  0.00  0.00    -0.252 OA
ENDROOT
BRANCH   5   8
ATOM      8  C   UNL     1       3.618  -5.775   2.809  0.00  0.00    +0.038 A 
ATOM      9  C   UNL     1       3.990  -7.072   3.138  0.00  0.00    +0.025 A 
ATOM     10  C   UNL     1       4.423  -7.362   4.416  0.00  0.00    +0.025 A 
ATOM     11  C   UNL     1       4.488  -6.356   5.372  0.00  0.00    +0.034 A 
ATOM     12  C   UNL     1       4.117  -5.060   5.043  0.00  0.00    +0.025 A 
ATOM     13  C   UNL     1       3.688  -4.769   3.763  0.00  0.00    +0.025 A 
BRANCH  11  14
ATOM     14  N   UNL     1       4.928  -6.651   6.669  0.00  0.00    -0.285 N 
ATOM     15  C   UNL     1       5.880  -7.585   6.862  0.00  0.00    +0.222 C 
ATOM     16  O   UNL     1       6.423  -8.104   5.910  0.00  0.00    -0.275 OA
ATOM     17  H   UNL     1       4.547  -6.182   7.429  0.00  0.00    +0.155 HD
BRANCH  15  18
ATOM     18  C   UNL     1       6.269  -7.986   8.262  0.00  0.00    +0.138 C 
BRANCH  18  19
ATOM     19  C   UNL     1       7.346  -9.039   8.202  0.00  0.00    -0.001 A 
ATOM     20  C   UNL     1       8.692  -8.883   8.184  0.00  0.00    +0.011 A 
ATOM     21  C   UNL     1       9.496 -10.006   8.127  0.00  0.00    +0.008 A 
ATOM     22  C   UNL     1       8.914 -11.230   8.090  0.00  0.00    +0.045 A 
ATOM     23  S   UNL     1       7.179 -10.816   8.143  0.00  0.00    -0.101 S 
ENDBRANCH  18  19
ENDBRANCH  15  18
ENDBRANCH  11  14
ENDBRANCH   5   8
BRANCH   1  24
ATOM     24  C   UNL     1       0.027  -4.351  -0.014  0.00  0.00    +0.145 C 
BRANCH  24  29
ATOM     25  C   UNL     1      -0.206   1.422  -0.132  0.00  0.00    +0.044 C 
ATOM     26  C   UNL     1      -0.145  -0.083  -0.101  0.00  0.00    -0.050 A 
ATOM     27  C   UNL     1      -0.039  -0.795  -1.281  0.00  0.00    +0.007 A 
ATOM     28  C   UNL     1       0.017  -2.176  -1.253  0.00  0.00    -0.045 A 
ATOM     29  C   UNL     1      -0.033  -2.845  -0.044  0.00  0.00    -0.024 A 
ATOM     30  C   UNL     1      -0.139  -2.134   1.136  0.00  0.00    -0.045 A 
ATOM     31  C   UNL     1      -0.191  -0.752   1.108  0.00  0.00    +0.007 A 
ATOM     32  C   UNL     1      -0.195  -2.863   2.453  0.00  0.00    +0.044 C 
ATOM     33  C   UNL     1       0.133  -2.952  -2.540  0.00  0.00    +0.044 C 
ENDBRANCH  24  29
ENDBRANCH   1  24
TORSDOF 6
