REMARK  Name = ZINC40036778
REMARK  4 active torsions:
REMARK  status: ('A' for Active; 'I' for Inactive)
REMARK    1  A    between atoms: C_2  and  C_3
REMARK    2  A    between atoms: C_3  and  N_4
REMARK    3  A    between atoms: N_11  and  N_12
REMARK    4  A    between atoms: C_13  and  C_14
REMARK                            x       y       z     vdW  Elec       q    Type
REMARK                         _______ _______ _______ _____ _____    ______ ____
ROOT
ATOM      1  N   UNL     1      -1.318  -1.700  -1.126  0.00  0.00    -0.276 N 
ATOM      2  C   UNL     1      -1.821  -1.295  -2.312  0.00  0.00    +0.260 A 
ATOM      3  O   UNL     1      -2.280  -0.172  -2.444  0.00  0.00    -0.267 OA
ATOM      4  C   UNL     1      -1.805  -2.193  -3.388  0.00  0.00    +0.050 A 
ATOM      5  C   UNL     1      -1.272  -3.457  -3.196  0.00  0.00    +0.084 A 
ATOM      6  N   UNL     1      -0.816  -3.813  -1.990  0.00  0.00    -0.214 NA
ATOM      7  C   UNL     1      -0.828  -2.963  -0.984  0.00  0.00    +0.219 A 
ATOM      8  N   UNL     1      -0.341  -3.360   0.234  0.00  0.00    -0.206 N 
ATOM      9  C   UNL     1      -1.191  -4.386  -4.346  0.00  0.00    +0.004 A 
ATOM     10  C   UNL     1      -0.956  -5.745  -4.148  0.00  0.00    +0.010 A 
ATOM     11  C   UNL     1      -0.904  -6.595  -5.234  0.00  0.00    +0.001 A 
ATOM     12  C   UNL     1      -1.087  -6.099  -6.513  0.00  0.00    +0.000 A 
ATOM     13  C   UNL     1      -1.312  -4.749  -6.714  0.00  0.00    +0.004 A 
ATOM     14  C   UNL     1      -1.356  -3.887  -5.637  0.00  0.00    -0.037 A 
ATOM     15  C   UNL     1      -1.548  -2.410  -5.856  0.00  0.00    +0.047 C 
ATOM     16  C   UNL     1      -2.372  -1.798  -4.725  0.00  0.00    +0.007 C 
ATOM     17  C   UNL     1      -3.819  -2.290  -4.827  0.00  0.00    +0.012 C 
ATOM     18  C   UNL     1      -4.400  -1.884  -6.183  0.00  0.00    +0.001 C 
ATOM     19  C   UNL     1      -4.373  -0.360  -6.314  0.00  0.00    +0.000 C 
ATOM     20  C   UNL     1      -2.930   0.135  -6.207  0.00  0.00    +0.001 C 
ATOM     21  C   UNL     1      -2.350  -0.272  -4.851  0.00  0.00    +0.012 C 
ATOM     22  H   UNL     1      -0.347  -2.743   0.983  0.00  0.00    +0.177 HD
ENDROOT
BRANCH   8  23
ATOM     23  N   UNL     1       0.167  -4.655   0.397  0.00  0.00    -0.188 NA
ATOM     24  C   UNL     1       0.628  -5.031   1.551  0.00  0.00    +0.138 C 
BRANCH  24  25
ATOM     25  C   UNL     1       1.162  -6.394   1.722  0.00  0.00    -0.004 A 
ATOM     26  C   UNL     1       1.179  -7.283   0.644  0.00  0.00    +0.011 A 
ATOM     27  C   UNL     1       1.679  -8.556   0.810  0.00  0.00    +0.022 A 
ATOM     28  C   UNL     1       2.166  -8.957   2.044  0.00  0.00    +0.059 A 
ATOM     29  C   UNL     1       2.153  -8.082   3.118  0.00  0.00    +0.060 A 
ATOM     30  C   UNL     1       1.659  -6.802   2.962  0.00  0.00    +0.031 A 
ATOM     31 CL   UNL     1       2.764  -8.593   4.660  0.00  0.00    -0.082 Cl
ATOM     32 CL   UNL     1       2.794 -10.563   2.245  0.00  0.00    -0.082 Cl
ENDBRANCH  24  25
ENDBRANCH   8  23
BRANCH   1  33
ATOM     33  C   UNL     1      -1.293  -0.775   0.010  0.00  0.00    +0.155 C 
BRANCH  33  35
ATOM     34  C   UNL     1      -0.016   1.306   0.009  0.00  0.00    +0.005 C 
ATOM     35  C   UNL     1       0.002  -0.004   0.002  0.00  0.00    -0.013 C 
ENDBRANCH  33  35
ENDBRANCH   1  33
TORSDOF 4
