REMARK  Name = ZINC35225009
REMARK  3 active torsions:
REMARK  status: ('A' for Active; 'I' for Inactive)
REMARK    1  A    between atoms: C_7  and  N_12
REMARK    2  A    between atoms: N_12  and  C_13
REMARK    3  A    between atoms: C_18  and  N_19
REMARK                            x       y       z     vdW  Elec       q    Type
REMARK                         _______ _______ _______ _____ _____    ______ ____
ROOT
ATOM      1  N   UNL     1       0.008  -2.219   1.108  0.00  0.00    -0.335 N 
ATOM      2  H   UNL     1       0.303  -2.600   1.950  0.00  0.00    +0.147 HD
ENDROOT
BRANCH   1   9
ATOM      3  C   UNL     1      -1.225   1.751   1.149  0.00  0.00    +0.001 A 
ATOM      4  C   UNL     1      -0.264   2.717   1.384  0.00  0.00    +0.004 A 
ATOM      5  C   UNL     1       1.074   2.392   1.303  0.00  0.00    +0.046 A 
ATOM      6  C   UNL     1       1.461   1.094   0.983  0.00  0.00    +0.125 A 
ATOM      7  C   UNL     1       0.498   0.130   0.745  0.00  0.00    +0.014 A 
ATOM      8  C   UNL     1      -0.844   0.462   0.831  0.00  0.00    +0.009 A 
ATOM      9  C   UNL     1       0.874  -1.284   0.384  0.00  0.00    +0.107 C 
ATOM     10  C   UNL     1       2.333  -1.543   0.767  0.00  0.00    +0.068 C 
ATOM     11  C   UNL     1       3.183  -0.381   0.238  0.00  0.00    +0.231 C 
ATOM     12  O   UNL     1       2.788   0.811   0.917  0.00  0.00    -0.492 OA
ENDBRANCH   1   9
BRANCH   1  13
ATOM     13  C   UNL     1      -1.242  -2.560   0.587  0.00  0.00    +0.058 A 
ATOM     14  C   UNL     1      -1.613  -2.118  -0.677  0.00  0.00    +0.026 A 
ATOM     15  C   UNL     1      -2.850  -2.457  -1.190  0.00  0.00    +0.017 A 
ATOM     16  C   UNL     1      -3.719  -3.235  -0.447  0.00  0.00    +0.020 A 
ATOM     17  C   UNL     1      -3.353  -3.676   0.812  0.00  0.00    +0.050 A 
ATOM     18  C   UNL     1      -2.115  -3.346   1.328  0.00  0.00    +0.148 A 
ATOM     19 BR   UNL     1      -5.412  -3.696  -1.153  0.00  0.00    -0.050 Br
BRANCH  18  20
ATOM     20  N   UNL     1      -1.721  -3.824   2.672  0.00  0.00    +0.058 N 
ATOM     21  O   UNL     1      -0.580  -4.163   2.883  0.00  0.00    -0.126 OA
ATOM     22  O   UNL     1      -2.540  -3.875   3.560  0.00  0.00    -0.126 OA
ENDBRANCH  18  20
ENDBRANCH   1  13
TORSDOF 3
