REMARK  Name = ZINC31044053
REMARK  10 active torsions:
REMARK  status: ('A' for Active; 'I' for Inactive)
REMARK    1  A    between atoms: C_1  and  C_2
REMARK    2  A    between atoms: C_7  and  C_8
REMARK    3  A    between atoms: C_8  and  C_10
REMARK    4  A    between atoms: C_8  and  N_13
REMARK    5  A    between atoms: C_10  and  C_11
REMARK    6  A    between atoms: C_10  and  C_12
REMARK    7  A    between atoms: C_14  and  C_16
REMARK    8  A    between atoms: N_21  and  C_23
REMARK    9  A    between atoms: C_23  and  C_24
REMARK   10  A    between atoms: C_26  and  C_29
REMARK                            x       y       z     vdW  Elec       q    Type
REMARK                         _______ _______ _______ _____ _____    ______ ____
ROOT
ATOM      1  C   UNL     1      -2.620   0.983  -3.314  0.00  0.00    +0.058 C 
ATOM      2  C   UNL     1      -1.617   0.842  -4.463  0.00  0.00    +0.009 C 
ATOM      3  C   UNL     1      -2.346   1.047  -5.794  0.00  0.00    -0.018 C 
ATOM      4  C   UNL     1      -3.482   0.028  -5.910  0.00  0.00    -0.078 C 
ATOM      5  N   UNL     1      -4.414   0.204  -4.789  0.00  0.00    +0.386 N 
ATOM      6  C   UNL     1      -3.748  -0.034  -3.502  0.00  0.00    -0.065 C 
ATOM      7  H   UNL     1      -4.759   1.248  -4.800  0.00  0.00    -0.081 HD
ENDROOT
BRANCH   1   9
ATOM      8  N   UNL     1      -0.887   1.500  -1.627  0.00  0.00    -0.308 N 
ATOM      9  C   UNL     1      -1.923   0.725  -2.003  0.00  0.00    +0.215 C 
ATOM     10  O   UNL     1      -2.294  -0.181  -1.287  0.00  0.00    -0.276 OA
ATOM     11  H   UNL     1      -0.550   2.322  -2.277  0.00  0.00    +0.149 HD
BRANCH   8  12
ATOM     12  C   UNL     1      -0.209   1.250  -0.353  0.00  0.00    +0.106 C 
BRANCH  12  19
ATOM     13  C   UNL     1       1.817  -0.248  -1.765  0.00  0.00    +0.044 C 
ATOM     14  C   UNL     1       2.172   1.056  -1.099  0.00  0.00    -0.045 A 
ATOM     15  C   UNL     1       3.467   1.536  -1.163  0.00  0.00    +0.004 A 
ATOM     16  C   UNL     1       3.792   2.732  -0.552  0.00  0.00    +0.000 A 
ATOM     17  C   UNL     1       2.822   3.449   0.123  0.00  0.00    +0.000 A 
ATOM     18  C   UNL     1       1.526   2.972   0.184  0.00  0.00    +0.006 A 
ATOM     19  C   UNL     1       1.202   1.772  -0.423  0.00  0.00    -0.024 A 
ENDBRANCH  12  19
BRANCH  12  20
ATOM     20  C   UNL     1      -0.961   1.961   0.774  0.00  0.00    +0.008 C 
ATOM     21  C   UNL     1      -2.428   1.525   0.763  0.00  0.00    +0.009 C 
ATOM     22  C   UNL     1      -0.331   1.595   2.119  0.00  0.00    +0.009 C 
ENDBRANCH  12  20
ENDBRANCH   8  12
ENDBRANCH   1   9
BRANCH   5  23
ATOM     23  C   UNL     1      -5.590  -0.664  -4.941  0.00  0.00    +0.022 C 
BRANCH  23  24
ATOM     24  C   UNL     1      -5.167  -2.106  -4.834  0.00  0.00    +0.211 A 
ATOM     25  N   UNL     1      -5.103  -2.818  -3.736  0.00  0.00    -0.193 NA
ATOM     26  C   UNL     1      -4.681  -4.043  -4.122  0.00  0.00    +0.202 A 
ATOM     27  N   UNL     1      -4.508  -4.002  -5.418  0.00  0.00    -0.056 NA
ATOM     28  O   UNL     1      -4.783  -2.898  -5.839  0.00  0.00    -0.340 OA
BRANCH  26  29
ATOM     29  C   UNL     1      -4.452  -5.215  -3.240  0.00  0.00    +0.023 A 
ATOM     30  C   UNL     1      -4.675  -5.111  -1.869  0.00  0.00    +0.013 A 
ATOM     31  C   UNL     1      -4.466  -6.205  -1.053  0.00  0.00    +0.016 A 
ATOM     32  C   UNL     1      -4.026  -7.400  -1.595  0.00  0.00    +0.018 A 
ATOM     33  C   UNL     1      -3.798  -7.507  -2.956  0.00  0.00    +0.016 A 
ATOM     34  C   UNL     1      -4.009  -6.421  -3.780  0.00  0.00    +0.013 A 
ATOM     35 BR   UNL     1      -3.735  -8.893  -0.471  0.00  0.00    -0.050 Br
ENDBRANCH  26  29
ENDBRANCH  23  24
ENDBRANCH   5  23
TORSDOF 7
