REMARK  Name = ZINC48560061
REMARK  3 active torsions:
REMARK  status: ('A' for Active; 'I' for Inactive)
REMARK    1  A    between atoms: C_3  and  N_19
REMARK    2  A    between atoms: C_6  and  N_7
REMARK    3  A    between atoms: N_7  and  C_8
REMARK                            x       y       z     vdW  Elec       q    Type
REMARK                         _______ _______ _______ _____ _____    ______ ____
ROOT
ATOM      1  N   UNL     1      -1.197  -0.720   0.010  0.00  0.00    -0.343 N 
ATOM      2  H   UNL     1      -2.044  -0.248   0.021  0.00  0.00    +0.146 HD
ENDROOT
BRANCH   1   3
ATOM      3  C   UNL     1      -1.175  -2.185   0.002  0.00  0.00    +0.055 C 
ATOM      4  C   UNL     1      -1.139  -2.717  -1.445  0.00  0.00    +0.002 C 
ATOM      5  C   UNL     1      -1.967  -4.012  -1.402  0.00  0.00    -0.077 C 
ATOM      6  N   UNL     1      -2.791  -3.977  -0.188  0.00  0.00    +0.383 N 
ATOM      7  C   UNL     1      -2.488  -2.747   0.578  0.00  0.00    -0.048 C 
ATOM      8  C   UNL     1      -3.634  -1.764   0.233  0.00  0.00    -0.015 C 
ATOM      9  C   UNL     1      -4.848  -2.719   0.092  0.00  0.00    -0.020 C 
ATOM     10  C   UNL     1      -4.221  -3.986  -0.537  0.00  0.00    -0.078 C 
ATOM     11  H   UNL     1      -2.579  -4.778   0.388  0.00  0.00    -0.081 HD
ENDBRANCH   1   3
BRANCH   1  17
ATOM     12  C   UNL     1      -0.017   1.385   0.010  0.00  0.00    +0.025 A 
ATOM     13  C   UNL     1       1.171   2.090   0.002  0.00  0.00    +0.035 A 
ATOM     14  C   UNL     1       2.377   1.416  -0.013  0.00  0.00    +0.139 A 
ATOM     15  C   UNL     1       2.400   0.032  -0.021  0.00  0.00    +0.045 A 
ATOM     16  C   UNL     1       1.216  -0.679  -0.014  0.00  0.00    +0.039 A 
ATOM     17  C   UNL     1       0.002  -0.004   0.002  0.00  0.00    +0.028 A 
ATOM     18  I   UNL     1       4.232  -0.984  -0.045  0.00  0.00    -0.041 I 
BRANCH  14  19
ATOM     19  N   UNL     1       3.648   2.175  -0.022  0.00  0.00    +0.057 N 
ATOM     20  O   UNL     1       3.630   3.384  -0.016  0.00  0.00    -0.126 OA
ATOM     21  O   UNL     1       4.704   1.587  -0.036  0.00  0.00    -0.126 OA
ENDBRANCH  14  19
ENDBRANCH   1  17
TORSDOF 3
