REMARK  Name = ZINC02074296
REMARK  16 active torsions:
REMARK  status: ('A' for Active; 'I' for Inactive)
REMARK    1  A    between atoms: C_1  and  C_2
REMARK    2  A    between atoms: C_2  and  C_3
REMARK    3  A    between atoms: C_3  and  C_4
REMARK    4  A    between atoms: C_4  and  O_5
REMARK    5  A    between atoms: O_5  and  C_6
REMARK    6  A    between atoms: C_6  and  C_8
REMARK    7  A    between atoms: C_9  and  C_40
REMARK    8  A    between atoms: C_13  and  C_15
REMARK    9  A    between atoms: C_18  and  O_23
REMARK   10  A    between atoms: C_19  and  O_21
REMARK   11  A    between atoms: O_21  and  C_22
REMARK   12  A    between atoms: C_27  and  C_30
REMARK   13  A    between atoms: C_33  and  O_38
REMARK   14  A    between atoms: C_34  and  O_36
REMARK   15  A    between atoms: O_36  and  C_37
REMARK   16  A    between atoms: O_38  and  C_39
REMARK                            x       y       z     vdW  Elec       q    Type
REMARK                         _______ _______ _______ _____ _____    ______ ____
ROOT
ATOM      1  C   UNL     1      -1.194   2.154   0.019  0.00  0.00    +0.065 C 
ATOM      2  C   UNL     1      -0.018   1.503   0.010  0.00  0.00    +0.016 C 
ATOM      3  N   UNL     1       1.159   2.198   0.003  0.00  0.00    -0.321 N 
ATOM      4  C   UNL     1       1.192   3.511  -0.382  0.00  0.00    +0.016 C 
ATOM      5  C   UNL     1       0.063   4.251  -0.392  0.00  0.00    +0.024 C 
ATOM      6  C   UNL     1      -1.253   3.654   0.041  0.00  0.00    +0.092 C 
ATOM      7  C   UNL     1       0.080   5.596  -0.800  0.00  0.00    +0.162 C 
ATOM      8  O   UNL     1      -0.953   6.236  -0.789  0.00  0.00    -0.292 OA
ATOM      9  C   UNL     1       1.354   6.257  -1.251  0.00  0.00    +0.088 C 
ATOM     10  C   UNL     1       2.285   5.195  -1.844  0.00  0.00    +0.032 C 
ATOM     11  C   UNL     1       2.515   4.109  -0.790  0.00  0.00    +0.059 C 
ATOM     12  C   UNL     1       0.002  -0.004   0.002  0.00  0.00    +0.061 C 
ATOM     13  H   UNL     1       2.092   1.702   0.308  0.00  0.00    +0.152 HD
ENDROOT
BRANCH   6  14
ATOM     14  C   UNL     1      -1.573   4.121   1.437  0.00  0.00    -0.032 A 
ATOM     15  C   UNL     1      -0.713   3.825   2.478  0.00  0.00    +0.008 A 
ATOM     16  C   UNL     1      -1.000   4.256   3.760  0.00  0.00    +0.049 A 
ATOM     17  C   UNL     1      -2.157   4.977   4.005  0.00  0.00    +0.158 A 
ATOM     18  C   UNL     1      -3.026   5.270   2.959  0.00  0.00    +0.162 A 
ATOM     19  C   UNL     1      -2.730   4.840   1.675  0.00  0.00    +0.054 A 
BRANCH  18  20
ATOM     20  O   UNL     1      -4.163   5.978   3.195  0.00  0.00    -0.491 OA
ATOM     21  C   UNL     1      -5.008   6.241   2.073  0.00  0.00    +0.277 C 
ENDBRANCH  18  20
BRANCH  17  22
ATOM     22  O   UNL     1      -2.444   5.397   5.267  0.00  0.00    -0.503 OA
ATOM     23  H   UNL     1      -3.363   5.969   5.460  0.00  0.00    +0.292 HD
ENDBRANCH  17  22
ENDBRANCH   6  14
BRANCH  10  24
ATOM     24  C   UNL     1       3.602   5.827  -2.216  0.00  0.00    -0.040 A 
ATOM     25  C   UNL     1       4.359   6.462  -1.249  0.00  0.00    +0.008 A 
ATOM     26  C   UNL     1       5.571   7.038  -1.584  0.00  0.00    +0.049 A 
ATOM     27  C   UNL     1       6.022   6.989  -2.893  0.00  0.00    +0.161 A 
ATOM     28  C   UNL     1       5.258   6.355  -3.867  0.00  0.00    +0.162 A 
ATOM     29  C   UNL     1       4.047   5.774  -3.523  0.00  0.00    +0.053 A 
BRANCH  28  30
ATOM     30  O   UNL     1       5.697   6.304  -5.153  0.00  0.00    -0.491 OA
ATOM     31  C   UNL     1       4.860   5.635  -6.098  0.00  0.00    +0.277 C 
ENDBRANCH  28  30
BRANCH  27  32
ATOM     32  O   UNL     1       7.211   7.561  -3.225  0.00  0.00    -0.491 OA
ATOM     33  C   UNL     1       7.942   8.195  -2.174  0.00  0.00    +0.277 C 
ENDBRANCH  27  32
ENDBRANCH  10  24
BRANCH   1  34
ATOM     34  C   UNL     1      -2.398   1.413   0.014  0.00  0.00    +0.338 C 
ATOM     35  O   UNL     1      -2.364   0.196   0.001  0.00  0.00    -0.245 OA
BRANCH  34  36
ATOM     36  O   UNL     1      -3.586   2.054   0.023  0.00  0.00    -0.461 OA
BRANCH  36  37
ATOM     37  C   UNL     1      -4.762   1.242   0.017  0.00  0.00    +0.232 C 
BRANCH  37  38
ATOM     38  C   UNL     1      -6.001   2.139   0.029  0.00  0.00    +0.041 C 
BRANCH  38  40
ATOM     39  C   UNL     1      -8.499   2.167   0.034  0.00  0.00    +0.004 C 
ATOM     40  C   UNL     1      -7.260   1.270   0.022  0.00  0.00    -0.000 C 
ENDBRANCH  38  40
ENDBRANCH  37  38
ENDBRANCH  36  37
ENDBRANCH  34  36
ENDBRANCH   1  34
TORSDOF 11
