REMARK  Name = ZINC32694181
REMARK  9 active torsions:
REMARK  status: ('A' for Active; 'I' for Inactive)
REMARK    1  A    between atoms: C_1  and  C_2
REMARK    2  A    between atoms: N_5  and  C_7
REMARK    3  A    between atoms: C_7  and  C_8
REMARK    4  A    between atoms: C_8  and  C_9
REMARK    5  A    between atoms: C_15  and  C_24
REMARK    6  A    between atoms: C_15  and  C_25
REMARK    7  A    between atoms: N_22  and  C_23
REMARK    8  A    between atoms: P_26  and  N_28
REMARK    9  A    between atoms: N_28  and  C_29
REMARK                            x       y       z     vdW  Elec       q    Type
REMARK                         _______ _______ _______ _____ _____    ______ ____
ROOT
ATOM      1  C   UNL     1      -2.793  11.873   0.189  0.00  0.00    +0.068 C 
ATOM      2  C   UNL     1      -3.824  10.790   0.002  0.00  0.00    +0.072 A 
ATOM      3  C   UNL     1      -3.568   9.451  -0.135  0.00  0.00    +0.069 A 
ATOM      4  C   UNL     1      -4.770   8.758  -0.289  0.00  0.00    +0.161 A 
ATOM      5  N   UNL     1      -5.743   9.721  -0.240  0.00  0.00    -0.245 N 
ATOM      6  N   UNL     1      -5.125  10.965  -0.059  0.00  0.00    -0.174 NA
ATOM      7  N   UNL     1      -4.811   7.427  -0.443  0.00  0.00    -0.235 NA
ATOM      8  C   UNL     1      -3.976   6.455  -0.508  0.00  0.00    +0.125 C 
ATOM      9  C   UNL     1      -2.558   6.607  -0.395  0.00  0.00    +0.039 C 
ATOM     10  C   UNL     1      -1.676   5.586  -0.456  0.00  0.00    +0.032 C 
ATOM     11  C   UNL     1      -0.217   5.675  -0.852  0.00  0.00    +0.031 C 
ATOM     12  C   UNL     1       0.283   4.253  -0.746  0.00  0.00    -0.015 A 
ATOM     13  C   UNL     1       1.516   3.681  -0.973  0.00  0.00    +0.006 A 
ATOM     14  C   UNL     1       1.689   2.320  -0.792  0.00  0.00    +0.000 A 
ATOM     15  C   UNL     1       0.623   1.538  -0.384  0.00  0.00    +0.002 A 
ATOM     16  C   UNL     1      -0.613   2.107  -0.161  0.00  0.00    +0.024 A 
ATOM     17  C   UNL     1      -0.795   3.479  -0.336  0.00  0.00    +0.038 A 
ATOM     18  N   UNL     1      -1.929   4.272  -0.172  0.00  0.00    -0.305 N 
ATOM     19  C   UNL     1      -3.234   3.760   0.252  0.00  0.00    +0.135 C 
ATOM     20  C   UNL     1       0.545   6.584   0.115  0.00  0.00    +0.022 C 
ATOM     21  C   UNL     1      -0.079   6.186  -2.287  0.00  0.00    +0.022 C 
ATOM     22  P   UNL     1      -2.086   8.377  -0.165  0.00  0.00    +0.073 P 
ATOM     23  S   UNL     1      -0.978   8.904  -1.567  0.00  0.00    -0.036 S 
ENDROOT
BRANCH  22  24
ATOM     24  N   UNL     1      -1.275   8.539   1.252  0.00  0.00    -0.312 N 
ATOM     25  H   UNL     1      -0.240   8.912   1.254  0.00  0.00    +0.152 HD
BRANCH  24  26
ATOM     26  C   UNL     1      -1.899   8.203   2.456  0.00  0.00    +0.031 A 
ATOM     27  C   UNL     1      -3.197   7.709   2.453  0.00  0.00    +0.023 A 
ATOM     28  C   UNL     1      -3.810   7.373   3.644  0.00  0.00    +0.002 A 
ATOM     29  C   UNL     1      -3.135   7.538   4.840  0.00  0.00    +0.000 A 
ATOM     30  C   UNL     1      -1.845   8.035   4.847  0.00  0.00    +0.002 A 
ATOM     31  C   UNL     1      -1.225   8.367   3.659  0.00  0.00    +0.023 A 
ENDBRANCH  24  26
ENDBRANCH  22  24
BRANCH   5  32
ATOM     32  C   UNL     1      -7.185   9.490  -0.356  0.00  0.00    +0.160 C 
BRANCH  32  33
ATOM     33  C   UNL     1      -7.598   9.573  -1.827  0.00  0.00    +0.142 C 
BRANCH  33  34
ATOM     34  C   UNL     1      -9.047   9.340  -1.943  0.00  0.00    +0.064 C 
ATOM     35  N   UNL     1     -10.165   9.161  -2.033  0.00  0.00    -0.197 NA
ENDBRANCH  33  34
ENDBRANCH  32  33
ENDBRANCH   5  32
TORSDOF 5
