REMARK  Name = ZINC64890110
REMARK  6 active torsions:
REMARK  status: ('A' for Active; 'I' for Inactive)
REMARK    1  A    between atoms: C_1  and  C_2
REMARK    2  A    between atoms: C_2  and  C_3
REMARK    3  A    between atoms: C_10  and  S_15
REMARK    4  A    between atoms: S_15  and  N_18
REMARK    5  A    between atoms: C_24  and  C_26
REMARK    6  A    between atoms: C_27  and  C_28
REMARK                            x       y       z     vdW  Elec       q    Type
REMARK                         _______ _______ _______ _____ _____    ______ ____
ROOT
ATOM      1  S   UNL     1      -4.842  -3.261   3.658  0.00  0.00    +0.061 S 
ATOM      2  O   UNL     1      -5.909  -2.331   3.780  0.00  0.00    -0.153 OA
ATOM      3  O   UNL     1      -4.880  -4.348   2.743  0.00  0.00    -0.153 OA
ENDROOT
BRANCH   1  10
ATOM      4  C   UNL     1       0.728  -0.507   1.237  0.00  0.00    +0.259 C 
ATOM      5  C   UNL     1       0.860  -2.007   1.166  0.00  0.00    +0.258 C 
ATOM      6  O   UNL     1       1.851  -2.509   0.679  0.00  0.00    -0.271 OA
ATOM      7  N   UNL     1      -0.129  -2.790   1.646  0.00  0.00    -0.279 N 
ATOM      8  C   UNL     1      -1.206  -2.195   2.317  0.00  0.00    +0.078 A 
ATOM      9  C   UNL     1      -2.341  -2.931   2.620  0.00  0.00    +0.055 A 
ATOM     10  C   UNL     1      -3.400  -2.326   3.271  0.00  0.00    +0.107 A 
ATOM     11  C   UNL     1      -3.331  -0.990   3.619  0.00  0.00    +0.032 A 
ATOM     12  C   UNL     1      -2.200  -0.251   3.323  0.00  0.00    +0.049 A 
ATOM     13  C   UNL     1      -1.132  -0.851   2.678  0.00  0.00    +0.143 A 
ATOM     14  O   UNL     1      -0.003  -0.144   2.410  0.00  0.00    -0.478 OA
ATOM     15  H   UNL     1      -0.096  -3.752   1.527  0.00  0.00    +0.155 HD
BRANCH   4  17
ATOM     16  C   UNL     1      -0.037   1.528   0.006  0.00  0.00    +0.008 C 
ATOM     17  C   UNL     1      -0.013  -0.002  -0.002  0.00  0.00    +0.051 C 
ENDBRANCH   4  17
ENDBRANCH   1  10
BRANCH   1  18
ATOM     18  N   UNL     1      -4.612  -3.917   5.161  0.00  0.00    -0.174 NA
ATOM     19  C   UNL     1      -3.980  -5.235   5.313  0.00  0.00    +0.128 C 
ATOM     20  C   UNL     1      -2.773  -5.095   6.250  0.00  0.00    +0.125 C 
ATOM     21  N   UNL     1      -3.197  -4.369   7.456  0.00  0.00    -0.295 N 
ATOM     22  C   UNL     1      -3.829  -3.051   7.304  0.00  0.00    +0.125 C 
ATOM     23  C   UNL     1      -5.030  -3.189   6.367  0.00  0.00    +0.128 C 
ATOM     24  C   UNL     1      -3.010  -4.903   8.679  0.00  0.00    +0.240 C 
ATOM     25  O   UNL     1      -3.278  -4.255   9.674  0.00  0.00    -0.271 OA
BRANCH  24  26
ATOM     26  C   UNL     1      -2.483  -6.262   8.812  0.00  0.00    +0.068 C 
ATOM     27  C   UNL     1      -2.391  -6.834  10.029  0.00  0.00    +0.014 C 
BRANCH  27  28
ATOM     28  C   UNL     1      -1.862  -8.201  10.163  0.00  0.00    -0.007 A 
ATOM     29  C   UNL     1      -1.446  -8.907   9.029  0.00  0.00    +0.009 A 
ATOM     30  C   UNL     1      -0.951 -10.187   9.162  0.00  0.00    +0.001 A 
ATOM     31  C   UNL     1      -0.863 -10.773  10.413  0.00  0.00    +0.001 A 
ATOM     32  C   UNL     1      -1.272 -10.082  11.540  0.00  0.00    +0.020 A 
ATOM     33  C   UNL     1      -1.766  -8.798  11.425  0.00  0.00    +0.048 A 
ATOM     34 CL   UNL     1      -2.272  -7.929  12.840  0.00  0.00    -0.083 Cl
ENDBRANCH  27  28
ENDBRANCH  24  26
ENDBRANCH   1  18
TORSDOF 5
