REMARK  Name = ZINC39690471
REMARK  9 active torsions:
REMARK  status: ('A' for Active; 'I' for Inactive)
REMARK    1  A    between atoms: C_1  and  C_2
REMARK    2  A    between atoms: C_5  and  N_9
REMARK    3  A    between atoms: C_7  and  C_8
REMARK    4  A    between atoms: C_10  and  C_33
REMARK    5  A    between atoms: C_13  and  S_14
REMARK    6  A    between atoms: S_14  and  C_15
REMARK    7  A    between atoms: C_15  and  C_16
REMARK    8  A    between atoms: C_22  and  C_30
REMARK    9  A    between atoms: C_24  and  C_29
REMARK                            x       y       z     vdW  Elec       q    Type
REMARK                         _______ _______ _______ _____ _____    ______ ____
ROOT
ATOM      1  N   UNL     1      -0.043  -5.442   0.891  0.00  0.00    -0.270 N 
ATOM      2  C   UNL     1      -0.920  -6.415   0.464  0.00  0.00    +0.169 A 
ATOM      3  N   UNL     1      -0.268  -7.554   0.479  0.00  0.00    -0.128 NA
ATOM      4  N   UNL     1       0.938  -7.366   0.881  0.00  0.00    -0.122 NA
ATOM      5  C   UNL     1       1.134  -6.093   1.142  0.00  0.00    +0.197 A 
ENDROOT
BRANCH   1  10
ATOM      6  C   UNL     1      -1.089   0.106   1.468  0.00  0.00    +0.044 C 
ATOM      7  C   UNL     1      -0.811  -1.367   1.315  0.00  0.00    -0.047 A 
ATOM      8  C   UNL     1      -0.849  -1.949   0.061  0.00  0.00    +0.005 A 
ATOM      9  C   UNL     1      -0.594  -3.299  -0.082  0.00  0.00    +0.026 A 
ATOM     10  C   UNL     1      -0.301  -4.072   1.034  0.00  0.00    +0.051 A 
ATOM     11  C   UNL     1      -0.263  -3.484   2.291  0.00  0.00    +0.030 A 
ATOM     12  C   UNL     1      -0.513  -2.132   2.428  0.00  0.00    -0.046 A 
ATOM     13  C   UNL     1      -0.467  -1.492   3.791  0.00  0.00    +0.044 C 
ENDBRANCH   1  10
BRANCH   2  14
ATOM     14  C   UNL     1      -2.328  -6.213   0.063  0.00  0.00    +0.020 A 
ATOM     15  C   UNL     1      -2.984  -5.022   0.380  0.00  0.00    +0.011 A 
ATOM     16  C   UNL     1      -4.298  -4.841   0.003  0.00  0.00    +0.001 A 
ATOM     17  C   UNL     1      -4.967  -5.837  -0.687  0.00  0.00    +0.000 A 
ATOM     18  C   UNL     1      -4.323  -7.019  -1.004  0.00  0.00    +0.001 A 
ATOM     19  C   UNL     1      -3.007  -7.211  -0.639  0.00  0.00    +0.011 A 
ENDBRANCH   2  14
BRANCH   5  20
ATOM     20  S   UNL     1       2.632  -5.361   1.713  0.00  0.00    -0.078 S 
BRANCH  20  21
ATOM     21  C   UNL     1       3.784  -6.758   1.836  0.00  0.00    +0.151 C 
BRANCH  21  22
ATOM     22  C   UNL     1       5.122  -6.264   2.320  0.00  0.00    +0.124 A 
ATOM     23  N   UNL     1       6.125  -7.150   2.481  0.00  0.00    -0.310 N 
ATOM     24  C   UNL     1       7.336  -6.725   2.906  0.00  0.00    +0.259 A 
ATOM     25  O   UNL     1       8.258  -7.512   3.053  0.00  0.00    -0.267 OA
ATOM     26  C   UNL     1       7.507  -5.365   3.174  0.00  0.00    +0.096 A 
ATOM     27  H   UNL     1       5.978  -8.090   2.292  0.00  0.00    +0.170 HD
ATOM     28  C   UNL     1       8.691  -4.545   3.638  0.00  0.00    +0.183 C 
ATOM     29  C   UNL     1       8.225  -3.105   3.313  0.00  0.00    +0.191 C 
ATOM     30  O   UNL     1       6.792  -3.227   3.330  0.00  0.00    -0.472 OA
ATOM     31  C   UNL     1       6.446  -4.496   3.006  0.00  0.00    +0.226 A 
ATOM     32  N   UNL     1       5.274  -4.993   2.565  0.00  0.00    -0.199 NA
ATOM     33  C   UNL     1       8.702  -2.125   4.386  0.00  0.00    +0.053 C 
BRANCH  28  34
ATOM     34  C   UNL     1       8.920  -4.717   5.118  0.00  0.00    +0.367 C 
ATOM     35  O   UNL     1      10.043  -4.937   5.540  0.00  0.00    -0.246 OA
ATOM     36  O   UNL     1       7.982  -4.637   5.893  0.00  0.00    -0.246 OA
ENDBRANCH  28  34
ENDBRANCH  21  22
ENDBRANCH  20  21
ENDBRANCH   5  20
TORSDOF 6
