REMARK  Name = ZINC45606026
REMARK  8 active torsions:
REMARK  status: ('A' for Active; 'I' for Inactive)
REMARK    1  A    between atoms: C_1  and  C_2
REMARK    2  A    between atoms: C_2  and  N_3
REMARK    3  A    between atoms: N_3  and  C_4
REMARK    4  A    between atoms: N_3  and  C_20
REMARK    5  A    between atoms: C_4  and  C_5
REMARK    6  A    between atoms: C_20  and  C_21
REMARK    7  A    between atoms: N_23  and  C_24
REMARK    8  A    between atoms: C_29  and  C_30
REMARK                            x       y       z     vdW  Elec       q    Type
REMARK                         _______ _______ _______ _____ _____    ______ ____
ROOT
ATOM      1  N   UNL     1       0.799  -0.604  -1.375  0.00  0.00    +0.390 N 
ATOM      2  H   UNL     1       0.305  -0.063  -2.069  0.00  0.00    -0.081 HD
ENDROOT
BRANCH   1   4
ATOM      3  C   UNL     1       0.500   1.298   0.138  0.00  0.00    -0.017 C 
ATOM      4  C   UNL     1       0.343  -0.214  -0.035  0.00  0.00    -0.081 C 
ENDBRANCH   1   4
BRANCH   1   5
ATOM      5  C   UNL     1       0.533  -2.033  -1.587  0.00  0.00    -0.001 C 
BRANCH   5   6
ATOM      6  C   UNL     1      -0.955  -2.272  -1.587  0.00  0.00    +0.116 A 
ATOM      7  N   UNL     1      -1.566  -2.543  -0.447  0.00  0.00    -0.219 NA
ATOM      8  C   UNL     1      -2.869  -2.762  -0.381  0.00  0.00    +0.128 A 
ATOM      9  C   UNL     1      -3.642  -2.704  -1.574  0.00  0.00    +0.051 A 
ATOM     10  C   UNL     1      -5.085  -2.910  -1.738  0.00  0.00    -0.025 A 
ATOM     11  C   UNL     1      -5.573  -2.804  -2.990  0.00  0.00    -0.004 A 
ATOM     12  S   UNL     1      -4.170  -2.419  -4.006  0.00  0.00    -0.073 S 
ATOM     13  C   UNL     1      -2.922  -2.410  -2.748  0.00  0.00    +0.114 A 
ATOM     14  N   UNL     1      -1.620  -2.200  -2.724  0.00  0.00    -0.227 NA
ATOM     15  C   UNL     1      -6.989  -2.982  -3.442  0.00  0.00    +0.043 C 
ATOM     16  C   UNL     1      -7.917  -2.159  -2.538  0.00  0.00    +0.005 C 
ATOM     17  C   UNL     1      -8.340  -3.032  -1.361  0.00  0.00    +0.001 C 
ATOM     18  C   UNL     1      -7.211  -3.991  -0.990  0.00  0.00    +0.005 C 
ATOM     19  C   UNL     1      -5.978  -3.217  -0.539  0.00  0.00    +0.037 C 
ATOM     20  N   UNL     1      -3.472  -3.043   0.832  0.00  0.00    -0.343 N 
ATOM     21  H   UNL     1      -4.384  -2.758   0.998  0.00  0.00    +0.144 HD
ATOM     22  H   UNL     1      -2.982  -3.525   1.517  0.00  0.00    +0.144 HD
ENDBRANCH   5   6
ENDBRANCH   1   5
BRANCH   1  23
ATOM     23  C   UNL     1       2.242  -0.352  -1.495  0.00  0.00    +0.019 C 
BRANCH  23  24
ATOM     24  C   UNL     1       2.679  -0.595  -2.916  0.00  0.00    +0.201 C 
ATOM     25  O   UNL     1       1.852  -0.829  -3.773  0.00  0.00    -0.278 OA
ATOM     26  N   UNL     1       3.987  -0.552  -3.236  0.00  0.00    -0.287 N 
ATOM     27  H   UNL     1       4.653  -0.436  -2.540  0.00  0.00    +0.155 HD
BRANCH  26  28
ATOM     28  C   UNL     1       4.385  -0.676  -4.572  0.00  0.00    +0.045 A 
ATOM     29  C   UNL     1       3.588  -1.367  -5.475  0.00  0.00    +0.024 A 
ATOM     30  C   UNL     1       3.984  -1.487  -6.792  0.00  0.00    +0.002 A 
ATOM     31  C   UNL     1       5.173  -0.920  -7.213  0.00  0.00    +0.001 A 
ATOM     32  C   UNL     1       5.969  -0.232  -6.316  0.00  0.00    +0.014 A 
ATOM     33  C   UNL     1       5.576  -0.102  -4.999  0.00  0.00    +0.076 A 
BRANCH  33  34
ATOM     34  C   UNL     1       6.441   0.654  -4.024  0.00  0.00    +0.419 C 
ATOM     35  F   UNL     1       7.577   1.135  -4.684  0.00  0.00    -0.166 F 
ATOM     36  F   UNL     1       5.718   1.730  -3.497  0.00  0.00    -0.166 F 
ATOM     37  F   UNL     1       6.830  -0.199  -2.986  0.00  0.00    -0.166 F 
ENDBRANCH  33  34
ENDBRANCH  26  28
ENDBRANCH  23  24
ENDBRANCH   1  23
TORSDOF 7
