REMARK  Name = ZINC38943135
REMARK  5 active torsions:
REMARK  status: ('A' for Active; 'I' for Inactive)
REMARK    1  A    between atoms: C_1  and  C_2
REMARK    2  A    between atoms: C_2  and  N_3
REMARK    3  A    between atoms: C_14  and  N_19
REMARK    4  A    between atoms: C_20  and  C_22
REMARK    5  A    between atoms: N_27  and  C_29
REMARK                            x       y       z     vdW  Elec       q    Type
REMARK                         _______ _______ _______ _____ _____    ______ ____
ROOT
ATOM      1  N   UNL     1      -1.334  -0.534   0.014  0.00  0.00    -0.264 N 
ATOM      2  C   UNL     1      -1.918  -0.747   1.262  0.00  0.00    +0.079 A 
ATOM      3  C   UNL     1      -1.146  -1.293   2.282  0.00  0.00    +0.027 A 
ATOM      4  C   UNL     1      -1.688  -1.490   3.537  0.00  0.00    +0.002 A 
ATOM      5  C   UNL     1      -3.002  -1.142   3.787  0.00  0.00    +0.004 A 
ATOM      6  C   UNL     1      -3.780  -0.608   2.776  0.00  0.00    +0.048 A 
ATOM      7  C   UNL     1      -3.246  -0.420   1.509  0.00  0.00    +0.150 A 
ATOM      8  O   UNL     1      -4.051   0.043   0.521  0.00  0.00    -0.453 OA
ATOM      9  C   UNL     1      -4.317  -0.770  -0.527  0.00  0.00    +0.141 A 
ATOM     10  C   UNL     1      -5.623  -1.169  -0.774  0.00  0.00    +0.049 A 
ATOM     11  C   UNL     1      -5.902  -2.022  -1.823  0.00  0.00    +0.027 A 
ATOM     12  C   UNL     1      -4.878  -2.489  -2.638  0.00  0.00    +0.034 A 
ATOM     13  C   UNL     1      -3.572  -2.090  -2.411  0.00  0.00    +0.040 A 
ATOM     14  C   UNL     1      -3.284  -1.214  -1.360  0.00  0.00    +0.081 A 
ATOM     15  C   UNL     1      -1.909  -0.735  -1.164  0.00  0.00    +0.255 C 
ATOM     16  O   UNL     1      -1.245  -0.511  -2.158  0.00  0.00    -0.270 OA
ENDROOT
BRANCH  12  17
ATOM     17  N   UNL     1      -5.167  -3.367  -3.692  0.00  0.00    -0.285 N 
ATOM     18  C   UNL     1      -6.143  -4.286  -3.555  0.00  0.00    +0.222 C 
ATOM     19  O   UNL     1      -6.825  -4.301  -2.552  0.00  0.00    -0.275 OA
ATOM     20  H   UNL     1      -4.665  -3.312  -4.520  0.00  0.00    +0.155 HD
BRANCH  18  21
ATOM     21  C   UNL     1      -6.388  -5.294  -4.648  0.00  0.00    +0.102 C 
ATOM     22  C   UNL     1      -5.169  -6.230  -4.820  0.00  0.00    +0.110 C 
ATOM     23  C   UNL     1      -5.488  -7.420  -3.942  0.00  0.00    +0.221 C 
ATOM     24  O   UNL     1      -4.682  -8.248  -3.574  0.00  0.00    -0.275 OA
ATOM     25  N   UNL     1      -6.796  -7.427  -3.630  0.00  0.00    -0.271 N 
ATOM     26  C   UNL     1      -7.496  -6.291  -4.243  0.00  0.00    +0.127 C 
BRANCH  25  27
ATOM     27  C   UNL     1      -7.411  -8.393  -2.824  0.00  0.00    +0.036 A 
ATOM     28  C   UNL     1      -6.643  -9.361  -2.191  0.00  0.00    +0.026 A 
ATOM     29  C   UNL     1      -7.252 -10.313  -1.397  0.00  0.00    +0.040 A 
ATOM     30  C   UNL     1      -8.627 -10.302  -1.232  0.00  0.00    +0.124 A 
ATOM     31  C   UNL     1      -9.394  -9.337  -1.862  0.00  0.00    +0.040 A 
ATOM     32  C   UNL     1      -8.789  -8.380  -2.653  0.00  0.00    +0.026 A 
ATOM     33  F   UNL     1      -9.220 -11.235  -0.455  0.00  0.00    -0.205 F 
ENDBRANCH  25  27
ENDBRANCH  18  21
ENDBRANCH  12  17
BRANCH   1  35
ATOM     34  C   UNL     1       0.033   1.494   0.008  0.00  0.00    +0.025 C 
ATOM     35  C   UNL     1       0.044  -0.036   0.004  0.00  0.00    +0.111 C 
ENDBRANCH   1  35
TORSDOF 4
