REMARK  Name = ZINC31037102
REMARK  10 active torsions:
REMARK  status: ('A' for Active; 'I' for Inactive)
REMARK    1  A    between atoms: C_1  and  N_2
REMARK    2  A    between atoms: N_2  and  C_3
REMARK    3  A    between atoms: N_2  and  C_15
REMARK    4  A    between atoms: C_3  and  C_4
REMARK    5  A    between atoms: N_6  and  C_7
REMARK    6  A    between atoms: C_12  and  S_13
REMARK    7  A    between atoms: S_13  and  C_14
REMARK    8  A    between atoms: C_15  and  C_16
REMARK    9  A    between atoms: C_19  and  C_29
REMARK   10  A    between atoms: C_22  and  C_24
REMARK                            x       y       z     vdW  Elec       q    Type
REMARK                         _______ _______ _______ _____ _____    ______ ____
ROOT
ATOM      1  C   UNL     1      -4.643  -3.254  -0.655  0.00  0.00    +0.021 C 
ENDROOT
BRANCH   1   2
ATOM      2  C   UNL     1      -4.275  -4.675  -0.995  0.00  0.00    +0.219 C 
ATOM      3  O   UNL     1      -3.115  -5.028  -0.953  0.00  0.00    -0.276 OA
ATOM      4  N   UNL     1      -5.234  -5.554  -1.346  0.00  0.00    -0.186 N 
ATOM      5  C   UNL     1      -5.013  -6.965  -1.701  0.00  0.00    +0.143 C 
ATOM      6  C   UNL     1      -6.430  -7.487  -2.010  0.00  0.00    +0.088 C 
ATOM      7  C   UNL     1      -7.319  -6.284  -1.790  0.00  0.00    +0.075 C 
ATOM      8  N   UNL     1      -6.597  -5.277  -1.426  0.00  0.00    -0.180 NA
BRANCH   7   9
ATOM      9  C   UNL     1      -8.775  -6.265  -1.958  0.00  0.00    +0.035 A 
ATOM     10  C   UNL     1      -9.661  -5.216  -1.780  0.00  0.00    +0.017 A 
ATOM     11  C   UNL     1     -10.999  -5.446  -2.000  0.00  0.00    +0.008 A 
ATOM     12  C   UNL     1     -11.407  -6.684  -2.383  0.00  0.00    +0.046 A 
ATOM     13  S   UNL     1      -9.869  -7.587  -2.453  0.00  0.00    -0.095 S 
ENDBRANCH   7   9
BRANCH   5  14
ATOM     14  C   UNL     1      -4.131  -7.074  -2.918  0.00  0.00    +0.013 A 
ATOM     15  C   UNL     1      -3.150  -7.971  -3.183  0.00  0.00    +0.013 A 
ATOM     16  C   UNL     1      -2.464  -7.879  -4.380  0.00  0.00    +0.008 A 
ATOM     17  C   UNL     1      -2.792  -6.894  -5.252  0.00  0.00    +0.045 A 
ATOM     18  S   UNL     1      -4.112  -6.060  -4.387  0.00  0.00    -0.100 S 
ENDBRANCH   5  14
ENDBRANCH   1   2
BRANCH   1  20
ATOM     19  C   UNL     1      -2.829  -3.015   0.932  0.00  0.00    -0.095 C 
ATOM     20  N   UNL     1      -3.429  -2.503  -0.308  0.00  0.00    +0.389 N 
ATOM     21  H   UNL     1      -2.700  -2.645  -1.120  0.00  0.00    -0.081 HD
BRANCH  20  22
ATOM     22  C   UNL     1      -3.711  -1.066  -0.201  0.00  0.00    +0.019 C 
BRANCH  22  23
ATOM     23  C   UNL     1      -2.415  -0.306  -0.090  0.00  0.00    +0.201 C 
ATOM     24  O   UNL     1      -1.359  -0.903  -0.098  0.00  0.00    -0.278 OA
ATOM     25  N   UNL     1      -2.428   1.038   0.019  0.00  0.00    -0.286 N 
ATOM     26  H   UNL     1      -3.384   1.572   0.118  0.00  0.00    +0.155 HD
BRANCH  25  27
ATOM     27  C   UNL     1      -1.223   1.754   0.006  0.00  0.00    +0.047 A 
ATOM     28  C   UNL     1      -0.102   1.217  -0.609  0.00  0.00    +0.024 A 
ATOM     29  C   UNL     1       1.084   1.928  -0.625  0.00  0.00    +0.002 A 
ATOM     30  C   UNL     1       1.158   3.172  -0.025  0.00  0.00    +0.001 A 
ATOM     31  C   UNL     1       0.048   3.712   0.595  0.00  0.00    +0.016 A 
ATOM     32  C   UNL     1      -1.147   3.006   0.617  0.00  0.00    +0.029 A 
BRANCH  32  33
ATOM     33  S   UNL     1      -2.564   3.691   1.408  0.00  0.00    -0.127 S 
ATOM     34  C   UNL     1      -1.987   5.294   2.030  0.00  0.00    +0.090 C 
ENDBRANCH  32  33
ENDBRANCH  25  27
ENDBRANCH  22  23
ENDBRANCH  20  22
ENDBRANCH   1  20
TORSDOF 8
