REMARK  Name = ZINC12888287
REMARK  6 active torsions:
REMARK  status: ('A' for Active; 'I' for Inactive)
REMARK    1  A    between atoms: C_4  and  C_7
REMARK    2  A    between atoms: C_7  and  C_9
REMARK    3  A    between atoms: C_14  and  N_15
REMARK    4  A    between atoms: C_16  and  C_18
REMARK    5  A    between atoms: C_18  and  N_65
REMARK    6  A    between atoms: C_22  and  C_25
REMARK                            x       y       z     vdW  Elec       q    Type
REMARK                         _______ _______ _______ _____ _____    ______ ____
ROOT
ATOM      1  N   UNL     1       2.995  -0.471  -4.762  0.00  0.00    -0.286 N 
ATOM      2  C   UNL     1       2.401  -0.111  -3.607  0.00  0.00    +0.201 C 
ATOM      3  O   UNL     1       1.447   0.637  -3.624  0.00  0.00    -0.278 OA
ATOM      4  H   UNL     1       3.808  -1.000  -4.745  0.00  0.00    +0.155 HD
ENDROOT
BRANCH   1  10
ATOM      5  C   UNL     1       3.250   0.015  -7.123  0.00  0.00    +0.045 A 
ATOM      6  C   UNL     1       2.682   0.404  -8.340  0.00  0.00    +0.033 A 
ATOM      7  C   UNL     1       1.334   0.686  -8.409  0.00  0.00    +0.042 A 
ATOM      8  C   UNL     1       0.538   0.586  -7.278  0.00  0.00    +0.022 A 
ATOM      9  C   UNL     1       1.085   0.198  -6.071  0.00  0.00    +0.025 A 
ATOM     10  C   UNL     1       2.441  -0.085  -5.980  0.00  0.00    +0.044 A 
ATOM     11 CL   UNL     1       0.630   1.169  -9.921  0.00  0.00    -0.084 Cl
BRANCH   5  12
ATOM     12  C   UNL     1       4.690  -0.289  -7.041  0.00  0.00    +0.195 C 
ATOM     13  O   UNL     1       5.129  -1.299  -7.557  0.00  0.00    -0.287 OA
BRANCH  12  17
ATOM     14  C   UNL     1       7.308   2.362  -5.001  0.00  0.00    +0.000 A 
ATOM     15  C   UNL     1       7.790   1.163  -5.495  0.00  0.00    +0.001 A 
ATOM     16  C   UNL     1       6.946   0.297  -6.159  0.00  0.00    +0.012 A 
ATOM     17  C   UNL     1       5.601   0.633  -6.331  0.00  0.00    +0.022 A 
ATOM     18  C   UNL     1       5.122   1.848  -5.834  0.00  0.00    +0.012 A 
ATOM     19  C   UNL     1       5.976   2.701  -5.168  0.00  0.00    +0.001 A 
ENDBRANCH  12  17
ENDBRANCH   5  12
ENDBRANCH   1  10
BRANCH   2  20
ATOM     20  C   UNL     1       2.923  -0.638  -2.295  0.00  0.00    +0.019 C 
BRANCH  20  26
ATOM     21  C   UNL     1       0.736  -0.616  -1.256  0.00  0.00    -0.078 C 
ATOM     22  C   UNL     1      -0.038  -0.155  -0.019  0.00  0.00    -0.018 C 
ATOM     23  C   UNL     1      -0.047   1.375   0.031  0.00  0.00    +0.007 C 
ATOM     24  C   UNL     1       1.396   1.886   0.045  0.00  0.00    +0.040 C 
ATOM     25  C   UNL     1       2.129   1.366  -1.194  0.00  0.00    -0.067 C 
ATOM     26  N   UNL     1       2.123  -0.112  -1.169  0.00  0.00    +0.386 N 
ATOM     27  H   UNL     1       2.539  -0.432  -0.287  0.00  0.00    -0.081 HD
BRANCH  24  28
ATOM     28  C   UNL     1       1.396   3.393   0.035  0.00  0.00    +0.135 A 
ATOM     29  N   UNL     1       0.882   4.163  -0.888  0.00  0.00    -0.134 NA
ATOM     30  N   UNL     1       1.057   5.398  -0.570  0.00  0.00    -0.134 NA
ATOM     31  C   UNL     1       1.686   5.470   0.569  0.00  0.00    +0.133 A 
ATOM     32  N   UNL     1       1.924   4.202   0.980  0.00  0.00    -0.315 N 
ATOM     33  C   UNL     1       2.640   3.799   2.191  0.00  0.00    +0.125 C 
ATOM     34  C   UNL     1       2.473   4.882   3.260  0.00  0.00    +0.022 C 
ATOM     35  C   UNL     1       3.593   5.912   3.130  0.00  0.00    +0.002 C 
ATOM     36  C   UNL     1       3.536   6.595   1.767  0.00  0.00    +0.008 C 
ATOM     37  C   UNL     1       2.077   6.718   1.316  0.00  0.00    +0.076 C 
ENDBRANCH  24  28
ENDBRANCH  20  26
ENDBRANCH   2  20
TORSDOF 6
