REMARK  Name = ZINC40102158
REMARK  12 active torsions:
REMARK  status: ('A' for Active; 'I' for Inactive)
REMARK    1  A    between atoms: C_2  and  C_3
REMARK    2  A    between atoms: C_3  and  O_4
REMARK    3  A    between atoms: O_4  and  C_5
REMARK    4  A    between atoms: C_9  and  C_11
REMARK    5  A    between atoms: C_11  and  C_13
REMARK    6  A    between atoms: N_17  and  C_27
REMARK    7  A    between atoms: C_18  and  C_20
REMARK    8  A    between atoms: C_27  and  C_28
REMARK    9  A    between atoms: C_28  and  O_29
REMARK   10  A    between atoms: O_29  and  C_30
REMARK   11  A    between atoms: C_30  and  C_31
REMARK   12  A    between atoms: C_31  and  O_32
REMARK                            x       y       z     vdW  Elec       q    Type
REMARK                         _______ _______ _______ _____ _____    ______ ____
ROOT
ATOM      1  C   UNL     1      -4.729  -6.624  -3.487  0.00  0.00    +0.076 C 
ATOM      2  C   UNL     1      -4.955  -7.746  -4.209  0.00  0.00    +0.249 C 
ATOM      3  C   UNL     1      -6.278  -8.298  -3.847  0.00  0.00    +0.288 C 
ATOM      4  O   UNL     1      -6.768  -9.303  -4.323  0.00  0.00    -0.266 OA
ATOM      5  N   UNL     1      -6.858  -7.524  -2.912  0.00  0.00    -0.281 N 
ATOM      6  C   UNL     1      -5.940  -6.421  -2.606  0.00  0.00    +0.146 C 
ATOM      7  O   UNL     1      -4.107  -8.277  -5.119  0.00  0.00    -0.282 OA
ENDROOT
BRANCH   6   8
ATOM      8  C   UNL     1      -6.596  -5.102  -2.922  0.00  0.00    -0.008 A 
ATOM      9  C   UNL     1      -7.620  -5.044  -3.848  0.00  0.00    +0.007 A 
ATOM     10  C   UNL     1      -8.223  -3.834  -4.138  0.00  0.00    +0.000 A 
ATOM     11  C   UNL     1      -7.801  -2.681  -3.502  0.00  0.00    +0.001 A 
ATOM     12  C   UNL     1      -6.777  -2.738  -2.575  0.00  0.00    +0.015 A 
ATOM     13  C   UNL     1      -6.177  -3.950  -2.281  0.00  0.00    +0.023 A 
ATOM     14 BR   UNL     1      -4.780  -4.030  -1.009  0.00  0.00    -0.050 Br
ENDBRANCH   6   8
BRANCH   1  15
ATOM     15  C   UNL     1      -3.537  -5.773  -3.543  0.00  0.00    +0.195 C 
ATOM     16  O   UNL     1      -3.577  -4.708  -4.131  0.00  0.00    -0.287 OA
BRANCH  15  21
ATOM     17  C   UNL     1       0.050  -5.873  -2.420  0.00  0.00    +0.122 A 
ATOM     18  C   UNL     1       0.057  -7.031  -1.653  0.00  0.00    +0.046 A 
ATOM     19  C   UNL     1      -1.099  -7.774  -1.502  0.00  0.00    +0.004 A 
ATOM     20  C   UNL     1      -2.268  -7.371  -2.114  0.00  0.00    +0.012 A 
ATOM     21  C   UNL     1      -2.286  -6.208  -2.887  0.00  0.00    +0.026 A 
ATOM     22  C   UNL     1      -1.119  -5.456  -3.033  0.00  0.00    +0.057 A 
BRANCH  17  23
ATOM     23  O   UNL     1       1.189  -5.147  -2.565  0.00  0.00    -0.488 OA
BRANCH  23  24
ATOM     24  C   UNL     1       2.359  -5.636  -1.905  0.00  0.00    +0.256 C 
BRANCH  24  26
ATOM     25  C   UNL     1       4.306  -4.344  -1.199  0.00  0.00    +0.007 C 
ATOM     26  C   UNL     1       3.514  -4.708  -2.177  0.00  0.00    +0.006 C 
ENDBRANCH  24  26
ENDBRANCH  23  24
ENDBRANCH  17  23
ENDBRANCH  15  21
ENDBRANCH   1  15
BRANCH   5  27
ATOM     27  C   UNL     1      -8.172  -7.746  -2.303  0.00  0.00    +0.137 C 
BRANCH  27  28
ATOM     28  C   UNL     1      -8.015  -8.615  -1.054  0.00  0.00    +0.179 C 
BRANCH  28  29
ATOM     29  O   UNL     1      -7.258  -7.905  -0.071  0.00  0.00    -0.376 OA
BRANCH  29  30
ATOM     30  C   UNL     1      -7.053  -8.632   1.142  0.00  0.00    +0.187 C 
BRANCH  30  31
ATOM     31  C   UNL     1      -6.236  -7.780   2.115  0.00  0.00    +0.184 C 
BRANCH  31  32
ATOM     32  O   UNL     1      -6.992  -6.627   2.489  0.00  0.00    -0.393 OA
ATOM     33  H   UNL     1      -6.535  -6.040   3.106  0.00  0.00    +0.209 HD
ENDBRANCH  31  32
ENDBRANCH  30  31
ENDBRANCH  29  30
ENDBRANCH  28  29
ENDBRANCH  27  28
ENDBRANCH   5  27
TORSDOF 12
