REMARK  Name = ZINC04528762
REMARK  5 active torsions:
REMARK  status: ('A' for Active; 'I' for Inactive)
REMARK    1  A    between atoms: C_1  and  C_2
REMARK    2  A    between atoms: C_2  and  N_3
REMARK    3  A    between atoms: C_4  and  C_25
REMARK    4  A    between atoms: N_8  and  C_9
REMARK    5  A    between atoms: C_12  and  C_15
REMARK                            x       y       z     vdW  Elec       q    Type
REMARK                         _______ _______ _______ _____ _____    ______ ____
ROOT
ATOM      1  N   UNL     1       3.036   5.120  -1.344  0.00  0.00    -0.321 N 
ATOM      2  C   UNL     1       2.558   5.045  -2.624  0.00  0.00    +0.058 A 
ATOM      3  C   UNL     1       3.353   5.399  -3.655  0.00  0.00    +0.075 A 
ATOM      4  S   UNL     1       4.857   5.877  -2.820  0.00  0.00    -0.059 S 
ATOM      5  C   UNL     1       4.322   5.563  -1.145  0.00  0.00    +0.152 A 
ATOM      6  N   UNL     1       4.986   5.715  -0.014  0.00  0.00    -0.336 N 
ATOM      7  H   UNL     1       4.535   5.395   0.937  0.00  0.00    +0.168 HD
ENDROOT
BRANCH   2   8
ATOM      8  C   UNL     1       1.179   4.573  -2.876  0.00  0.00    +0.003 A 
ATOM      9  C   UNL     1       0.104   5.166  -2.212  0.00  0.00    +0.014 A 
ATOM     10  C   UNL     1      -1.181   4.724  -2.449  0.00  0.00    +0.050 A 
ATOM     11  C   UNL     1      -1.410   3.691  -3.345  0.00  0.00    +0.166 A 
ATOM     12  C   UNL     1      -0.341   3.095  -4.012  0.00  0.00    +0.167 A 
ATOM     13  C   UNL     1       0.950   3.533  -3.778  0.00  0.00    +0.059 A 
ATOM     14  O   UNL     1      -0.827   2.115  -4.829  0.00  0.00    -0.453 OA
ATOM     15  C   UNL     1      -2.158   1.843  -4.352  0.00  0.00    +0.466 C 
ATOM     16  O   UNL     1      -2.566   3.084  -3.747  0.00  0.00    -0.453 OA
ENDBRANCH   2   8
BRANCH   6  17
ATOM     17  C   UNL     1       6.233   6.270  -0.024  0.00  0.00    +0.041 A 
ATOM     18  C   UNL     1       7.365   5.448  -0.059  0.00  0.00    +0.026 A 
ATOM     19  C   UNL     1       8.612   6.005  -0.075  0.00  0.00    +0.013 A 
ATOM     20  C   UNL     1       8.758   7.394  -0.045  0.00  0.00    +0.019 A 
ATOM     21  C   UNL     1       7.628   8.216  -0.005  0.00  0.00    +0.013 A 
ATOM     22  C   UNL     1       6.380   7.661   0.006  0.00  0.00    +0.026 A 
BRANCH  20  23
ATOM     23  C   UNL     1      10.107   7.995  -0.056  0.00  0.00    +0.164 A 
ATOM     24  N   UNL     1      11.238   7.393   0.251  0.00  0.00    -0.129 NA
ATOM     25  N   UNL     1      12.218   8.218   0.125  0.00  0.00    -0.134 NA
ATOM     26  C   UNL     1      11.776   9.378  -0.269  0.00  0.00    +0.134 A 
ATOM     27  N   UNL     1      10.424   9.280  -0.392  0.00  0.00    -0.311 N 
ATOM     28  C   UNL     1       9.504  10.351  -0.774  0.00  0.00    +0.125 C 
ATOM     29  C   UNL     1      10.237  11.348  -1.677  0.00  0.00    +0.022 C 
ATOM     30  C   UNL     1      10.894  12.430  -0.823  0.00  0.00    +0.002 C 
ATOM     31  C   UNL     1      11.926  11.818   0.120  0.00  0.00    +0.008 C 
ATOM     32  C   UNL     1      12.589  10.614  -0.556  0.00  0.00    +0.076 C 
ENDBRANCH  20  23
ENDBRANCH   6  17
BRANCH   1  34
ATOM     33  C   UNL     1       2.467   3.275   0.157  0.00  0.00    +0.027 C 
ATOM     34  C   UNL     1       2.194   4.736  -0.209  0.00  0.00    +0.121 C 
ENDBRANCH   1  34
TORSDOF 4
