REMARK  Name = ZINC09552088
REMARK  9 active torsions:
REMARK  status: ('A' for Active; 'I' for Inactive)
REMARK    1  A    between atoms: C_1  and  C_2
REMARK    2  A    between atoms: C_7  and  N_8
REMARK    3  A    between atoms: C_9  and  C_11
REMARK    4  A    between atoms: C_11  and  C_13
REMARK    5  A    between atoms: C_11  and  O_14
REMARK    6  A    between atoms: O_14  and  C_15
REMARK    7  A    between atoms: C_15  and  C_17
REMARK    8  A    between atoms: C_23  and  C_28
REMARK    9  A    between atoms: C_24  and  C_27
REMARK                            x       y       z     vdW  Elec       q    Type
REMARK                         _______ _______ _______ _____ _____    ______ ____
ROOT
ATOM      1  O   UNL     1       1.343   2.006  -0.017  0.00  0.00    -0.449 OA
ENDROOT
BRANCH   1   2
ATOM      2  C   UNL     1      -0.019   1.503  -0.005  0.00  0.00    +0.259 C 
ATOM      3  C   UNL     1      -0.757   2.000  -1.250  0.00  0.00    +0.062 C 
BRANCH   2   5
ATOM      4  N   UNL     1      -1.156  -0.694   0.009  0.00  0.00    -0.282 N 
ATOM      5  C   UNL     1       0.002  -0.004  -0.001  0.00  0.00    +0.258 C 
ATOM      6  O   UNL     1       1.060  -0.596  -0.008  0.00  0.00    -0.271 OA
ATOM      7  H   UNL     1      -2.000  -0.224   0.096  0.00  0.00    +0.155 HD
BRANCH   4  14
ATOM      8  C   UNL     1      -3.359  -2.153   1.065  0.00  0.00    +0.045 C 
ATOM      9  C   UNL     1      -2.195  -2.839   0.398  0.00  0.00    -0.029 A 
ATOM     10  C   UNL     1      -2.177  -4.215   0.285  0.00  0.00    +0.005 A 
ATOM     11  C   UNL     1      -1.109  -4.846  -0.328  0.00  0.00    +0.000 A 
ATOM     12  C   UNL     1      -0.058  -4.101  -0.830  0.00  0.00    +0.002 A 
ATOM     13  C   UNL     1      -0.072  -2.724  -0.724  0.00  0.00    +0.023 A 
ATOM     14  C   UNL     1      -1.140  -2.088  -0.104  0.00  0.00    +0.036 A 
ENDBRANCH   4  14
ENDBRANCH   2   5
ENDBRANCH   1   2
BRANCH   1  15
ATOM     15  C   UNL     1       1.561   3.195   0.579  0.00  0.00    +0.340 C 
ATOM     16  O   UNL     1       0.639   3.795   1.094  0.00  0.00    -0.245 OA
BRANCH  15  17
ATOM     17  C   UNL     1       2.921   3.768   0.606  0.00  0.00    +0.060 A 
ATOM     18  C   UNL     1       3.986   3.072   0.016  0.00  0.00    +0.017 A 
ATOM     19  C   UNL     1       5.246   3.592   0.027  0.00  0.00    +0.027 A 
ATOM     20  C   UNL     1       5.494   4.819   0.638  0.00  0.00    +0.047 A 
ATOM     21  C   UNL     1       4.433   5.525   1.240  0.00  0.00    +0.004 A 
ATOM     22  C   UNL     1       3.146   4.996   1.221  0.00  0.00    +0.025 A 
ATOM     23  C   UNL     1       5.021   6.755   1.780  0.00  0.00    -0.022 A 
ATOM     24  C   UNL     1       6.330   6.722   1.491  0.00  0.00    +0.017 A 
ATOM     25  N   UNL     1       6.630   5.574   0.809  0.00  0.00    -0.358 N 
ATOM     26  H   UNL     1       7.513   5.328   0.494  0.00  0.00    +0.166 HD
ATOM     27  C   UNL     1       7.325   7.792   1.862  0.00  0.00    +0.063 C 
ATOM     28  C   UNL     1       4.292   7.847   2.520  0.00  0.00    +0.046 C 
ENDBRANCH  15  17
ENDBRANCH   1  15
TORSDOF 5
