REMARK  Name = ZINC12628072
REMARK  9 active torsions:
REMARK  status: ('A' for Active; 'I' for Inactive)
REMARK    1  A    between atoms: C_1  and  C_2
REMARK    2  A    between atoms: C_2  and  C_3
REMARK    3  A    between atoms: C_3  and  C_4
REMARK    4  A    between atoms: C_4  and  N_5
REMARK    5  A    between atoms: N_14  and  C_33
REMARK    6  A    between atoms: C_15  and  C_17
REMARK    7  A    between atoms: C_17  and  N_63
REMARK    8  A    between atoms: C_22  and  C_24
REMARK    9  A    between atoms: C_33  and  C_34
REMARK                            x       y       z     vdW  Elec       q    Type
REMARK                         _______ _______ _______ _____ _____    ______ ____
ROOT
ATOM      1  N   UNL     1      -3.465   8.087  -4.691  0.00  0.00    -0.277 N 
ATOM      2  C   UNL     1      -2.178   8.157  -4.184  0.00  0.00    +0.168 A 
ATOM      3  C   UNL     1      -1.344   9.184  -4.609  0.00  0.00    +0.151 A 
ATOM      4  C   UNL     1      -1.832  10.123  -5.543  0.00  0.00    +0.280 A 
ATOM      5  O   UNL     1      -1.120  11.033  -5.930  0.00  0.00    -0.265 OA
ATOM      6  N   UNL     1      -3.095  10.003  -6.000  0.00  0.00    -0.273 N 
ATOM      7  H   UNL     1      -3.445  10.666  -6.662  0.00  0.00    +0.173 HD
ATOM      8  C   UNL     1      -3.891   9.004  -5.580  0.00  0.00    +0.331 A 
ATOM      9  O   UNL     1      -5.024   8.927  -6.014  0.00  0.00    -0.246 OA
ATOM     10  N   UNL     1      -0.145   9.006  -3.949  0.00  0.00    -0.324 N 
ATOM     11  C   UNL     1      -0.282   7.914  -3.171  0.00  0.00    +0.096 A 
ATOM     12  N   UNL     1      -1.482   7.415  -3.318  0.00  0.00    -0.216 NA
ENDROOT
BRANCH  10  13
ATOM     13  C   UNL     1       1.050   9.844  -4.072  0.00  0.00    +0.120 C 
ATOM     14  C   UNL     1       1.938   9.306  -5.196  0.00  0.00    +0.027 C 
ENDBRANCH  10  13
BRANCH   1  15
ATOM     15  C   UNL     1      -4.365   7.015  -4.259  0.00  0.00    +0.128 C 
BRANCH  15  16
ATOM     16  C   UNL     1      -5.149   7.472  -3.027  0.00  0.00    +0.021 C 
BRANCH  16  18
ATOM     17  C   UNL     1      -6.872   6.809  -1.344  0.00  0.00    +0.004 C 
ATOM     18  C   UNL     1      -6.088   6.352  -2.575  0.00  0.00    -0.002 C 
ENDBRANCH  16  18
ENDBRANCH  15  16
ENDBRANCH   1  15
BRANCH  11  19
ATOM     19  C   UNL     1       0.788   7.351  -2.272  0.00  0.00    -0.002 C 
BRANCH  19  25
ATOM     20  C   UNL     1       0.988   9.400  -0.998  0.00  0.00    -0.077 C 
ATOM     21  C   UNL     1       0.729  10.033   0.371  0.00  0.00    -0.019 C 
ATOM     22  C   UNL     1       1.608   9.346   1.420  0.00  0.00    -0.003 C 
ATOM     23  C   UNL     1       1.305   7.846   1.425  0.00  0.00    -0.009 C 
ATOM     24  C   UNL     1       1.548   7.276   0.026  0.00  0.00    -0.011 C 
ATOM     25  N   UNL     1       0.655   7.961  -0.933  0.00  0.00    +0.390 N 
ATOM     26  H   UNL     1      -0.316   7.858  -0.615  0.00  0.00    -0.080 HD
BRANCH  24  27
ATOM     27  C   UNL     1       1.232   5.802   0.022  0.00  0.00    +0.066 A 
ATOM     28  N   UNL     1       0.063   5.226   0.030  0.00  0.00    -0.246 NA
ATOM     29  C   UNL     1      -0.084   3.885   0.024  0.00  0.00    +0.078 A 
ATOM     30  C   UNL     1      -1.271   3.119   0.031  0.00  0.00    +0.029 A 
ATOM     31  C   UNL     1      -1.220   1.760   0.017  0.00  0.00    +0.002 A 
ATOM     32  C   UNL     1      -0.013   1.076   0.008  0.00  0.00    +0.001 A 
ATOM     33  C   UNL     1       1.171   1.789   0.001  0.00  0.00    +0.017 A 
ATOM     34  C   UNL     1       1.131   3.162   0.008  0.00  0.00    +0.039 A 
ATOM     35  S   UNL     1       2.338   4.464   0.004  0.00  0.00    -0.074 S 
ENDBRANCH  24  27
ENDBRANCH  19  25
ENDBRANCH  11  19
TORSDOF 7
