REMARK  Name = ZINC64727954
REMARK  8 active torsions:
REMARK  status: ('A' for Active; 'I' for Inactive)
REMARK    1  A    between atoms: C_1  and  C_2
REMARK    2  A    between atoms: C_2  and  N_3
REMARK    3  A    between atoms: C_4  and  S_8
REMARK    4  A    between atoms: S_8  and  C_9
REMARK    5  A    between atoms: C_9  and  C_10
REMARK    6  A    between atoms: N_12  and  C_13
REMARK    7  A    between atoms: C_13  and  C_14
REMARK    8  A    between atoms: C_14  and  C_15
REMARK                            x       y       z     vdW  Elec       q    Type
REMARK                         _______ _______ _______ _____ _____    ______ ____
ROOT
ATOM      1  C   UNL     1      -3.100  -1.070   5.017  0.00  0.00    +0.223 C 
ATOM      2  O   UNL     1      -3.967  -0.693   4.257  0.00  0.00    -0.275 OA
ATOM      3  N   UNL     1      -3.416  -1.414   6.281  0.00  0.00    -0.314 N 
ATOM      4  H   UNL     1      -2.722  -1.716   6.889  0.00  0.00    +0.149 HD
ENDROOT
BRANCH   1   5
ATOM      5  C   UNL     1      -1.671  -1.154   4.547  0.00  0.00    +0.172 C 
BRANCH   5   6
ATOM      6  S   UNL     1      -1.572  -0.629   2.814  0.00  0.00    -0.078 S 
BRANCH   6   8
ATOM      7  N   UNL     1       0.711  -0.489   1.189  0.00  0.00    -0.227 N 
ATOM      8  C   UNL     1       0.139  -0.781   2.419  0.00  0.00    +0.190 C 
ATOM      9  N   UNL     1       1.066  -1.185   3.231  0.00  0.00    -0.147 NA
ATOM     10  N   UNL     1       2.292  -1.172   2.555  0.00  0.00    -0.184 N 
ATOM     11  N   UNL     1       2.052  -0.740   1.279  0.00  0.00    -0.143 NA
ATOM     12  H   UNL     1       3.154  -1.425   2.922  0.00  0.00    +0.191 HD
ATOM     13  H   UNL     1       2.590   0.088   1.072  0.00  0.00    +0.169 HD
BRANCH   7  15
ATOM     14  C   UNL     1      -0.019   1.526   0.010  0.00  0.00    +0.026 C 
ATOM     15  C   UNL     1       0.002  -0.004   0.002  0.00  0.00    +0.124 C 
ENDBRANCH   7  15
ENDBRANCH   6   8
ENDBRANCH   5   6
ENDBRANCH   1   5
BRANCH   3  16
ATOM     16  C   UNL     1      -4.805  -1.333   6.738  0.00  0.00    +0.108 C 
BRANCH  16  17
ATOM     17  C   UNL     1      -4.888  -1.776   8.200  0.00  0.00    +0.052 C 
BRANCH  17  18
ATOM     18  C   UNL     1      -6.318  -1.692   8.669  0.00  0.00    -0.040 C 
ATOM     19  C   UNL     1      -7.226  -2.694   8.696  0.00  0.00    -0.001 A 
ATOM     20  C   UNL     1      -7.157  -4.109   8.309  0.00  0.00    +0.010 A 
ATOM     21  C   UNL     1      -8.256  -4.883   8.453  0.00  0.00    +0.001 A 
ATOM     22  C   UNL     1      -9.457  -4.369   8.962  0.00  0.00    +0.002 A 
ATOM     23  C   UNL     1      -9.598  -3.081   9.339  0.00  0.00    +0.026 A 
ATOM     24  C   UNL     1      -8.505  -2.177   9.231  0.00  0.00    +0.043 A 
ATOM     25  N   UNL     1      -8.393  -0.904   9.524  0.00  0.00    -0.380 N 
ATOM     26  C   UNL     1      -7.026  -0.471   9.213  0.00  0.00    +0.144 C 
ATOM     27  H   UNL     1      -9.095  -0.343   9.889  0.00  0.00    +0.160 HD
ENDBRANCH  17  18
ENDBRANCH  16  17
ENDBRANCH   3  16
TORSDOF 7
