REMARK  Name = ZINC57586122
REMARK  10 active torsions:
REMARK  status: ('A' for Active; 'I' for Inactive)
REMARK    1  A    between atoms: C_1  and  C_2
REMARK    2  A    between atoms: C_5  and  C_34
REMARK    3  A    between atoms: N_8  and  C_10
REMARK    4  A    between atoms: C_10  and  C_11
REMARK    5  A    between atoms: C_14  and  C_17
REMARK    6  A    between atoms: C_17  and  N_18
REMARK    7  A    between atoms: C_19  and  C_21
REMARK    8  A    between atoms: C_21  and  C_22
REMARK    9  A    between atoms: C_22  and  C_23
REMARK   10  A    between atoms: C_25  and  C_28
REMARK                            x       y       z     vdW  Elec       q    Type
REMARK                         _______ _______ _______ _____ _____    ______ ____
ROOT
ATOM      1  C   UNL     1       7.047  -0.825   1.821  0.00  0.00    +0.139 C 
ENDROOT
BRANCH   1   5
ATOM      2  C   UNL     1       2.971  -2.034   2.241  0.00  0.00    -0.064 A 
ATOM      3  C   UNL     1       3.870  -2.852   1.582  0.00  0.00    +0.002 A 
ATOM      4  C   UNL     1       5.189  -2.460   1.446  0.00  0.00    +0.005 A 
ATOM      5  C   UNL     1       5.609  -1.252   1.969  0.00  0.00    -0.030 A 
ATOM      6  C   UNL     1       4.710  -0.434   2.628  0.00  0.00    +0.005 A 
ATOM      7  C   UNL     1       3.390  -0.823   2.760  0.00  0.00    +0.002 A 
BRANCH   2   8
ATOM      8  C   UNL     1       1.534  -2.461   2.390  0.00  0.00    -0.043 C 
BRANCH   8  14
ATOM      9  C   UNL     1      -0.019   1.526   0.010  0.00  0.00    +0.005 C 
ATOM     10  C   UNL     1       0.002  -0.004   0.002  0.00  0.00    -0.031 C 
ATOM     11  C   UNL     1      -1.434  -0.535   0.015  0.00  0.00    +0.003 C 
ATOM     12  C   UNL     1      -1.402  -2.064   0.086  0.00  0.00    -0.031 C 
ATOM     13  C   UNL     1      -0.613  -2.496   1.324  0.00  0.00    -0.075 C 
ATOM     14  N   UNL     1       0.758  -1.980   1.239  0.00  0.00    +0.383 N 
ATOM     15  C   UNL     1       0.740  -0.512   1.242  0.00  0.00    -0.075 C 
ATOM     16  C   UNL     1      -2.832  -2.602   0.177  0.00  0.00    +0.005 C 
ATOM     17  H   UNL     1       1.188  -2.307   0.386  0.00  0.00    -0.081 HD
ENDBRANCH   8  14
ENDBRANCH   2   8
ENDBRANCH   1   5
BRANCH   1  18
ATOM     18  N   UNL     1       7.205  -0.064   0.580  0.00  0.00    -0.311 N 
ATOM     19  C   UNL     1       8.415   0.422   0.237  0.00  0.00    +0.214 C 
ATOM     20  O   UNL     1       9.372   0.229   0.956  0.00  0.00    -0.276 OA
ATOM     21  H   UNL     1       6.440   0.090   0.004  0.00  0.00    +0.149 HD
BRANCH  19  22
ATOM     22  C   UNL     1       8.578   1.205  -1.040  0.00  0.00    +0.105 C 
BRANCH  22  23
ATOM     23  C   UNL     1      10.038   1.638  -1.190  0.00  0.00    +0.108 C 
BRANCH  23  24
ATOM     24  C   UNL     1      10.201   2.421  -2.467  0.00  0.00    +0.228 A 
ATOM     25  N   UNL     1      10.077   3.712  -2.590  0.00  0.00    -0.191 NA
ATOM     26  C   UNL     1      10.288   4.076  -3.867  0.00  0.00    +0.204 A 
ATOM     27  N   UNL     1      10.551   3.002  -4.570  0.00  0.00    -0.056 NA
ATOM     28  O   UNL     1      10.504   1.908  -3.667  0.00  0.00    -0.338 OA
BRANCH  26  29
ATOM     29  C   UNL     1      10.233   5.463  -4.393  0.00  0.00    +0.041 A 
ATOM     30  C   UNL     1      10.466   5.719  -5.747  0.00  0.00    +0.014 A 
ATOM     31  C   UNL     1      10.402   7.030  -6.187  0.00  0.00    +0.020 A 
ATOM     32  C   UNL     1      10.113   8.034  -5.282  0.00  0.00    +0.111 A 
ATOM     33  N   UNL     1       9.898   7.762  -4.010  0.00  0.00    -0.263 NA
ATOM     34  C   UNL     1       9.942   6.529  -3.546  0.00  0.00    +0.122 A 
ENDBRANCH  26  29
ENDBRANCH  23  24
ENDBRANCH  22  23
ENDBRANCH  19  22
ENDBRANCH   1  18
TORSDOF 8
