REMARK  Name = ZINC14832280
REMARK  14 active torsions:
REMARK  status: ('A' for Active; 'I' for Inactive)
REMARK    1  A    between atoms: C_1  and  C_2
REMARK    2  A    between atoms: C_2  and  C_3
REMARK    3  A    between atoms: C_3  and  C_5
REMARK    4  A    between atoms: C_3  and  C_6
REMARK    5  A    between atoms: C_9  and  O_13
REMARK    6  A    between atoms: O_13  and  C_14
REMARK    7  A    between atoms: C_14  and  C_15
REMARK    8  A    between atoms: N_17  and  N_18
REMARK    9  A    between atoms: C_19  and  C_21
REMARK   10  A    between atoms: C_21  and  C_22
REMARK   11  A    between atoms: C_22  and  C_23
REMARK   12  A    between atoms: N_25  and  C_26
REMARK   13  A    between atoms: C_29  and  C_33
REMARK   14  A    between atoms: C_30  and  C_32
REMARK                            x       y       z     vdW  Elec       q    Type
REMARK                         _______ _______ _______ _____ _____    ______ ____
ROOT
ATOM      1  N   UNL     1       4.904   1.075   0.488  0.00  0.00    -0.234 N 
ATOM      2  C   UNL     1       3.740   1.737   0.337  0.00  0.00    +0.230 C 
ATOM      3  O   UNL     1       3.742   2.941   0.190  0.00  0.00    -0.274 OA
ATOM      4  H   UNL     1       4.903   0.112   0.606  0.00  0.00    +0.173 HD
ENDROOT
BRANCH   1   7
ATOM      5  C   UNL     1       7.281   1.115   0.627  0.00  0.00    +0.267 C 
ATOM      6  O   UNL     1       7.279  -0.089   0.774  0.00  0.00    -0.271 OA
ATOM      7  N   UNL     1       6.117   1.777   0.476  0.00  0.00    -0.232 N 
ATOM      8  H   UNL     1       6.118   2.740   0.358  0.00  0.00    +0.173 HD
BRANCH   5   9
ATOM      9  C   UNL     1       8.585   1.871   0.613  0.00  0.00    +0.326 C 
BRANCH   9  10
ATOM     10  O   UNL     1       9.668   0.956   0.790  0.00  0.00    -0.482 OA
BRANCH  10  14
ATOM     11  C   UNL     1      13.476   2.544   0.826  0.00  0.00    -0.043 A 
ATOM     12  C   UNL     1      12.383   3.374   0.659  0.00  0.00    +0.007 A 
ATOM     13  C   UNL     1      11.107   2.844   0.641  0.00  0.00    +0.047 A 
ATOM     14  C   UNL     1      10.922   1.479   0.802  0.00  0.00    +0.135 A 
ATOM     15  C   UNL     1      12.020   0.647   0.970  0.00  0.00    +0.060 A 
ATOM     16  C   UNL     1      13.295   1.182   0.982  0.00  0.00    +0.022 A 
ATOM     17 BR   UNL     1      11.774  -1.216   1.182  0.00  0.00    -0.047 Br
BRANCH  11  18
ATOM     18  C   UNL     1      14.866   3.124   0.839  0.00  0.00    +0.016 C 
ATOM     19  C   UNL     1      14.987   4.132   1.984  0.00  0.00    +0.012 C 
BRANCH  18  21
ATOM     20  C   UNL     1      16.589   4.311  -0.527  0.00  0.00    +0.004 C 
ATOM     21  C   UNL     1      15.137   3.830  -0.491  0.00  0.00    +0.004 C 
ENDBRANCH  18  21
ENDBRANCH  11  18
ENDBRANCH  10  14
ENDBRANCH   9  10
ENDBRANCH   5   9
ENDBRANCH   1   7
BRANCH   2  22
ATOM     22  C   UNL     1       2.437   0.981   0.351  0.00  0.00    +0.106 C 
BRANCH  22  23
ATOM     23  C   UNL     1       1.277   1.961   0.161  0.00  0.00    +0.105 C 
BRANCH  23  24
ATOM     24  C   UNL     1      -0.027   1.205   0.175  0.00  0.00    +0.218 C 
ATOM     25  O   UNL     1      -0.028   0.001   0.322  0.00  0.00    -0.275 OA
ATOM     26  N   UNL     1      -1.191   1.867   0.018  0.00  0.00    -0.285 N 
ATOM     27  H   UNL     1      -1.196   2.836  -0.023  0.00  0.00    +0.155 HD
BRANCH  26  28
ATOM     28  C   UNL     1      -2.391   1.155  -0.086  0.00  0.00    +0.034 A 
ATOM     29  C   UNL     1      -2.412  -0.089  -0.704  0.00  0.00    +0.023 A 
ATOM     30  C   UNL     1      -3.597  -0.790  -0.800  0.00  0.00    +0.005 A 
ATOM     31  C   UNL     1      -4.765  -0.251  -0.292  0.00  0.00    -0.047 A 
ATOM     32  C   UNL     1      -4.749   0.989   0.319  0.00  0.00    -0.046 A 
ATOM     33  C   UNL     1      -3.565   1.694   0.423  0.00  0.00    +0.027 A 
ATOM     34  C   UNL     1      -6.023   1.573   0.872  0.00  0.00    +0.044 C 
ATOM     35  C   UNL     1      -6.058  -1.018  -0.403  0.00  0.00    +0.044 C 
ENDBRANCH  26  28
ENDBRANCH  23  24
ENDBRANCH  22  23
ENDBRANCH   2  22
TORSDOF 10
