REMARK  Name = ZINC08644689
REMARK  7 active torsions:
REMARK  status: ('A' for Active; 'I' for Inactive)
REMARK    1  A    between atoms: C_1  and  C_2
REMARK    2  A    between atoms: C_2  and  C_4
REMARK    3  A    between atoms: C_2  and  N_12
REMARK    4  A    between atoms: C_13  and  C_15
REMARK    5  A    between atoms: C_15  and  N_16
REMARK    6  A    between atoms: C_19  and  C_23
REMARK    7  A    between atoms: C_19  and  C_24
REMARK                            x       y       z     vdW  Elec       q    Type
REMARK                         _______ _______ _______ _____ _____    ______ ____
ROOT
ATOM      1  N   UNL     1      -3.362  -0.203  -1.752  0.00  0.00    -0.215 N 
ATOM      2  C   UNL     1      -3.412   1.019  -1.187  0.00  0.00    +0.251 C 
ATOM      3  O   UNL     1      -4.056   1.974  -1.565  0.00  0.00    -0.272 OA
ATOM      4  C   UNL     1      -2.497   0.952   0.019  0.00  0.00    +0.136 C 
ATOM      5  N   UNL     1      -1.989  -0.431  -0.008  0.00  0.00    -0.281 N 
ATOM      6  C   UNL     1      -2.550  -1.026  -1.077  0.00  0.00    +0.310 C 
ATOM      7  O   UNL     1      -2.343  -2.180  -1.394  0.00  0.00    -0.252 OA
ATOM      8  C   UNL     1      -3.279   1.212   1.308  0.00  0.00    +0.047 C 
ATOM      9  H   UNL     1      -1.371  -0.834   0.621  0.00  0.00    +0.152 HD
ENDROOT
BRANCH   4  10
ATOM     10  C   UNL     1      -1.363   1.935  -0.119  0.00  0.00    -0.008 A 
ATOM     11  C   UNL     1      -0.077   1.493  -0.183  0.00  0.00    +0.007 A 
ATOM     12  C   UNL     1       0.983   2.387  -0.317  0.00  0.00    +0.001 A 
ATOM     13  C   UNL     1       0.764   3.729  -0.383  0.00  0.00    +0.008 A 
ATOM     14  C   UNL     1      -0.549   4.223  -0.315  0.00  0.00    -0.018 A 
ATOM     15  C   UNL     1      -1.628   3.314  -0.178  0.00  0.00    -0.012 A 
ATOM     16  C   UNL     1      -2.942   3.808  -0.110  0.00  0.00    +0.009 A 
ATOM     17  C   UNL     1      -3.160   5.150  -0.176  0.00  0.00    +0.001 A 
ATOM     18  C   UNL     1      -2.099   6.044  -0.311  0.00  0.00    +0.001 A 
ATOM     19  C   UNL     1      -0.814   5.602  -0.380  0.00  0.00    +0.008 A 
ENDBRANCH   4  10
BRANCH   1  20
ATOM     20  C   UNL     1      -4.105  -0.585  -2.955  0.00  0.00    +0.213 C 
BRANCH  20  22
ATOM     21  N   UNL     1      -6.314  -1.551  -3.510  0.00  0.00    -0.307 N 
ATOM     22  C   UNL     1      -5.452  -1.133  -2.561  0.00  0.00    +0.231 C 
ATOM     23  O   UNL     1      -5.761  -1.198  -1.390  0.00  0.00    -0.274 OA
ATOM     24  H   UNL     1      -6.066  -1.499  -4.446  0.00  0.00    +0.149 HD
BRANCH  21  26
ATOM     25  C   UNL     1      -7.492  -3.572  -2.798  0.00  0.00    +0.033 C 
ATOM     26  C   UNL     1      -7.623  -2.083  -3.127  0.00  0.00    +0.100 C 
BRANCH  26  27
ATOM     27  C   UNL     1      -8.592  -1.904  -4.268  0.00  0.00    -0.026 A 
ATOM     28  C   UNL     1      -8.173  -2.114  -5.569  0.00  0.00    +0.007 A 
ATOM     29  C   UNL     1      -9.062  -1.956  -6.615  0.00  0.00    +0.022 A 
ATOM     30  C   UNL     1     -10.368  -1.576  -6.362  0.00  0.00    +0.059 A 
ATOM     31  C   UNL     1     -10.785  -1.360  -5.060  0.00  0.00    +0.060 A 
ATOM     32  C   UNL     1      -9.896  -1.525  -4.013  0.00  0.00    +0.027 A 
ATOM     33 CL   UNL     1     -12.424  -0.884  -4.741  0.00  0.00    -0.082 Cl
ATOM     34 CL   UNL     1     -11.482  -1.370  -7.677  0.00  0.00    -0.082 Cl
ENDBRANCH  26  27
ENDBRANCH  21  26
ENDBRANCH  20  22
ENDBRANCH   1  20
TORSDOF 5
