REMARK  Name = ZINC31057134
REMARK  13 active torsions:
REMARK  status: ('A' for Active; 'I' for Inactive)
REMARK    1  A    between atoms: C_1  and  C_2
REMARK    2  A    between atoms: C_2  and  O_3
REMARK    3  A    between atoms: O_3  and  C_4
REMARK    4  A    between atoms: C_7  and  C_13
REMARK    5  A    between atoms: C_9  and  O_10
REMARK    6  A    between atoms: O_10  and  C_11
REMARK    7  A    between atoms: C_11  and  C_12
REMARK    8  A    between atoms: C_13  and  C_15
REMARK    9  A    between atoms: C_13  and  N_16
REMARK   10  A    between atoms: C_17  and  C_19
REMARK   11  A    between atoms: N_24  and  C_26
REMARK   12  A    between atoms: C_26  and  C_27
REMARK   13  A    between atoms: C_29  and  C_32
REMARK                            x       y       z     vdW  Elec       q    Type
REMARK                         _______ _______ _______ _____ _____    ______ ____
ROOT
ATOM      1  N   UNL     1       1.356   2.010  -0.000  0.00  0.00    -0.309 N 
ATOM      2  C   UNL     1       1.627   3.233   0.497  0.00  0.00    +0.215 C 
ATOM      3  O   UNL     1       0.733   3.914   0.953  0.00  0.00    -0.276 OA
ATOM      4  H   UNL     1       2.167   1.393  -0.414  0.00  0.00    +0.149 HD
ENDROOT
BRANCH   2   5
ATOM      5  C   UNL     1       3.041   3.755   0.486  0.00  0.00    +0.058 C 
ATOM      6  C   UNL     1       3.549   3.823  -0.956  0.00  0.00    +0.009 C 
ATOM      7  C   UNL     1       4.964   4.410  -0.963  0.00  0.00    -0.018 C 
ATOM      8  C   UNL     1       4.940   5.792  -0.307  0.00  0.00    -0.078 C 
ATOM      9  N   UNL     1       4.447   5.673   1.071  0.00  0.00    +0.386 N 
ATOM     10  C   UNL     1       3.073   5.155   1.102  0.00  0.00    -0.065 C 
ATOM     11  H   UNL     1       5.089   4.950   1.595  0.00  0.00    -0.081 HD
BRANCH   9  12
ATOM     12  C   UNL     1       4.541   6.958   1.777  0.00  0.00    +0.022 C 
BRANCH  12  13
ATOM     13  C   UNL     1       5.991   7.333   1.946  0.00  0.00    +0.211 A 
ATOM     14  N   UNL     1       6.716   8.031   1.109  0.00  0.00    -0.192 NA
ATOM     15  C   UNL     1       7.942   8.118   1.675  0.00  0.00    +0.209 A 
ATOM     16  N   UNL     1       7.891   7.465   2.810  0.00  0.00    -0.056 NA
ATOM     17  O   UNL     1       6.779   7.011   2.977  0.00  0.00    -0.340 OA
BRANCH  15  18
ATOM     18  C   UNL     1       9.120   8.814   1.115  0.00  0.00    +0.060 A 
ATOM     19  C   UNL     1      10.380   8.936   1.639  0.00  0.00    +0.019 A 
ATOM     20  C   UNL     1      11.327   9.636   0.927  0.00  0.00    +0.008 A 
ATOM     21  C   UNL     1      10.983  10.193  -0.264  0.00  0.00    +0.046 A 
ATOM     22  S   UNL     1       9.268   9.721  -0.415  0.00  0.00    -0.093 S 
ENDBRANCH  15  18
ENDBRANCH  12  13
ENDBRANCH   9  12
ENDBRANCH   2   5
BRANCH   1  23
ATOM     23  C   UNL     1      -0.018   1.503   0.010  0.00  0.00    +0.100 C 
ATOM     24  C   UNL     1      -0.758   2.010  -1.229  0.00  0.00    +0.033 C 
BRANCH  23  28
ATOM     25  C   UNL     1       0.044  -2.773  -0.017  0.00  0.00    +0.162 A 
ATOM     26  C   UNL     1       0.945  -2.059  -0.792  0.00  0.00    +0.050 A 
ATOM     27  C   UNL     1       0.918  -0.677  -0.785  0.00  0.00    +0.009 A 
ATOM     28  C   UNL     1       0.002  -0.004   0.002  0.00  0.00    -0.024 A 
ATOM     29  C   UNL     1      -0.899  -0.710   0.777  0.00  0.00    +0.055 A 
ATOM     30  C   UNL     1      -0.881  -2.096   0.770  0.00  0.00    +0.162 A 
BRANCH  25  31
ATOM     31  O   UNL     1       0.065  -4.133  -0.027  0.00  0.00    -0.489 OA
BRANCH  31  33
ATOM     32  C   UNL     1       0.913  -6.281  -0.741  0.00  0.00    +0.048 C 
ATOM     33  C   UNL     1       1.042  -4.761  -0.860  0.00  0.00    +0.226 C 
ENDBRANCH  31  33
ENDBRANCH  25  31
BRANCH  30  34
ATOM     34  O   UNL     1      -1.767  -2.792   1.533  0.00  0.00    -0.489 OA
BRANCH  34  35
ATOM     35  C   UNL     1      -2.688  -2.030   2.316  0.00  0.00    +0.226 C 
ATOM     36  C   UNL     1      -3.597  -2.979   3.100  0.00  0.00    +0.048 C 
ENDBRANCH  34  35
ENDBRANCH  30  34
ENDBRANCH  23  28
ENDBRANCH   1  23
TORSDOF 10
