REMARK  Name = ZINC18229953
REMARK  8 active torsions:
REMARK  status: ('A' for Active; 'I' for Inactive)
REMARK    1  A    between atoms: C_1  and  C_2
REMARK    2  A    between atoms: C_3  and  C_38
REMARK    3  A    between atoms: C_4  and  N_33
REMARK    4  A    between atoms: C_7  and  C_8
REMARK    5  A    between atoms: N_12  and  C_22
REMARK    6  A    between atoms: N_14  and  C_15
REMARK    7  A    between atoms: C_22  and  C_23
REMARK    8  A    between atoms: C_23  and  C_24
REMARK                            x       y       z     vdW  Elec       q    Type
REMARK                         _______ _______ _______ _____ _____    ______ ____
ROOT
ATOM      1  C   UNL     1      -1.205  -0.787   2.571  0.00  0.00    +0.028 C 
ATOM      2  C   UNL     1      -0.667  -1.323   3.694  0.00  0.00    +0.078 C 
ATOM      3  C   UNL     1      -0.103  -0.645   4.879  0.00  0.00    +0.259 C 
ATOM      4  O   UNL     1      -0.067   0.568   4.961  0.00  0.00    -0.269 OA
ATOM      5  N   UNL     1       0.361  -1.418   5.847  0.00  0.00    -0.246 N 
ATOM      6  C   UNL     1       0.312  -2.790   5.735  0.00  0.00    +0.168 C 
ATOM      7  N   UNL     1       0.724  -3.695   6.593  0.00  0.00    -0.225 NA
ATOM      8  S   UNL     1      -0.457  -3.040   4.143  0.00  0.00    -0.049 S 
ENDROOT
BRANCH   1  15
ATOM      9  C   UNL     1      -3.065   0.169   0.570  0.00  0.00    +0.044 C 
ATOM     10  C   UNL     1      -2.460  -1.207   0.465  0.00  0.00    -0.039 A 
ATOM     11  C   UNL     1      -2.785  -2.026  -0.596  0.00  0.00    -0.027 A 
ATOM     12  C   UNL     1      -2.230  -3.290  -0.695  0.00  0.00    +0.017 A 
ATOM     13  C   UNL     1      -1.345  -3.744   0.269  0.00  0.00    +0.022 A 
ATOM     14  C   UNL     1      -1.010  -2.937   1.335  0.00  0.00    +0.010 A 
ATOM     15  C   UNL     1      -1.562  -1.655   1.440  0.00  0.00    -0.021 A 
ATOM     16  C   UNL     1      -3.747  -1.543  -1.651  0.00  0.00    +0.046 C 
BRANCH  12  17
ATOM     17  N   UNL     1      -2.565  -4.114  -1.773  0.00  0.00    -0.393 NA
ATOM     18  C   UNL     1      -1.339  -4.532  -2.500  0.00  0.00    +0.085 C 
ATOM     19  C   UNL     1      -1.787  -5.815  -3.243  0.00  0.00    +0.019 C 
ATOM     20  C   UNL     1      -2.729  -6.495  -2.223  0.00  0.00    +0.019 C 
ATOM     21  C   UNL     1      -3.190  -5.363  -1.286  0.00  0.00    +0.085 C 
ATOM     22  H   UNL     1      -3.194  -3.632  -2.398  0.00  0.00    +0.126 HD
ENDBRANCH  12  17
ENDBRANCH   1  15
BRANCH   7  23
ATOM     23  C   UNL     1       0.698  -3.427   7.935  0.00  0.00    +0.067 A 
ATOM     24  C   UNL     1      -0.499  -3.060   8.554  0.00  0.00    +0.028 A 
ATOM     25  C   UNL     1      -0.518  -2.791   9.907  0.00  0.00    +0.002 A 
ATOM     26  C   UNL     1       0.645  -2.885  10.650  0.00  0.00    +0.000 A 
ATOM     27  C   UNL     1       1.834  -3.249  10.044  0.00  0.00    +0.002 A 
ATOM     28  C   UNL     1       1.867  -3.526   8.693  0.00  0.00    +0.028 A 
ENDBRANCH   7  23
BRANCH   5  29
ATOM     29  C   UNL     1       0.934  -0.809   7.049  0.00  0.00    +0.120 C 
BRANCH  29  30
ATOM     30  C   UNL     1       2.314  -0.234   6.722  0.00  0.00    +0.056 C 
BRANCH  30  31
ATOM     31  C   UNL     1       2.936   0.325   7.976  0.00  0.00    -0.021 A 
ATOM     32  C   UNL     1       3.736  -0.413   8.956  0.00  0.00    +0.003 A 
ATOM     33  C   UNL     1       4.157  -1.740   9.063  0.00  0.00    +0.010 A 
ATOM     34  C   UNL     1       4.918  -2.126  10.130  0.00  0.00    +0.001 A 
ATOM     35  C   UNL     1       5.274  -1.210  11.110  0.00  0.00    +0.002 A 
ATOM     36  C   UNL     1       4.870   0.104  11.024  0.00  0.00    +0.026 A 
ATOM     37  C   UNL     1       4.095   0.520   9.946  0.00  0.00    +0.047 A 
ATOM     38  N   UNL     1       3.548   1.730   9.582  0.00  0.00    -0.360 N 
ATOM     39  C   UNL     1       2.866   1.596   8.403  0.00  0.00    +0.087 A 
ATOM     40  H   UNL     1       3.636   2.555  10.084  0.00  0.00    +0.165 HD
ENDBRANCH  30  31
ENDBRANCH  29  30
ENDBRANCH   5  29
TORSDOF 6
