REMARK  Name = ZINC40339800
REMARK  7 active torsions:
REMARK  status: ('A' for Active; 'I' for Inactive)
REMARK    1  A    between atoms: C_4  and  C_7
REMARK    2  A    between atoms: N_15  and  C_33
REMARK    3  A    between atoms: C_16  and  C_18
REMARK    4  A    between atoms: C_21  and  O_24
REMARK    5  A    between atoms: O_24  and  C_25
REMARK    6  A    between atoms: C_25  and  C_26
REMARK    7  A    between atoms: C_33  and  C_34
REMARK                            x       y       z     vdW  Elec       q    Type
REMARK                         _______ _______ _______ _____ _____    ______ ____
ROOT
ATOM      1  C   UNL     1       3.699  -0.689  -0.037  0.00  0.00    +0.099 A 
ATOM      2  C   UNL     1       3.978  -1.905   0.596  0.00  0.00    +0.035 A 
ATOM      3  C   UNL     1       5.299  -2.186   0.306  0.00  0.00    +0.126 A 
ATOM      4  N   UNL     1       5.746  -1.153  -0.469  0.00  0.00    -0.272 N 
ATOM      5  H   UNL     1       6.644  -1.074  -0.828  0.00  0.00    +0.189 HD
ATOM      6  N   UNL     1       4.798  -0.305  -0.656  0.00  0.00    -0.173 NA
ATOM      7  C   UNL     1       5.657  -3.458   0.944  0.00  0.00    +0.266 C 
ATOM      8  O   UNL     1       6.752  -3.983   0.880  0.00  0.00    -0.268 OA
ATOM      9  N   UNL     1       4.602  -3.960   1.611  0.00  0.00    -0.278 N 
ATOM     10  C   UNL     1       3.472  -3.036   1.449  0.00  0.00    +0.142 C 
ENDROOT
BRANCH   1  14
ATOM     11  C   UNL     1      -0.017   1.379   0.010  0.00  0.00    +0.000 A 
ATOM     12  C   UNL     1       1.169   2.092   0.002  0.00  0.00    +0.001 A 
ATOM     13  C   UNL     1       2.377   1.425  -0.013  0.00  0.00    +0.010 A 
ATOM     14  C   UNL     1       2.402   0.033  -0.021  0.00  0.00    +0.002 A 
ATOM     15  C   UNL     1       1.205  -0.680  -0.013  0.00  0.00    +0.010 A 
ATOM     16  C   UNL     1       0.002  -0.004   0.002  0.00  0.00    +0.001 A 
ENDBRANCH   1  14
BRANCH  10  17
ATOM     17  C   UNL     1       3.032  -2.515   2.793  0.00  0.00    -0.022 A 
ATOM     18  C   UNL     1       3.971  -2.246   3.771  0.00  0.00    +0.009 A 
ATOM     19  C   UNL     1       3.570  -1.768   5.003  0.00  0.00    +0.046 A 
ATOM     20  C   UNL     1       2.223  -1.558   5.259  0.00  0.00    +0.121 A 
ATOM     21  C   UNL     1       1.282  -1.828   4.276  0.00  0.00    +0.046 A 
ATOM     22  C   UNL     1       1.689  -2.301   3.043  0.00  0.00    +0.009 A 
BRANCH  20  23
ATOM     23  O   UNL     1       1.825  -1.089   6.471  0.00  0.00    -0.487 OA
BRANCH  23  24
ATOM     24  C   UNL     1       0.422  -0.897   6.664  0.00  0.00    +0.264 C 
BRANCH  24  25
ATOM     25  C   UNL     1       0.173  -0.376   8.056  0.00  0.00    -0.010 A 
ATOM     26  C   UNL     1      -0.034  -1.260   9.098  0.00  0.00    +0.008 A 
ATOM     27  C   UNL     1      -0.262  -0.783  10.375  0.00  0.00    +0.020 A 
ATOM     28  C   UNL     1      -0.283   0.580  10.610  0.00  0.00    +0.041 A 
ATOM     29  C   UNL     1      -0.076   1.465   9.567  0.00  0.00    +0.020 A 
ATOM     30  C   UNL     1       0.158   0.986   8.291  0.00  0.00    +0.008 A 
ATOM     31 CL   UNL     1      -0.571   1.180  12.214  0.00  0.00    -0.084 Cl
ENDBRANCH  24  25
ENDBRANCH  23  24
ENDBRANCH  20  23
ENDBRANCH  10  17
BRANCH   9  32
ATOM     32  C   UNL     1       4.584  -5.214   2.369  0.00  0.00    +0.183 C 
BRANCH  32  33
ATOM     33  C   UNL     1       4.982  -4.944   3.797  0.00  0.00    +0.122 A 
ATOM     34  C   UNL     1       4.144  -4.636   4.803  0.00  0.00    +0.046 A 
ATOM     35  C   UNL     1       4.938  -4.467   5.960  0.00  0.00    +0.041 A 
ATOM     36  C   UNL     1       6.214  -4.681   5.592  0.00  0.00    +0.195 A 
ATOM     37  O   UNL     1       6.234  -4.976   4.282  0.00  0.00    -0.466 OA
ENDBRANCH  32  33
ENDBRANCH   9  32
TORSDOF 7
