REMARK  Name = ZINC12384512
REMARK  4 active torsions:
REMARK  status: ('A' for Active; 'I' for Inactive)
REMARK    1  A    between atoms: C_1  and  C_2
REMARK    2  A    between atoms: C_2  and  C_16
REMARK    3  A    between atoms: C_6  and  N_12
REMARK    4  A    between atoms: C_7  and  C_9
REMARK                            x       y       z     vdW  Elec       q    Type
REMARK                         _______ _______ _______ _____ _____    ______ ____
ROOT
ATOM      1  C   UNL     1       4.734  -2.548  -0.332  0.00  0.00    +0.011 C 
ATOM      2  C   UNL     1       3.888  -1.288  -0.523  0.00  0.00    -0.023 C 
ATOM      3  C   UNL     1       2.459  -1.555  -0.034  0.00  0.00    +0.050 C 
ATOM      4  C   UNL     1       1.700  -0.266  -0.016  0.00  0.00    +0.003 A 
ATOM      5  C   UNL     1       2.262   1.014  -0.013  0.00  0.00    +0.049 A 
ATOM      6  C   UNL     1       1.324   2.111   0.001  0.00  0.00    +0.055 A 
ATOM      7  C   UNL     1      -0.022   1.779   0.012  0.00  0.00    +0.095 A 
ATOM      8  S   UNL     1       0.002  -0.004   0.002  0.00  0.00    -0.086 S 
ATOM      9  C   UNL     1       3.741   1.140  -0.024  0.00  0.00    +0.166 C 
ATOM     10  O   UNL     1       4.300   2.192  -0.254  0.00  0.00    -0.292 OA
ATOM     11  C   UNL     1       4.509  -0.135   0.272  0.00  0.00    +0.086 C 
ATOM     12  C   UNL     1       3.856  -0.921  -2.008  0.00  0.00    +0.011 C 
ENDROOT
BRANCH   7  13
ATOM     13  C   UNL     1      -1.143   2.644   0.022  0.00  0.00    +0.250 C 
ATOM     14  O   UNL     1      -0.980   3.851   0.027  0.00  0.00    -0.270 OA
ATOM     15  N   UNL     1      -2.390   2.132   0.026  0.00  0.00    -0.325 N 
ATOM     16  H   UNL     1      -2.519   1.171   0.022  0.00  0.00    +0.145 HD
ATOM     17  H   UNL     1      -3.157   2.725   0.033  0.00  0.00    +0.145 HD
ENDBRANCH   7  13
BRANCH   6  18
ATOM     18  N   UNL     1       1.748   3.431   0.003  0.00  0.00    -0.356 N 
ATOM     19  H   UNL     1       1.096   4.150   0.012  0.00  0.00    +0.142 HD
ATOM     20  H   UNL     1       2.696   3.636  -0.006  0.00  0.00    +0.142 HD
ENDBRANCH   6  18
TORSDOF 2
