REMARK  Name = ZINC39888801
REMARK  14 active torsions:
REMARK  status: ('A' for Active; 'I' for Inactive)
REMARK    1  A    between atoms: C_1  and  C_2
REMARK    2  A    between atoms: C_3  and  C_27
REMARK    3  A    between atoms: C_4  and  C_17
REMARK    4  A    between atoms: N_8  and  C_15
REMARK    5  A    between atoms: N_11  and  C_14
REMARK    6  A    between atoms: C_20  and  O_25
REMARK    7  A    between atoms: C_22  and  O_23
REMARK    8  A    between atoms: O_23  and  C_24
REMARK    9  A    between atoms: O_25  and  C_26
REMARK   10  A    between atoms: C_27  and  O_29
REMARK   11  A    between atoms: O_29  and  C_30
REMARK   12  A    between atoms: C_30  and  C_31
REMARK   13  A    between atoms: C_31  and  C_32
REMARK   14  A    between atoms: C_31  and  C_33
REMARK                            x       y       z     vdW  Elec       q    Type
REMARK                         _______ _______ _______ _____ _____    ______ ____
ROOT
ATOM      1  C   UNL     1      -0.018   1.503   0.010  0.00  0.00    +0.061 C 
ATOM      2  C   UNL     1       0.002  -0.004   0.002  0.00  0.00    +0.017 C 
ATOM      3  C   UNL     1      -1.158  -0.682   0.004  0.00  0.00    +0.065 C 
ATOM      4  C   UNL     1      -1.194  -2.183  -0.013  0.00  0.00    +0.099 C 
ATOM      5  C   UNL     1       0.143  -2.756   0.366  0.00  0.00    +0.068 A 
ATOM      6  C   UNL     1       1.268  -1.988   0.348  0.00  0.00    +0.116 A 
ATOM      7  N   UNL     1       2.475  -2.546   0.694  0.00  0.00    -0.284 N 
ATOM      8  C   UNL     1       2.548  -3.841   1.052  0.00  0.00    +0.333 A 
ATOM      9  O   UNL     1       3.624  -4.319   1.355  0.00  0.00    -0.246 OA
ATOM     10  N   UNL     1       1.447  -4.614   1.079  0.00  0.00    -0.264 N 
ATOM     11  C   UNL     1       0.245  -4.107   0.745  0.00  0.00    +0.262 A 
ATOM     12  O   UNL     1      -0.749  -4.813   0.772  0.00  0.00    -0.267 OA
ATOM     13  C   UNL     1       1.557  -6.020   1.476  0.00  0.00    +0.157 C 
ATOM     14  C   UNL     1       3.689  -1.726   0.673  0.00  0.00    +0.155 C 
ATOM     15  N   UNL     1       1.201  -0.662  -0.013  0.00  0.00    -0.303 N 
ATOM     16  H   UNL     1       2.007  -0.191  -0.276  0.00  0.00    +0.153 HD
ENDROOT
BRANCH   4  17
ATOM     17  C   UNL     1      -1.560  -2.654  -1.397  0.00  0.00    +0.007 A 
ATOM     18  C   UNL     1      -0.756  -2.328  -2.472  0.00  0.00    +0.012 A 
ATOM     19  C   UNL     1      -1.089  -2.759  -3.742  0.00  0.00    +0.046 A 
ATOM     20  C   UNL     1      -2.232  -3.520  -3.940  0.00  0.00    +0.124 A 
ATOM     21  C   UNL     1      -3.040  -3.849  -2.863  0.00  0.00    +0.091 A 
ATOM     22  C   UNL     1      -2.700  -3.421  -1.589  0.00  0.00    +0.128 A 
BRANCH  22  23
ATOM     23  O   UNL     1      -3.487  -3.746  -0.530  0.00  0.00    -0.495 OA
ATOM     24  C   UNL     1      -4.646  -4.538  -0.801  0.00  0.00    +0.277 C 
ENDBRANCH  22  23
BRANCH  20  25
ATOM     25  O   UNL     1      -2.559  -3.943  -5.190  0.00  0.00    -0.495 OA
ATOM     26  C   UNL     1      -1.681  -3.567  -6.253  0.00  0.00    +0.277 C 
ENDBRANCH  20  25
ENDBRANCH   4  17
BRANCH   3  27
ATOM     27  C   UNL     1      -2.376   0.036   0.023  0.00  0.00    +0.338 C 
ATOM     28  O   UNL     1      -2.364   1.253   0.037  0.00  0.00    -0.245 OA
BRANCH  27  29
ATOM     29  O   UNL     1      -3.550  -0.628   0.025  0.00  0.00    -0.461 OA
BRANCH  29  30
ATOM     30  C   UNL     1      -4.742   0.162   0.044  0.00  0.00    +0.235 C 
BRANCH  30  31
ATOM     31  C   UNL     1      -5.963  -0.759   0.044  0.00  0.00    +0.020 C 
ATOM     32  C   UNL     1      -7.234   0.080   0.190  0.00  0.00    +0.010 C 
ATOM     33  C   UNL     1      -6.015  -1.538  -1.272  0.00  0.00    +0.010 C 
ENDBRANCH  30  31
ENDBRANCH  29  30
ENDBRANCH  27  29
ENDBRANCH   3  27
TORSDOF 7
