REMARK  Name = ZINC39676250
REMARK  4 active torsions:
REMARK  status: ('A' for Active; 'I' for Inactive)
REMARK    1  A    between atoms: C_11  and  C_13
REMARK    2  A    between atoms: C_13  and  N_14
REMARK    3  A    between atoms: C_15  and  C_17
REMARK    4  A    between atoms: C_28  and  C_30
REMARK                            x       y       z     vdW  Elec       q    Type
REMARK                         _______ _______ _______ _____ _____    ______ ____
ROOT
ATOM      1  C   UNL     1       8.726  -0.586   0.387  0.00  0.00    +0.100 C 
ATOM      2  C   UNL     1       8.541   0.045  -1.012  0.00  0.00    +0.121 C 
ATOM      3  N   UNL     1       9.918   0.203  -1.536  0.00  0.00    -0.296 N 
ATOM      4  C   UNL     1      10.623  -1.025  -1.098  0.00  0.00    +0.115 C 
ATOM      5  C   UNL     1      10.093  -1.288   0.325  0.00  0.00    -0.004 C 
ATOM      6  C   UNL     1      11.041  -0.688   1.360  0.00  0.00    -0.010 C 
ATOM      7  C   UNL     1      12.375  -1.440   1.319  0.00  0.00    -0.082 C 
ATOM      8  N   UNL     1      12.146  -2.862   1.601  0.00  0.00    +0.379 N 
ATOM      9  C   UNL     1      11.308  -3.453   0.550  0.00  0.00    -0.082 C 
ATOM     10  C   UNL     1       9.930  -2.786   0.559  0.00  0.00    -0.010 C 
ATOM     11  C   UNL     1      10.416   1.232  -2.250  0.00  0.00    +0.248 C 
ATOM     12  O   UNL     1      11.547   1.173  -2.693  0.00  0.00    -0.270 OA
ATOM     13  H   UNL     1      13.032  -3.344   1.633  0.00  0.00    -0.086 HD
ATOM     14  H   UNL     1      11.682  -2.956   2.492  0.00  0.00    -0.086 HD
ENDROOT
BRANCH  11  15
ATOM     15  C   UNL     1       9.588   2.432  -2.495  0.00  0.00    +0.057 A 
ATOM     16  C   UNL     1       8.212   2.305  -2.694  0.00  0.00    +0.014 A 
ATOM     17  C   UNL     1       7.445   3.428  -2.922  0.00  0.00    +0.002 A 
ATOM     18  C   UNL     1       8.035   4.680  -2.953  0.00  0.00    +0.021 A 
ATOM     19  C   UNL     1       9.398   4.814  -2.758  0.00  0.00    +0.060 A 
ATOM     20  C   UNL     1      10.178   3.697  -2.522  0.00  0.00    +0.071 A 
ATOM     21 CL   UNL     1      11.887   3.867  -2.269  0.00  0.00    -0.081 Cl
ATOM     22 CL   UNL     1      10.129   6.388  -2.801  0.00  0.00    -0.082 Cl
ENDBRANCH  11  15
BRANCH   1  24
ATOM     23  N   UNL     1       7.233  -1.821   1.925  0.00  0.00    -0.308 N 
ATOM     24  C   UNL     1       7.634  -1.588   0.659  0.00  0.00    +0.219 C 
ATOM     25  O   UNL     1       7.115  -2.185  -0.261  0.00  0.00    -0.275 OA
ATOM     26  H   UNL     1       7.648  -1.344   2.660  0.00  0.00    +0.149 HD
BRANCH  23  27
ATOM     27  C   UNL     1       6.172  -2.795   2.189  0.00  0.00    +0.178 C 
BRANCH  27  38
ATOM     28  C   UNL     1       6.028  -2.193   8.550  0.00  0.00    +0.001 A 
ATOM     29  C   UNL     1       6.988  -1.349   8.006  0.00  0.00    +0.002 A 
ATOM     30  C   UNL     1       7.200  -1.306   6.647  0.00  0.00    +0.028 A 
ATOM     31  C   UNL     1       6.443  -2.121   5.802  0.00  0.00    +0.078 A 
ATOM     32  C   UNL     1       5.469  -2.978   6.359  0.00  0.00    +0.065 A 
ATOM     33  C   UNL     1       5.269  -3.006   7.738  0.00  0.00    +0.015 A 
ATOM     34  C   UNL     1       4.688  -3.823   5.442  0.00  0.00    +0.259 A 
ATOM     35  O   UNL     1       3.833  -4.583   5.857  0.00  0.00    -0.267 OA
ATOM     36  N   UNL     1       4.957  -3.721   4.120  0.00  0.00    -0.309 N 
ATOM     37  H   UNL     1       4.462  -4.263   3.486  0.00  0.00    +0.170 HD
ATOM     38  C   UNL     1       5.915  -2.867   3.673  0.00  0.00    +0.128 A 
ATOM     39  N   UNL     1       6.620  -2.110   4.457  0.00  0.00    -0.232 NA
ENDBRANCH  27  38
ENDBRANCH  23  27
ENDBRANCH   1  24
TORSDOF 4
