REMARK  Name = ZINC22429639
REMARK  9 active torsions:
REMARK  status: ('A' for Active; 'I' for Inactive)
REMARK    1  A    between atoms: C_1  and  C_2
REMARK    2  A    between atoms: C_2  and  C_4
REMARK    3  A    between atoms: C_2  and  N_11
REMARK    4  A    between atoms: C_12  and  C_14
REMARK    5  A    between atoms: C_14  and  N_15
REMARK    6  A    between atoms: N_15  and  C_16
REMARK    7  A    between atoms: N_15  and  S_27
REMARK    8  A    between atoms: C_20  and  C_22
REMARK    9  A    between atoms: S_27  and  C_30
REMARK                            x       y       z     vdW  Elec       q    Type
REMARK                         _______ _______ _______ _____ _____    ______ ____
ROOT
ATOM      1  N   UNL     1       3.897   2.157   0.011  0.00  0.00    -0.194 N 
ENDROOT
BRANCH   1   2
ATOM      2  C   UNL     1       2.813   1.314   0.267  0.00  0.00    +0.052 A 
ATOM      3  C   UNL     1       1.539   1.846   0.422  0.00  0.00    +0.026 A 
ATOM      4  C   UNL     1       0.469   1.010   0.675  0.00  0.00    +0.022 A 
ATOM      5  C   UNL     1       0.665  -0.356   0.774  0.00  0.00    +0.053 A 
ATOM      6  C   UNL     1       1.932  -0.889   0.619  0.00  0.00    +0.075 A 
ATOM      7  C   UNL     1       3.006  -0.058   0.366  0.00  0.00    +0.038 A 
ATOM      8 CL   UNL     1      -0.682  -1.404   1.092  0.00  0.00    -0.083 Cl
BRANCH   6   9
ATOM      9  C   UNL     1       2.142  -2.378   0.727  0.00  0.00    +0.419 C 
ATOM     10  F   UNL     1       3.495  -2.673   0.536  0.00  0.00    -0.166 F 
ATOM     11  F   UNL     1       1.744  -2.814   1.996  0.00  0.00    -0.166 F 
ATOM     12  F   UNL     1       1.380  -3.028  -0.250  0.00  0.00    -0.166 F 
ENDBRANCH   6   9
ENDBRANCH   1   2
BRANCH   1  13
ATOM     13  S   UNL     1       3.654   3.618  -0.729  0.00  0.00    +0.075 S 
ATOM     14  O   UNL     1       4.876   3.958  -1.369  0.00  0.00    -0.150 OA
ATOM     15  O   UNL     1       2.426   3.515  -1.437  0.00  0.00    -0.150 OA
BRANCH  13  16
ATOM     16  C   UNL     1       3.403   4.811   0.543  0.00  0.00    +0.109 A 
ATOM     17  C   UNL     1       2.119   5.169   0.911  0.00  0.00    +0.029 A 
ATOM     18  C   UNL     1       1.922   6.101   1.913  0.00  0.00    +0.002 A 
ATOM     19  C   UNL     1       3.009   6.684   2.538  0.00  0.00    +0.000 A 
ATOM     20  C   UNL     1       4.292   6.330   2.166  0.00  0.00    +0.002 A 
ATOM     21  C   UNL     1       4.489   5.393   1.168  0.00  0.00    +0.029 A 
ENDBRANCH  13  16
ENDBRANCH   1  13
BRANCH   1  22
ATOM     22  C   UNL     1       5.250   1.748   0.398  0.00  0.00    +0.227 C 
BRANCH  22  24
ATOM     23  N   UNL     1       7.092   0.397  -0.549  0.00  0.00    -0.307 N 
ATOM     24  C   UNL     1       5.846   0.891  -0.688  0.00  0.00    +0.233 C 
ATOM     25  O   UNL     1       5.204   0.645  -1.687  0.00  0.00    -0.274 OA
ATOM     26  H   UNL     1       7.675   0.620   0.357  0.00  0.00    +0.149 HD
BRANCH  23  28
ATOM     27  C   UNL     1       7.233  -1.889  -1.408  0.00  0.00    +0.033 C 
ATOM     28  C   UNL     1       7.672  -0.436  -1.605  0.00  0.00    +0.100 C 
BRANCH  28  29
ATOM     29  C   UNL     1       9.175  -0.353  -1.543  0.00  0.00    -0.027 A 
ATOM     30  C   UNL     1       9.816  -0.339  -0.318  0.00  0.00    +0.008 A 
ATOM     31  C   UNL     1      11.195  -0.269  -0.259  0.00  0.00    +0.038 A 
ATOM     32  C   UNL     1      11.934  -0.201  -1.427  0.00  0.00    +0.123 A 
ATOM     33  C   UNL     1      11.291  -0.210  -2.654  0.00  0.00    +0.038 A 
ATOM     34  C   UNL     1       9.913  -0.286  -2.710  0.00  0.00    +0.008 A 
ATOM     35  F   UNL     1      13.282  -0.126  -1.371  0.00  0.00    -0.205 F 
ENDBRANCH  28  29
ENDBRANCH  23  28
ENDBRANCH  22  24
ENDBRANCH   1  22
TORSDOF 8
