REMARK  Name = ZINC67293182
REMARK  3 active torsions:
REMARK  status: ('A' for Active; 'I' for Inactive)
REMARK    1  A    between atoms: C_4  and  N_7
REMARK    2  A    between atoms: C_9  and  C_19
REMARK    3  A    between atoms: C_14  and  O_18
REMARK                            x       y       z     vdW  Elec       q    Type
REMARK                         _______ _______ _______ _____ _____    ______ ____
ROOT
ATOM      1  N   UNL     1       4.318  -0.232   0.354  0.00  0.00    -0.325 N 
ATOM      2  C   UNL     1       4.016  -1.397   0.884  0.00  0.00    +0.212 A 
ATOM      3  C   UNL     1       4.823  -2.599   0.596  0.00  0.00    +0.098 A 
ATOM      4  C   UNL     1       4.815  -3.615   1.542  0.00  0.00    +0.030 A 
ATOM      5  C   UNL     1       4.012  -3.447   2.698  0.00  0.00    +0.018 A 
ATOM      6  C   UNL     1       4.120  -4.343   3.773  0.00  0.00    +0.015 A 
ATOM      7  C   UNL     1       3.373  -4.147   4.898  0.00  0.00    +0.046 A 
ATOM      8  C   UNL     1       2.497  -3.067   4.986  0.00  0.00    +0.120 A 
ATOM      9  C   UNL     1       2.362  -2.183   3.926  0.00  0.00    +0.092 A 
ATOM     10  C   UNL     1       3.107  -2.370   2.774  0.00  0.00    +0.141 A 
ATOM     11  O   UNL     1       2.955  -1.536   1.720  0.00  0.00    -0.438 OA
ATOM     12  H   UNL     1       5.141  -0.126  -0.149  0.00  0.00    +0.169 HD
ENDROOT
BRANCH   3  13
ATOM     13  C   UNL     1       5.606  -2.716  -0.644  0.00  0.00    +0.254 C 
ATOM     14  O   UNL     1       6.362  -3.656  -0.801  0.00  0.00    -0.270 OA
ATOM     15  N   UNL     1       5.486  -1.780  -1.607  0.00  0.00    -0.266 N 
ATOM     16  C   UNL     1       6.175  -1.925  -2.809  0.00  0.00    +0.125 A 
ATOM     17  C   UNL     1       7.277  -2.772  -2.874  0.00  0.00    +0.044 A 
ATOM     18  C   UNL     1       7.952  -2.907  -4.074  0.00  0.00    +0.005 A 
ATOM     19  C   UNL     1       7.500  -2.188  -5.172  0.00  0.00    +0.020 A 
ATOM     20  C   UNL     1       6.400  -1.365  -5.036  0.00  0.00    +0.113 A 
ATOM     21  N   UNL     1       5.773  -1.260  -3.880  0.00  0.00    -0.240 NA
ATOM     22  H   UNL     1       4.919  -1.006  -1.463  0.00  0.00    +0.157 HD
ENDBRANCH   3  13
BRANCH   1  26
ATOM     23  C   UNL     1       1.758   2.983   0.831  0.00  0.00    +0.000 A 
ATOM     24  C   UNL     1       3.120   3.154   1.012  0.00  0.00    +0.002 A 
ATOM     25  C   UNL     1       3.979   2.087   0.855  0.00  0.00    +0.026 A 
ATOM     26  C   UNL     1       3.472   0.831   0.512  0.00  0.00    +0.042 A 
ATOM     27  C   UNL     1       2.096   0.666   0.331  0.00  0.00    +0.026 A 
ATOM     28  C   UNL     1       1.249   1.742   0.492  0.00  0.00    +0.002 A 
ENDBRANCH   1  26
BRANCH   8  29
ATOM     29  O   UNL     1       1.769  -2.880   6.116  0.00  0.00    -0.507 OA
ATOM     30  H   UNL     1       2.206  -2.328   6.778  0.00  0.00    +0.292 HD
ENDBRANCH   8  29
TORSDOF 3
