REMARK  Name = ZINC64889813
REMARK  6 active torsions:
REMARK  status: ('A' for Active; 'I' for Inactive)
REMARK    1  A    between atoms: C_1  and  C_2
REMARK    2  A    between atoms: C_5  and  C_8
REMARK    3  A    between atoms: C_9  and  C_10
REMARK    4  A    between atoms: N_15  and  S_18
REMARK    5  A    between atoms: S_18  and  C_21
REMARK    6  A    between atoms: C_31  and  C_34
REMARK                            x       y       z     vdW  Elec       q    Type
REMARK                         _______ _______ _______ _____ _____    ______ ____
ROOT
ATOM      1  C   UNL     1       0.092  -6.390   1.134  0.00  0.00    +0.240 C 
ATOM      2  O   UNL     1      -0.002  -6.994   0.082  0.00  0.00    -0.271 OA
ATOM      3  N   UNL     1       0.208  -7.069   2.293  0.00  0.00    -0.295 N 
ATOM      4  C   UNL     1       0.201  -6.359   3.580  0.00  0.00    +0.125 C 
ATOM      5  C   UNL     1      -0.903  -6.955   4.462  0.00  0.00    +0.128 C 
ATOM      6  N   UNL     1      -0.768  -8.418   4.461  0.00  0.00    -0.174 NA
ATOM      7  C   UNL     1      -0.760  -9.128   3.174  0.00  0.00    +0.128 C 
ATOM      8  C   UNL     1       0.339  -8.533   2.292  0.00  0.00    +0.125 C 
ENDROOT
BRANCH   6   9
ATOM      9  S   UNL     1      -0.625  -9.252   5.884  0.00  0.00    +0.062 S 
ATOM     10  O   UNL     1       0.029 -10.475   5.574  0.00  0.00    -0.153 OA
ATOM     11  O   UNL     1      -0.112  -8.336   6.842  0.00  0.00    -0.153 OA
BRANCH   9  12
ATOM     12  C   UNL     1      -2.254  -9.670   6.409  0.00  0.00    +0.127 A 
ATOM     13  C   UNL     1      -2.637 -10.998   6.476  0.00  0.00    +0.077 A 
ATOM     14  C   UNL     1      -3.916 -11.326   6.888  0.00  0.00    +0.145 A 
ATOM     15  C   UNL     1      -4.815 -10.318   7.234  0.00  0.00    +0.077 A 
ATOM     16  C   UNL     1      -4.426  -8.991   7.166  0.00  0.00    +0.049 A 
ATOM     17  C   UNL     1      -3.143  -8.669   6.758  0.00  0.00    +0.069 A 
ATOM     18 CL   UNL     1      -2.651  -7.007   6.679  0.00  0.00    -0.081 Cl
ATOM     19  N   UNL     1      -6.109 -10.666   7.649  0.00  0.00    -0.279 N 
ATOM     20  C   UNL     1      -6.360 -11.944   8.006  0.00  0.00    +0.258 C 
ATOM     21  O   UNL     1      -7.479 -12.274   8.339  0.00  0.00    -0.271 OA
ATOM     22  C   UNL     1      -5.245 -12.958   7.989  0.00  0.00    +0.256 C 
ATOM     23  O   UNL     1      -4.309 -12.626   6.960  0.00  0.00    -0.478 OA
ATOM     24  C   UNL     1      -4.534 -12.957   9.344  0.00  0.00    +0.062 C 
ATOM     25  H   UNL     1      -6.812  -9.998   7.679  0.00  0.00    +0.155 HD
ENDBRANCH   9  12
ENDBRANCH   6   9
BRANCH   1  27
ATOM     26  C   UNL     1       0.063  -4.246  -0.022  0.00  0.00    +0.013 C 
ATOM     27  C   UNL     1       0.078  -4.926   1.142  0.00  0.00    +0.068 C 
BRANCH  26  32
ATOM     28  C   UNL     1       0.007   1.503   0.008  0.00  0.00    +0.044 C 
ATOM     29  C   UNL     1       0.022  -0.004  -0.000  0.00  0.00    -0.050 A 
ATOM     30  C   UNL     1       0.020  -0.686  -1.204  0.00  0.00    +0.004 A 
ATOM     31  C   UNL     1       0.034  -2.065  -1.220  0.00  0.00    +0.008 A 
ATOM     32  C   UNL     1       0.049  -2.774  -0.014  0.00  0.00    -0.025 A 
ATOM     33  C   UNL     1       0.051  -2.078   1.198  0.00  0.00    +0.008 A 
ATOM     34  C   UNL     1       0.043  -0.699   1.197  0.00  0.00    +0.004 A 
ENDBRANCH  26  32
ENDBRANCH   1  27
TORSDOF 4
