REMARK  Name = ZINC01745251
REMARK  9 active torsions:
REMARK  status: ('A' for Active; 'I' for Inactive)
REMARK    1  A    between atoms: C_1  and  C_2
REMARK    2  A    between atoms: C_3  and  C_29
REMARK    3  A    between atoms: C_4  and  C_22
REMARK    4  A    between atoms: C_10  and  C_11
REMARK    5  A    between atoms: C_29  and  O_31
REMARK    6  A    between atoms: O_31  and  C_32
REMARK    7  A    between atoms: C_32  and  C_33
REMARK    8  A    between atoms: C_33  and  O_34
REMARK    9  A    between atoms: O_34  and  C_35
REMARK                            x       y       z     vdW  Elec       q    Type
REMARK                         _______ _______ _______ _____ _____    ______ ____
ROOT
ATOM      1  C   UNL     1       1.377   0.836  -1.948  0.00  0.00    +0.066 C 
ATOM      2  C   UNL     1       0.827  -0.541  -1.679  0.00  0.00    +0.053 C 
ATOM      3  C   UNL     1      -0.494  -0.801  -1.911  0.00  0.00    +0.085 C 
ATOM      4  C   UNL     1      -1.006  -2.195  -1.630  0.00  0.00    +0.163 C 
ATOM      5  N   UNL     1      -0.023  -3.189  -1.116  0.00  0.00    -0.275 N 
ATOM      6  C   UNL     1      -0.283  -4.467  -0.810  0.00  0.00    +0.268 A 
ATOM      7  O   UNL     1      -1.403  -4.926  -0.938  0.00  0.00    -0.266 OA
ATOM      8  C   UNL     1       0.825  -5.297  -0.315  0.00  0.00    +0.081 A 
ATOM      9  C   UNL     1       0.825  -6.602   0.059  0.00  0.00    +0.030 C 
ATOM     10  S   UNL     1       2.171  -4.123  -0.340  0.00  0.00    -0.046 S 
ATOM     11  C   UNL     1       1.260  -2.719  -0.953  0.00  0.00    +0.178 A 
ATOM     12  N   UNL     1       1.632  -1.494  -1.225  0.00  0.00    -0.228 NA
ENDROOT
BRANCH   9  13
ATOM     13  C   UNL     1       2.093  -7.279   0.361  0.00  0.00    -0.005 A 
ATOM     14  C   UNL     1       3.304  -6.736  -0.083  0.00  0.00    +0.011 A 
ATOM     15  C   UNL     1       4.489  -7.377   0.204  0.00  0.00    +0.020 A 
ATOM     16  C   UNL     1       4.485  -8.557   0.930  0.00  0.00    +0.042 A 
ATOM     17  C   UNL     1       3.292  -9.103   1.373  0.00  0.00    +0.040 A 
ATOM     18  C   UNL     1       2.097  -8.470   1.099  0.00  0.00    +0.050 A 
ATOM     19 CL   UNL     1       0.602  -9.151   1.661  0.00  0.00    -0.083 Cl
ATOM     20 CL   UNL     1       5.984  -9.357   1.286  0.00  0.00    -0.083 Cl
ENDBRANCH   9  13
BRANCH   4  21
ATOM     21  C   UNL     1      -1.592  -2.740  -2.906  0.00  0.00    -0.002 A 
ATOM     22  C   UNL     1      -0.807  -3.490  -3.762  0.00  0.00    +0.007 A 
ATOM     23  C   UNL     1      -1.344  -3.991  -4.933  0.00  0.00    +0.000 A 
ATOM     24  C   UNL     1      -2.667  -3.741  -5.250  0.00  0.00    +0.001 A 
ATOM     25  C   UNL     1      -3.452  -2.991  -4.395  0.00  0.00    +0.020 A 
ATOM     26  C   UNL     1      -2.917  -2.495  -3.220  0.00  0.00    +0.046 A 
ATOM     27 CL   UNL     1      -3.905  -1.558  -2.143  0.00  0.00    -0.083 Cl
ENDBRANCH   4  21
BRANCH   3  28
ATOM     28  C   UNL     1      -1.352   0.200  -2.397  0.00  0.00    +0.339 C 
ATOM     29  O   UNL     1      -2.072   0.812  -1.628  0.00  0.00    -0.245 OA
BRANCH  28  30
ATOM     30  O   UNL     1      -1.380   0.483  -3.718  0.00  0.00    -0.459 OA
BRANCH  30  31
ATOM     31  C   UNL     1      -2.192   1.585  -4.128  0.00  0.00    +0.260 C 
BRANCH  31  32
ATOM     32  C   UNL     1      -2.184   1.684  -5.654  0.00  0.00    +0.200 C 
BRANCH  32  33
ATOM     33  O   UNL     1      -2.773   0.508  -6.211  0.00  0.00    -0.380 OA
ATOM     34  C   UNL     1      -2.816   0.499  -7.640  0.00  0.00    +0.194 C 
ENDBRANCH  32  33
ENDBRANCH  31  32
ENDBRANCH  30  31
ENDBRANCH  28  30
ENDBRANCH   3  28
TORSDOF 7
