REMARK  Name = ZINC12052078
REMARK  9 active torsions:
REMARK  status: ('A' for Active; 'I' for Inactive)
REMARK    1  A    between atoms: C_1  and  C_2
REMARK    2  A    between atoms: C_2  and  C_3
REMARK    3  A    between atoms: C_2  and  N_4
REMARK    4  A    between atoms: C_5  and  C_7
REMARK    5  A    between atoms: C_10  and  S_21
REMARK    6  A    between atoms: C_13  and  C_14
REMARK    7  A    between atoms: C_13  and  N_55
REMARK    8  A    between atoms: C_17  and  O_20
REMARK    9  A    between atoms: S_21  and  C_22
REMARK                            x       y       z     vdW  Elec       q    Type
REMARK                         _______ _______ _______ _____ _____    ______ ____
ROOT
ATOM      1  C   UNL     1       0.002  -0.004   0.002  0.00  0.00    +0.021 C 
ATOM      2  C   UNL     1      -0.670  -0.559   1.276  0.00  0.00    +0.006 C 
ATOM      3  C   UNL     1       0.163  -1.799   1.661  0.00  0.00    +0.037 C 
ATOM      4  C   UNL     1       1.268  -1.889   0.587  0.00  0.00    -0.063 C 
ATOM      5  N   UNL     1       1.369  -0.515   0.084  0.00  0.00    +0.391 N 
ATOM      6  H   UNL     1       1.919   0.058   0.735  0.00  0.00    -0.080 HD
ENDROOT
BRANCH   1   8
ATOM      7  N   UNL     1      -1.195   2.161   0.019  0.00  0.00    -0.314 N 
ATOM      8  C   UNL     1      -0.018   1.503   0.010  0.00  0.00    +0.200 C 
ATOM      9  O   UNL     1       1.024   2.123   0.004  0.00  0.00    -0.278 OA
ATOM     10  H   UNL     1      -2.028   1.664   0.021  0.00  0.00    +0.149 HD
BRANCH   7  12
ATOM     11  C   UNL     1      -2.531   4.121  -0.573  0.00  0.00    +0.027 C 
ATOM     12  C   UNL     1      -1.214   3.626   0.028  0.00  0.00    +0.067 C 
ATOM     13  C   UNL     1      -1.089   4.129   1.467  0.00  0.00    +0.027 C 
ENDBRANCH   7  12
ENDBRANCH   1   8
BRANCH   5  14
ATOM     14  C   UNL     1       2.024  -0.497  -1.262  0.00  0.00    -0.042 C 
BRANCH  14  15
ATOM     15  C   UNL     1       3.500  -0.771  -1.125  0.00  0.00    -0.064 A 
ATOM     16  C   UNL     1       4.385   0.279  -0.963  0.00  0.00    +0.005 A 
ATOM     17  C   UNL     1       5.737   0.030  -0.832  0.00  0.00    +0.045 A 
ATOM     18  C   UNL     1       6.209  -1.274  -0.874  0.00  0.00    +0.117 A 
ATOM     19  C   UNL     1       5.319  -2.325  -1.041  0.00  0.00    +0.045 A 
ATOM     20  C   UNL     1       3.967  -2.071  -1.166  0.00  0.00    +0.005 A 
BRANCH  18  21
ATOM     21  O   UNL     1       7.539  -1.521  -0.751  0.00  0.00    -0.507 OA
ATOM     22  H   UNL     1       8.017  -1.531  -1.592  0.00  0.00    +0.292 HD
ENDBRANCH  18  21
ENDBRANCH  14  15
ENDBRANCH   5  14
BRANCH   3  23
ATOM     23  S   UNL     1      -0.871  -3.284   1.630  0.00  0.00    -0.086 S 
BRANCH  23  24
ATOM     24  C   UNL     1       0.280  -4.471   2.241  0.00  0.00    +0.167 A 
ATOM     25  N   UNL     1       0.015  -5.798   2.426  0.00  0.00    -0.333 N 
ATOM     26  H   UNL     1      -0.851  -6.262   2.241  0.00  0.00    +0.168 HD
ATOM     27  C   UNL     1       1.172  -6.383   2.916  0.00  0.00    +0.067 A 
ATOM     28  C   UNL     1       1.513  -7.675   3.288  0.00  0.00    +0.028 A 
ATOM     29  C   UNL     1       2.784  -7.943   3.751  0.00  0.00    +0.002 A 
ATOM     30  C   UNL     1       3.725  -6.928   3.848  0.00  0.00    +0.002 A 
ATOM     31  C   UNL     1       3.404  -5.640   3.484  0.00  0.00    +0.030 A 
ATOM     32  C   UNL     1       2.121  -5.352   3.012  0.00  0.00    +0.090 A 
ATOM     33  N   UNL     1       1.519  -4.212   2.581  0.00  0.00    -0.222 NA
ENDBRANCH  23  24
ENDBRANCH   3  23
TORSDOF 7
