REMARK  Name = ZINC43409902
REMARK  2 active torsions:
REMARK  status: ('A' for Active; 'I' for Inactive)
REMARK    1  A    between atoms: C_6  and  C_7
REMARK    2  A    between atoms: C_7  and  N_8
REMARK                            x       y       z     vdW  Elec       q    Type
REMARK                         _______ _______ _______ _____ _____    ______ ____
ROOT
ATOM      1  C   UNL     1      -0.017   1.378   0.010  0.00  0.00    +0.010 A 
ATOM      2  C   UNL     1       1.193   2.069   0.002  0.00  0.00    -0.026 A 
ATOM      3  C   UNL     1       2.373   1.361  -0.010  0.00  0.00    +0.047 A 
ATOM      4  N   UNL     1       2.353   0.034  -0.021  0.00  0.00    -0.232 NA
ATOM      5  C   UNL     1       1.229  -0.656  -0.015  0.00  0.00    +0.156 A 
ATOM      6  C   UNL     1       0.002  -0.004   0.002  0.00  0.00    -0.020 A 
ATOM      7  N   UNL     1       1.272  -2.054  -0.027  0.00  0.00    -0.220 N 
ATOM      8  C   UNL     1       2.289  -2.820  -0.503  0.00  0.00    +0.136 A 
ATOM      9  C   UNL     1       1.940  -4.116  -0.330  0.00  0.00    +0.079 A 
ATOM     10  C   UNL     1       0.675  -4.147   0.268  0.00  0.00    +0.154 A 
ATOM     11  N   UNL     1       0.277  -2.914   0.455  0.00  0.00    -0.172 NA
ATOM     12 CL   UNL     1       2.894  -5.498  -0.772  0.00  0.00    -0.080 Cl
ATOM     13  C   UNL     1       3.719   2.038  -0.002  0.00  0.00    +0.056 C 
ATOM     14  C   UNL     1       3.588   3.499  -0.423  0.00  0.00    +0.006 C 
ATOM     15  C   UNL     1       2.493   4.153   0.427  0.00  0.00    +0.005 C 
ATOM     16  C   UNL     1       1.145   3.573   0.003  0.00  0.00    +0.037 C 
ENDROOT
BRANCH   6  17
ATOM     17  C   UNL     1      -1.284  -0.789   0.013  0.00  0.00    -0.047 C 
BRANCH  17  18
ATOM     18  N   UNL     1      -1.562  -1.257   1.377  0.00  0.00    +0.381 N 
ATOM     19  H   UNL     1      -0.805  -1.846   1.691  0.00  0.00    -0.090 HD
ATOM     20  H   UNL     1      -1.647  -0.463   1.994  0.00  0.00    -0.090 HD
ATOM     21  H   UNL     1      -2.423  -1.782   1.384  0.00  0.00    -0.090 HD
ENDBRANCH  17  18
ENDBRANCH   6  17
TORSDOF 2
