REMARK  Name = ZINC33689832
REMARK  11 active torsions:
REMARK  status: ('A' for Active; 'I' for Inactive)
REMARK    1  A    between atoms: C_1  and  C_2
REMARK    2  A    between atoms: C_2  and  C_35
REMARK    3  A    between atoms: N_9  and  C_34
REMARK    4  A    between atoms: C_11  and  C_12
REMARK    5  A    between atoms: N_16  and  C_29
REMARK    6  A    between atoms: N_18  and  S_19
REMARK    7  A    between atoms: S_19  and  C_22
REMARK    8  A    between atoms: C_29  and  C_30
REMARK    9  A    between atoms: C_30  and  C_31
REMARK   10  A    between atoms: C_31  and  O_32
REMARK   11  A    between atoms: O_32  and  C_33
REMARK                            x       y       z     vdW  Elec       q    Type
REMARK                         _______ _______ _______ _____ _____    ______ ____
ROOT
ATOM      1  C   UNL     1       2.144  -1.256   2.998  0.00  0.00    +0.022 C 
ATOM      2  C   UNL     1       3.378  -1.047   3.546  0.00  0.00    +0.078 C 
ATOM      3  C   UNL     1       4.412  -0.167   3.124  0.00  0.00    +0.259 C 
ATOM      4  O   UNL     1       4.267   0.542   2.143  0.00  0.00    -0.269 OA
ATOM      5  N   UNL     1       5.536  -0.135   3.820  0.00  0.00    -0.245 N 
ATOM      6  C   UNL     1       5.685  -0.945   4.930  0.00  0.00    +0.189 C 
ATOM      7  N   UNL     1       6.707  -1.053   5.734  0.00  0.00    -0.105 NA
ATOM      8  S   UNL     1       4.118  -1.801   4.987  0.00  0.00    -0.047 S 
ENDROOT
BRANCH   1  19
ATOM      9  C   UNL     1       0.065   1.431   0.079  0.00  0.00    +0.022 C 
ATOM     10  C   UNL     1      -0.038  -0.096   0.074  0.00  0.00    +0.030 C 
ATOM     11  C   UNL     1      -1.485  -0.529   0.046  0.00  0.00    -0.015 A 
ATOM     12  C   UNL     1      -2.500  -0.327  -0.863  0.00  0.00    +0.006 A 
ATOM     13  C   UNL     1      -3.758  -0.853  -0.624  0.00  0.00    +0.000 A 
ATOM     14  C   UNL     1      -3.991  -1.580   0.530  0.00  0.00    +0.002 A 
ATOM     15  C   UNL     1      -2.978  -1.784   1.442  0.00  0.00    +0.024 A 
ATOM     16  C   UNL     1      -1.708  -1.257   1.208  0.00  0.00    +0.038 A 
ATOM     17  N   UNL     1      -0.542  -1.328   1.968  0.00  0.00    -0.306 N 
ATOM     18  C   UNL     1       0.496  -0.667   1.371  0.00  0.00    +0.021 C 
ATOM     19  C   UNL     1       1.756  -0.546   1.847  0.00  0.00    +0.021 C 
ATOM     20  C   UNL     1      -0.441  -2.025   3.253  0.00  0.00    +0.135 C 
ATOM     21  C   UNL     1       0.721  -0.678  -1.120  0.00  0.00    +0.022 C 
ENDBRANCH   1  19
BRANCH   7  22
ATOM     22  S   UNL     1       6.649  -2.106   7.011  0.00  0.00    +0.101 S 
ATOM     23  O   UNL     1       5.653  -1.615   7.898  0.00  0.00    -0.146 OA
ATOM     24  O   UNL     1       6.597  -3.414   6.457  0.00  0.00    -0.146 OA
BRANCH  22  25
ATOM     25  C   UNL     1       8.187  -1.980   7.862  0.00  0.00    +0.113 A 
ATOM     26  C   UNL     1       9.246  -2.791   7.499  0.00  0.00    +0.029 A 
ATOM     27  C   UNL     1      10.452  -2.692   8.166  0.00  0.00    +0.002 A 
ATOM     28  C   UNL     1      10.600  -1.782   9.196  0.00  0.00    +0.000 A 
ATOM     29  C   UNL     1       9.541  -0.970   9.558  0.00  0.00    +0.002 A 
ATOM     30  C   UNL     1       8.336  -1.066   8.888  0.00  0.00    +0.029 A 
ENDBRANCH  22  25
ENDBRANCH   7  22
BRANCH   5  31
ATOM     31  C   UNL     1       6.623   0.759   3.415  0.00  0.00    +0.118 C 
BRANCH  31  32
ATOM     32  C   UNL     1       6.455   2.113   4.108  0.00  0.00    +0.047 C 
BRANCH  32  33
ATOM     33  C   UNL     1       7.591   3.047   3.685  0.00  0.00    +0.161 C 
BRANCH  33  34
ATOM     34  O   UNL     1       7.434   4.311   4.333  0.00  0.00    -0.383 OA
ATOM     35  C   UNL     1       8.449   5.262   4.004  0.00  0.00    +0.193 C 
ENDBRANCH  33  34
ENDBRANCH  32  33
ENDBRANCH  31  32
ENDBRANCH   5  31
TORSDOF 7
