REMARK  Name = ZINC33051295
REMARK  4 active torsions:
REMARK  status: ('A' for Active; 'I' for Inactive)
REMARK    1  A    between atoms: C_1  and  C_2
REMARK    2  A    between atoms: N_5  and  C_7
REMARK    3  A    between atoms: C_18  and  C_33
REMARK    4  A    between atoms: N_24  and  C_25
REMARK                            x       y       z     vdW  Elec       q    Type
REMARK                         _______ _______ _______ _____ _____    ______ ____
ROOT
ATOM      1  C   UNL     1       1.699   3.257   0.831  0.00  0.00    +0.068 C 
ATOM      2  C   UNL     1       1.237   1.823   0.834  0.00  0.00    +0.067 A 
ATOM      3  C   UNL     1       2.043   0.707   0.634  0.00  0.00    +0.035 A 
ATOM      4  C   UNL     1       1.249  -0.399   0.739  0.00  0.00    +0.146 A 
ATOM      5  N   UNL     1      -0.015   0.011   0.954  0.00  0.00    -0.215 N 
ATOM      6  N   UNL     1       0.004   1.414   1.026  0.00  0.00    -0.169 NA
ATOM      7  N   UNL     1       1.802  -1.683   0.669  0.00  0.00    -0.303 N 
ATOM      8  C   UNL     1       1.386  -2.787   0.008  0.00  0.00    +0.093 A 
ATOM      9  C   UNL     1       2.311  -3.756   0.194  0.00  0.00    +0.020 A 
ATOM     10  C   UNL     1       3.323  -3.224   1.024  0.00  0.00    +0.025 A 
ATOM     11  C   UNL     1       2.975  -1.963   1.324  0.00  0.00    +0.050 A 
ATOM     12  C   UNL     1       3.659  -0.990   2.239  0.00  0.00    +0.155 C 
ATOM     13  N   UNL     1       4.284   0.120   1.482  0.00  0.00    -0.268 N 
ATOM     14  C   UNL     1       3.511   0.641   0.329  0.00  0.00    +0.151 C 
ATOM     15  C   UNL     1       5.485   0.628   1.822  0.00  0.00    +0.308 C 
ATOM     16  O   UNL     1       6.089   0.173   2.775  0.00  0.00    -0.252 OA
ATOM     17  N   UNL     1       6.017   1.638   1.107  0.00  0.00    -0.267 N 
ATOM     18  H   UNL     1       5.444   2.091   0.284  0.00  0.00    +0.156 HD
ENDROOT
BRANCH  17  19
ATOM     19  C   UNL     1       7.300   2.112   1.410  0.00  0.00    +0.073 A 
ATOM     20  C   UNL     1       7.742   2.128   2.726  0.00  0.00    +0.064 A 
ATOM     21  C   UNL     1       9.009   2.596   3.022  0.00  0.00    +0.125 A 
ATOM     22  C   UNL     1       9.837   3.049   2.008  0.00  0.00    +0.041 A 
ATOM     23  C   UNL     1       9.399   3.035   0.697  0.00  0.00    +0.043 A 
ATOM     24  C   UNL     1       8.135   2.562   0.394  0.00  0.00    +0.145 A 
ATOM     25  F   UNL     1       7.710   2.543  -0.889  0.00  0.00    -0.204 F 
ATOM     26  F   UNL     1       9.441   2.611   4.303  0.00  0.00    -0.205 F 
ENDBRANCH  17  19
BRANCH   5  27
ATOM     27  C   UNL     1      -1.143  -0.811   1.083  0.00  0.00    +0.068 A 
ATOM     28  C   UNL     1      -1.036  -2.047   1.705  0.00  0.00    +0.028 A 
ATOM     29  C   UNL     1      -2.151  -2.852   1.836  0.00  0.00    +0.002 A 
ATOM     30  C   UNL     1      -3.370  -2.433   1.337  0.00  0.00    +0.000 A 
ATOM     31  C   UNL     1      -3.479  -1.204   0.712  0.00  0.00    +0.002 A 
ATOM     32  C   UNL     1      -2.369  -0.392   0.583  0.00  0.00    +0.028 A 
ENDBRANCH   5  27
BRANCH  12  33
ATOM     33  C   UNL     1       2.647  -0.422   3.200  0.00  0.00    -0.021 A 
ATOM     34  C   UNL     1       2.794   0.867   3.677  0.00  0.00    +0.006 A 
ATOM     35  C   UNL     1       1.863   1.389   4.556  0.00  0.00    +0.000 A 
ATOM     36  C   UNL     1       0.790   0.618   4.965  0.00  0.00    +0.000 A 
ATOM     37  C   UNL     1       0.647  -0.673   4.492  0.00  0.00    +0.000 A 
ATOM     38  C   UNL     1       1.575  -1.193   3.610  0.00  0.00    +0.006 A 
ENDBRANCH  12  33
TORSDOF 3
