REMARK  Name = ZINC39673563
REMARK  11 active torsions:
REMARK  status: ('A' for Active; 'I' for Inactive)
REMARK    1  A    between atoms: C_1  and  C_2
REMARK    2  A    between atoms: C_2  and  C_3
REMARK    3  A    between atoms: C_3  and  C_4
REMARK    4  A    between atoms: C_4  and  C_6
REMARK    5  A    between atoms: C_4  and  N_7
REMARK    6  A    between atoms: C_8  and  C_10
REMARK    7  A    between atoms: C_21  and  C_23
REMARK    8  A    between atoms: C_26  and  O_31
REMARK    9  A    between atoms: C_28  and  O_29
REMARK   10  A    between atoms: O_29  and  C_30
REMARK   11  A    between atoms: O_31  and  C_32
REMARK                            x       y       z     vdW  Elec       q    Type
REMARK                         _______ _______ _______ _____ _____    ______ ____
ROOT
ATOM      1  C   UNL     1       2.669  -4.515  -1.628  0.00  0.00    +0.100 C 
ATOM      2  C   UNL     1       2.185  -3.579  -2.759  0.00  0.00    +0.121 C 
ATOM      3  N   UNL     1       2.010  -4.468  -3.931  0.00  0.00    -0.296 N 
ATOM      4  C   UNL     1       1.429  -5.711  -3.369  0.00  0.00    +0.115 C 
ATOM      5  C   UNL     1       2.171  -5.913  -2.032  0.00  0.00    -0.004 C 
ATOM      6  C   UNL     1       3.351  -6.860  -2.222  0.00  0.00    -0.010 C 
ATOM      7  C   UNL     1       2.828  -8.257  -2.567  0.00  0.00    -0.082 C 
ATOM      8  N   UNL     1       1.958  -8.737  -1.487  0.00  0.00    +0.379 N 
ATOM      9  C   UNL     1       0.777  -7.872  -1.372  0.00  0.00    -0.082 C 
ATOM     10  C   UNL     1       1.214  -6.459  -0.977  0.00  0.00    -0.010 C 
ATOM     11  C   UNL     1       2.311  -4.206  -5.219  0.00  0.00    +0.250 C 
ATOM     12  O   UNL     1       2.020  -5.007  -6.086  0.00  0.00    -0.270 OA
ATOM     13  H   UNL     1       1.663  -9.681  -1.688  0.00  0.00    -0.086 HD
ATOM     14  H   UNL     1       2.468  -8.725  -0.616  0.00  0.00    -0.086 HD
ENDROOT
BRANCH  11  15
ATOM     15  C   UNL     1       2.991  -2.949  -5.575  0.00  0.00    +0.079 A 
ATOM     16  C   UNL     1       2.706  -1.773  -4.872  0.00  0.00    +0.020 A 
ATOM     17  C   UNL     1       3.344  -0.601  -5.208  0.00  0.00    +0.046 A 
ATOM     18  C   UNL     1       4.272  -0.580  -6.245  0.00  0.00    +0.124 A 
ATOM     19  C   UNL     1       4.561  -1.740  -6.948  0.00  0.00    +0.092 A 
ATOM     20  C   UNL     1       3.931  -2.927  -6.616  0.00  0.00    +0.136 A 
BRANCH  20  21
ATOM     21  O   UNL     1       4.217  -4.064  -7.299  0.00  0.00    -0.494 OA
ATOM     22  C   UNL     1       5.184  -3.966  -8.346  0.00  0.00    +0.277 C 
ENDBRANCH  20  21
BRANCH  18  23
ATOM     23  O   UNL     1       4.897   0.580  -6.569  0.00  0.00    -0.495 OA
ATOM     24  C   UNL     1       4.552   1.738  -5.805  0.00  0.00    +0.277 C 
ENDBRANCH  18  23
ENDBRANCH  11  15
BRANCH   1  26
ATOM     25  N   UNL     1       2.728  -4.338   0.838  0.00  0.00    -0.312 N 
ATOM     26  C   UNL     1       2.064  -4.103  -0.311  0.00  0.00    +0.218 C 
ATOM     27  O   UNL     1       0.980  -3.560  -0.284  0.00  0.00    -0.275 OA
ATOM     28  H   UNL     1       3.595  -4.772   0.817  0.00  0.00    +0.149 HD
BRANCH  25  29
ATOM     29  C   UNL     1       2.140  -3.937   2.119  0.00  0.00    +0.070 C 
ATOM     30  C   UNL     1       1.196  -5.035   2.612  0.00  0.00    +0.028 C 
BRANCH  29  31
ATOM     31  C   UNL     1       3.254  -3.723   3.146  0.00  0.00    +0.022 C 
BRANCH  31  33
ATOM     32  C   UNL     1       5.240  -2.329   3.742  0.00  0.00    +0.004 C 
ATOM     33  C   UNL     1       4.126  -2.543   2.715  0.00  0.00    -0.002 C 
ENDBRANCH  31  33
ENDBRANCH  29  31
ENDBRANCH  25  29
ENDBRANCH   1  26
TORSDOF 7
