REMARK  Name = ZINC63390359
REMARK  10 active torsions:
REMARK  status: ('A' for Active; 'I' for Inactive)
REMARK    1  A    between atoms: C_1  and  C_2
REMARK    2  A    between atoms: C_2  and  C_3
REMARK    3  A    between atoms: C_3  and  C_4
REMARK    4  A    between atoms: C_4  and  C_5
REMARK    5  A    between atoms: C_14  and  O_16
REMARK    6  A    between atoms: O_16  and  C_17
REMARK    7  A    between atoms: C_17  and  C_18
REMARK    8  A    between atoms: C_33  and  C_35
REMARK    9  A    between atoms: C_35  and  O_37
REMARK   10  A    between atoms: O_37  and  C_38
REMARK                            x       y       z     vdW  Elec       q    Type
REMARK                         _______ _______ _______ _____ _____    ______ ____
ROOT
ATOM      1  C   UNL     1      -7.480  -5.736   6.715  0.00  0.00    +0.254 C 
ATOM      2  O   UNL     1      -6.813  -5.248   7.603  0.00  0.00    -0.272 OA
ATOM      3  N   UNL     1      -8.775  -5.389   6.577  0.00  0.00    -0.283 N 
ATOM      4  C   UNL     1      -9.552  -5.910   5.441  0.00  0.00    +0.137 C 
ATOM      5  C   UNL     1     -10.053  -4.713   4.627  0.00  0.00    +0.124 C 
ATOM      6  C   UNL     1     -10.680  -3.743   5.620  0.00  0.00    -0.035 C 
ATOM      7  C   UNL     1     -11.925  -3.534   5.206  0.00  0.00    -0.001 A 
ATOM      8  C   UNL     1     -12.989  -2.651   5.709  0.00  0.00    +0.010 A 
ATOM      9  C   UNL     1     -14.171  -2.695   5.039  0.00  0.00    +0.001 A 
ATOM     10  C   UNL     1     -14.398  -3.521   3.933  0.00  0.00    +0.002 A 
ATOM     11  C   UNL     1     -13.475  -4.361   3.401  0.00  0.00    +0.026 A 
ATOM     12  C   UNL     1     -12.190  -4.399   4.016  0.00  0.00    +0.043 A 
ATOM     13  N   UNL     1     -11.115  -5.096   3.694  0.00  0.00    -0.376 N 
ATOM     14  C   UNL     1      -9.948  -3.251   6.845  0.00  0.00    +0.067 C 
ATOM     15  C   UNL     1      -9.399  -4.502   7.564  0.00  0.00    +0.189 C 
ATOM     16  H   UNL     1     -11.034  -5.745   2.978  0.00  0.00    +0.160 HD
ENDROOT
BRANCH  15  17
ATOM     17  C   UNL     1      -8.372  -4.086   8.586  0.00  0.00    +0.328 C 
ATOM     18  O   UNL     1      -7.525  -3.274   8.296  0.00  0.00    -0.249 OA
BRANCH  17  19
ATOM     19  O   UNL     1      -8.398  -4.616   9.819  0.00  0.00    -0.467 OA
ATOM     20  C   UNL     1      -7.395  -4.176  10.736  0.00  0.00    +0.280 C 
ENDBRANCH  17  19
ENDBRANCH  15  17
BRANCH   1  21
ATOM     21  C   UNL     1      -6.860  -6.729   5.766  0.00  0.00    +0.324 C 
BRANCH  21  22
ATOM     22  O   UNL     1      -5.489  -6.930   6.115  0.00  0.00    -0.481 OA
BRANCH  22  32
ATOM     23  C   UNL     1      -2.568 -10.521   2.985  0.00  0.00    -0.030 A 
ATOM     24  C   UNL     1      -3.216 -11.134   1.960  0.00  0.00    +0.096 A 
ATOM     25  C   UNL     1      -4.575 -10.848   1.719  0.00  0.00    +0.337 A 
ATOM     26  O   UNL     1      -5.144 -11.405   0.797  0.00  0.00    -0.245 OA
ATOM     27  O   UNL     1      -5.259  -9.979   2.479  0.00  0.00    -0.422 OA
ATOM     28  C   UNL     1      -4.675  -9.335   3.513  0.00  0.00    +0.143 A 
ATOM     29  C   UNL     1      -3.321  -9.577   3.813  0.00  0.00    +0.022 A 
ATOM     30  C   UNL     1      -2.713  -8.917   4.887  0.00  0.00    +0.035 A 
ATOM     31  C   UNL     1      -3.438  -8.041   5.644  0.00  0.00    +0.083 A 
ATOM     32  C   UNL     1      -4.781  -7.802   5.354  0.00  0.00    +0.143 A 
ATOM     33  C   UNL     1      -5.395  -8.440   4.288  0.00  0.00    +0.094 A 
ATOM     34 CL   UNL     1      -2.684  -7.222   6.975  0.00  0.00    -0.080 Cl
BRANCH  23  35
ATOM     35  C   UNL     1      -1.115 -10.809   3.264  0.00  0.00    +0.036 C 
BRANCH  35  36
ATOM     36  C   UNL     1      -0.245  -9.752   2.580  0.00  0.00    +0.004 C 
BRANCH  36  38
ATOM     37  C   UNL     1       2.100  -8.988   2.180  0.00  0.00    +0.004 C 
ATOM     38  C   UNL     1       1.230 -10.044   2.865  0.00  0.00    -0.003 C 
ENDBRANCH  36  38
ENDBRANCH  35  36
ENDBRANCH  23  35
ENDBRANCH  22  32
ENDBRANCH  21  22
ENDBRANCH   1  21
TORSDOF 8
