REMARK  Name = ZINC04708164
REMARK  2 active torsions:
REMARK  status: ('A' for Active; 'I' for Inactive)
REMARK    1  A    between atoms: C_4  and  C_7
REMARK    2  A    between atoms: C_12  and  C_22
REMARK                            x       y       z     vdW  Elec       q    Type
REMARK                         _______ _______ _______ _____ _____    ______ ____
ROOT
ATOM      1  C   UNL     1       4.241   3.925   3.939  0.00  0.00    +0.032 C 
ATOM      2  C   UNL     1       3.637   5.264   3.518  0.00  0.00    +0.059 C 
ATOM      3  C   UNL     1       3.351   5.245   2.025  0.00  0.00    +0.017 C 
ATOM      4  C   UNL     1       2.905   4.129   1.428  0.00  0.00    +0.030 C 
ATOM      5  C   UNL     1       2.451   3.939  -0.000  0.00  0.00    +0.117 C 
ATOM      6  S   UNL     1       2.194   5.478  -0.902  0.00  0.00    -0.110 S 
ATOM      7  C   UNL     1       3.788   6.226  -0.962  0.00  0.00    +0.030 A 
ATOM      8  C   UNL     1       4.445   6.430  -2.164  0.00  0.00    +0.016 A 
ATOM      9  C   UNL     1       5.732   6.940  -2.147  0.00  0.00    +0.001 A 
ATOM     10  C   UNL     1       6.349   7.242  -0.946  0.00  0.00    +0.002 A 
ATOM     11  C   UNL     1       5.681   7.057   0.253  0.00  0.00    +0.024 A 
ATOM     12  C   UNL     1       4.387   6.563   0.234  0.00  0.00    +0.045 A 
ATOM     13  N   UNL     1       3.628   6.395   1.378  0.00  0.00    -0.317 N 
ATOM     14  C   UNL     1       2.827   2.927   2.180  0.00  0.00    +0.163 C 
ATOM     15  O   UNL     1       2.429   1.923   1.623  0.00  0.00    -0.292 OA
ATOM     16  C   UNL     1       3.211   2.835   3.623  0.00  0.00    +0.088 C 
ATOM     17  H   UNL     1       3.250   7.202   1.762  0.00  0.00    +0.152 HD
ENDROOT
BRANCH   5  18
ATOM     18  C   UNL     1       1.157   3.167   0.007  0.00  0.00    -0.011 A 
ATOM     19  C   UNL     1       0.002   3.758   0.485  0.00  0.00    +0.006 A 
ATOM     20  C   UNL     1      -1.185   3.050   0.492  0.00  0.00    +0.000 A 
ATOM     21  C   UNL     1      -1.219   1.752   0.018  0.00  0.00    +0.001 A 
ATOM     22  C   UNL     1      -0.065   1.158  -0.455  0.00  0.00    +0.020 A 
ATOM     23  C   UNL     1       1.124   1.867  -0.463  0.00  0.00    +0.046 A 
ATOM     24 CL   UNL     1       2.574   1.124  -1.064  0.00  0.00    -0.083 Cl
ENDBRANCH   5  18
BRANCH   1  28
ATOM     25  C   UNL     1       5.077   3.964   8.128  0.00  0.00    +0.000 A 
ATOM     26  C   UNL     1       6.101   3.766   7.221  0.00  0.00    +0.000 A 
ATOM     27  C   UNL     1       5.830   3.753   5.865  0.00  0.00    +0.004 A 
ATOM     28  C   UNL     1       4.536   3.938   5.417  0.00  0.00    -0.044 A 
ATOM     29  C   UNL     1       3.513   4.143   6.324  0.00  0.00    +0.004 A 
ATOM     30  C   UNL     1       3.783   4.151   7.680  0.00  0.00    +0.000 A 
ENDBRANCH   1  28
TORSDOF 2
