REMARK  Name = ZINC09673397
REMARK  6 active torsions:
REMARK  status: ('A' for Active; 'I' for Inactive)
REMARK    1  A    between atoms: C_1  and  C_2
REMARK    2  A    between atoms: C_5  and  C_8
REMARK    3  A    between atoms: C_15  and  C_18
REMARK    4  A    between atoms: N_27  and  C_30
REMARK    5  A    between atoms: C_35  and  O_36
REMARK    6  A    between atoms: O_36  and  C_37
REMARK                            x       y       z     vdW  Elec       q    Type
REMARK                         _______ _______ _______ _____ _____    ______ ____
ROOT
ATOM      1  C   UNL     1       0.059  -4.251  -0.021  0.00  0.00    +0.261 C 
ATOM      2  O   UNL     1      -0.011  -4.854  -1.075  0.00  0.00    -0.269 OA
ATOM      3  N   UNL     1       0.176  -4.930   1.137  0.00  0.00    -0.220 N 
ATOM      4  C   UNL     1       0.319  -6.392   1.287  0.00  0.00    +0.194 C 
ATOM      5  C   UNL     1       1.063  -6.582   2.639  0.00  0.00    +0.130 C 
ATOM      6  C   UNL     1       1.244  -5.130   3.138  0.00  0.00    +0.120 C 
ATOM      7  N   UNL     1       0.189  -4.390   2.405  0.00  0.00    -0.229 NA
ATOM      8  C   UNL     1       2.399  -7.156   2.225  0.00  0.00    +0.234 C 
ATOM      9  O   UNL     1       3.304  -7.438   2.981  0.00  0.00    -0.274 OA
ATOM     10  N   UNL     1       2.426  -7.304   0.896  0.00  0.00    -0.205 N 
ATOM     11  C   UNL     1       1.305  -6.898   0.257  0.00  0.00    +0.249 C 
ATOM     12  O   UNL     1       1.105  -6.950  -0.938  0.00  0.00    -0.273 OA
ATOM     13  H   UNL     1       0.395  -3.403   2.376  0.00  0.00    +0.145 HD
ENDROOT
BRANCH   1  18
ATOM     14  C   UNL     1      -0.104   1.501   0.017  0.00  0.00    +0.044 C 
ATOM     15  C   UNL     1      -0.061  -0.005   0.007  0.00  0.00    -0.050 A 
ATOM     16  C   UNL     1       0.553  -0.670  -1.039  0.00  0.00    +0.004 A 
ATOM     17  C   UNL     1       0.596  -2.049  -1.054  0.00  0.00    +0.013 A 
ATOM     18  C   UNL     1       0.018  -2.773  -0.011  0.00  0.00    +0.038 A 
ATOM     19  C   UNL     1      -0.601  -2.097   1.041  0.00  0.00    +0.013 A 
ATOM     20  C   UNL     1      -0.632  -0.718   1.047  0.00  0.00    +0.004 A 
ENDBRANCH   1  18
BRANCH   6  21
ATOM     21  C   UNL     1       1.025  -5.047   4.627  0.00  0.00    +0.007 A 
ATOM     22  C   UNL     1      -0.218  -4.705   5.125  0.00  0.00    +0.008 A 
ATOM     23  C   UNL     1      -0.419  -4.629   6.491  0.00  0.00    +0.000 A 
ATOM     24  C   UNL     1       0.623  -4.894   7.360  0.00  0.00    +0.003 A 
ATOM     25  C   UNL     1       1.867  -5.236   6.864  0.00  0.00    +0.038 A 
ATOM     26  C   UNL     1       2.068  -5.318   5.496  0.00  0.00    +0.128 A 
ATOM     27  F   UNL     1       3.282  -5.657   5.010  0.00  0.00    -0.205 F 
ENDBRANCH   6  21
BRANCH  10  28
ATOM     28  C   UNL     1       3.536  -7.827   0.214  0.00  0.00    +0.087 A 
ATOM     29  C   UNL     1       3.632  -9.191  -0.015  0.00  0.00    +0.047 A 
ATOM     30  C   UNL     1       4.726  -9.704  -0.688  0.00  0.00    +0.043 A 
ATOM     31  C   UNL     1       5.726  -8.858  -1.134  0.00  0.00    +0.024 A 
ATOM     32  C   UNL     1       5.637  -7.497  -0.909  0.00  0.00    +0.049 A 
ATOM     33  C   UNL     1       4.540  -6.976  -0.240  0.00  0.00    +0.142 A 
ATOM     34 CL   UNL     1       4.845 -11.412  -0.974  0.00  0.00    -0.083 Cl
BRANCH  33  35
ATOM     35  O   UNL     1       4.449  -5.637  -0.023  0.00  0.00    -0.493 OA
ATOM     36  C   UNL     1       5.516  -4.825  -0.516  0.00  0.00    +0.277 C 
ENDBRANCH  33  35
ENDBRANCH  10  28
TORSDOF 4
