REMARK  Name = ZINC66859676
REMARK  7 active torsions:
REMARK  status: ('A' for Active; 'I' for Inactive)
REMARK    1  A    between atoms: C_1  and  C_2
REMARK    2  A    between atoms: C_2  and  C_3
REMARK    3  A    between atoms: C_2  and  C_4
REMARK    4  A    between atoms: C_2  and  C_5
REMARK    5  A    between atoms: C_11  and  S_13
REMARK    6  A    between atoms: S_13  and  C_14
REMARK    7  A    between atoms: C_19  and  C_20
REMARK                            x       y       z     vdW  Elec       q    Type
REMARK                         _______ _______ _______ _____ _____    ______ ____
ROOT
ATOM      1  C   UNL     1       1.017  -1.897  -0.718  0.00  0.00    +0.068 A 
ATOM      2  C   UNL     1       2.318  -1.716  -1.009  0.00  0.00    +0.139 A 
ATOM      3  N   UNL     1       2.482  -1.936  -2.370  0.00  0.00    -0.213 N 
ATOM      4  C   UNL     1       1.230  -2.244  -2.829  0.00  0.00    +0.196 A 
ATOM      5  N   UNL     1       0.374  -2.225  -1.849  0.00  0.00    -0.225 NA
ATOM      6  S   UNL     1       1.513  -2.511  -4.564  0.00  0.00    -0.021 S 
ATOM      7  C   UNL     1       3.271  -2.197  -4.569  0.00  0.00    +0.163 A 
ATOM      8  N   UNL     1       3.504  -1.925  -3.313  0.00  0.00    -0.150 NA
ENDROOT
BRANCH   1  10
ATOM      9  C   UNL     1       0.263  -0.277   1.002  0.00  0.00    +0.017 C 
ATOM     10  C   UNL     1       0.390  -1.760   0.645  0.00  0.00    +0.006 C 
ATOM     11  C   UNL     1       1.269  -2.460   1.684  0.00  0.00    +0.017 C 
ATOM     12  C   UNL     1      -0.998  -2.403   0.636  0.00  0.00    +0.017 C 
ENDBRANCH   1  10
BRANCH   7  13
ATOM     13  S   UNL     1       4.399  -2.242  -5.921  0.00  0.00    -0.060 S 
BRANCH  13  14
ATOM     14  C   UNL     1       5.911  -1.653  -5.234  0.00  0.00    +0.027 A 
ATOM     15  C   UNL     1       5.933  -1.112  -3.954  0.00  0.00    +0.016 A 
ATOM     16  C   UNL     1       7.118  -0.651  -3.419  0.00  0.00    +0.001 A 
ATOM     17  C   UNL     1       8.294  -0.725  -4.149  0.00  0.00    +0.001 A 
ATOM     18  C   UNL     1       8.293  -1.259  -5.419  0.00  0.00    +0.014 A 
ATOM     19  C   UNL     1       7.102  -1.734  -5.974  0.00  0.00    +0.050 A 
BRANCH  19  20
ATOM     20  C   UNL     1       7.094  -2.312  -7.330  0.00  0.00    +0.243 C 
ATOM     21  O   UNL     1       6.055  -2.721  -7.811  0.00  0.00    -0.270 OA
ATOM     22  N   UNL     1       8.240  -2.388  -8.037  0.00  0.00    -0.325 N 
ATOM     23  H   UNL     1       9.069  -2.062  -7.653  0.00  0.00    +0.145 HD
ATOM     24  H   UNL     1       8.235  -2.768  -8.929  0.00  0.00    +0.145 HD
ENDBRANCH  19  20
ENDBRANCH  13  14
ENDBRANCH   7  13
TORSDOF 4
