REMARK  Name = ZINC01099170
REMARK  4 active torsions:
REMARK  status: ('A' for Active; 'I' for Inactive)
REMARK    1  A    between atoms: C_3  and  C_6
REMARK    2  A    between atoms: C_6  and  N_7
REMARK    3  A    between atoms: N_10  and  C_11
REMARK    4  A    between atoms: C_11  and  C_21
REMARK                            x       y       z     vdW  Elec       q    Type
REMARK                         _______ _______ _______ _____ _____    ______ ____
ROOT
ATOM      1  C   UNL     1       3.252   2.512   0.396  0.00  0.00    +0.436 C 
ATOM      2  O   UNL     1       2.442   3.634  -0.003  0.00  0.00    -0.426 OA
ATOM      3  C   UNL     1       1.155   3.177   0.008  0.00  0.00    +0.169 A 
ATOM      4  C   UNL     1      -0.057   3.847   0.023  0.00  0.00    +0.051 A 
ATOM      5  C   UNL     1      -1.242   3.134   0.032  0.00  0.00    +0.024 A 
ATOM      6  C   UNL     1      -1.220   1.751   0.017  0.00  0.00    +0.045 A 
ATOM      7  C   UNL     1      -0.013   1.076   0.008  0.00  0.00    +0.069 A 
ATOM      8  C   UNL     1       1.178   1.785   0.000  0.00  0.00    +0.170 A 
ATOM      9  O   UNL     1       2.478   1.369  -0.015  0.00  0.00    -0.426 OA
ATOM     10 CL   UNL     1      -2.710   0.861   0.019  0.00  0.00    -0.083 Cl
ENDROOT
BRANCH   1  14
ATOM     11  N   UNL     1       2.558   2.526   4.006  0.00  0.00    -0.292 N 
ATOM     12  C   UNL     1       2.379   2.530   2.671  0.00  0.00    +0.306 C 
ATOM     13  O   UNL     1       1.255   2.554   2.208  0.00  0.00    -0.253 OA
ATOM     14  N   UNL     1       3.446   2.508   1.848  0.00  0.00    -0.220 N 
ATOM     15  H   UNL     1       3.455   2.507   4.376  0.00  0.00    +0.151 HD
ATOM     16  H   UNL     1       4.343   2.489   2.217  0.00  0.00    +0.158 HD
BRANCH  11  17
ATOM     17  C   UNL     1       1.398   2.550   4.901  0.00  0.00    +0.180 C 
BRANCH  17  20
ATOM     18  C   UNL     1       2.542   3.158   8.351  0.00  0.00    +0.041 A 
ATOM     19  C   UNL     1       2.135   3.626   7.081  0.00  0.00    +0.046 A 
ATOM     20  C   UNL     1       1.867   2.540   6.333  0.00  0.00    +0.122 A 
ATOM     21  O   UNL     1       2.084   1.446   7.081  0.00  0.00    -0.466 OA
ATOM     22  C   UNL     1       2.499   1.814   8.304  0.00  0.00    +0.195 A 
ENDBRANCH  17  20
ENDBRANCH  11  17
ENDBRANCH   1  14
BRANCH   1  23
ATOM     23  C   UNL     1       4.599   2.538  -0.329  0.00  0.00    +0.490 C 
ATOM     24  F   UNL     1       4.385   2.591  -1.710  0.00  0.00    -0.162 F 
ATOM     25  F   UNL     1       5.324   3.664   0.075  0.00  0.00    -0.162 F 
ATOM     26  F   UNL     1       5.320   1.381  -0.012  0.00  0.00    -0.162 F 
ENDBRANCH   1  23
TORSDOF 4
