REMARK  Name = ZINC00958421
REMARK  13 active torsions:
REMARK  status: ('A' for Active; 'I' for Inactive)
REMARK    1  A    between atoms: C_1  and  C_2
REMARK    2  A    between atoms: C_2  and  C_3
REMARK    3  A    between atoms: C_3  and  C_5
REMARK    4  A    between atoms: C_3  and  O_6
REMARK    5  A    between atoms: O_6  and  C_7
REMARK    6  A    between atoms: C_7  and  C_9
REMARK    7  A    between atoms: C_9  and  C_11
REMARK    8  A    between atoms: C_9  and  N_12
REMARK    9  A    between atoms: C_19  and  C_33
REMARK   10  A    between atoms: C_20  and  C_22
REMARK   11  A    between atoms: N_24  and  C_25
REMARK   12  A    between atoms: C_28  and  C_32
REMARK   13  A    between atoms: C_30  and  C_31
REMARK                            x       y       z     vdW  Elec       q    Type
REMARK                         _______ _______ _______ _____ _____    ______ ____
ROOT
ATOM      1  N   UNL     1       0.585   4.420  -0.028  0.00  0.00    -0.285 N 
ATOM      2  C   UNL     1      -0.694   3.968  -0.023  0.00  0.00    +0.204 A 
ATOM      3  N   UNL     1      -0.976   2.694  -0.017  0.00  0.00    -0.230 NA
ATOM      4  C   UNL     1      -0.023   1.770  -0.025  0.00  0.00    +0.116 A 
ATOM      5  C   UNL     1       1.348   2.114  -0.030  0.00  0.00    +0.076 A 
ATOM      6  C   UNL     1       1.629   3.568  -0.031  0.00  0.00    +0.263 A 
ATOM      7  O   UNL     1       2.774   3.983  -0.035  0.00  0.00    -0.267 OA
ATOM      8  C   UNL     1       2.244   1.042  -0.033  0.00  0.00    -0.017 A 
ATOM      9  C   UNL     1       1.771  -0.237  -0.031  0.00  0.00    +0.080 A 
ATOM     10  S   UNL     1       0.001  -0.004  -0.024  0.00  0.00    -0.064 S 
ATOM     11  C   UNL     1       3.729   1.299  -0.039  0.00  0.00    +0.046 C 
ENDROOT
BRANCH   9  12
ATOM     12  C   UNL     1       2.528  -1.493  -0.034  0.00  0.00    +0.255 C 
ATOM     13  O   UNL     1       3.745  -1.469  -0.039  0.00  0.00    -0.269 OA
ATOM     14  N   UNL     1       1.877  -2.673  -0.031  0.00  0.00    -0.281 N 
ATOM     15  H   UNL     1       0.911  -2.693   0.054  0.00  0.00    +0.155 HD
BRANCH  14  16
ATOM     16  C   UNL     1       2.594  -3.867  -0.151  0.00  0.00    +0.037 A 
ATOM     17  C   UNL     1       3.838  -3.873  -0.769  0.00  0.00    +0.024 A 
ATOM     18  C   UNL     1       4.544  -5.055  -0.885  0.00  0.00    +0.005 A 
ATOM     19  C   UNL     1       4.013  -6.231  -0.387  0.00  0.00    -0.050 A 
ATOM     20  C   UNL     1       2.776  -6.228   0.230  0.00  0.00    +0.008 A 
ATOM     21  C   UNL     1       2.067  -5.049   0.354  0.00  0.00    -0.029 A 
ATOM     22  C   UNL     1       0.721  -5.046   1.031  0.00  0.00    +0.045 C 
ATOM     23  C   UNL     1       4.786  -7.518  -0.515  0.00  0.00    +0.044 C 
ENDBRANCH  14  16
ENDBRANCH   9  12
BRANCH   1  24
ATOM     24  C   UNL     1       0.836   5.863  -0.029  0.00  0.00    +0.197 C 
ATOM     25  C   UNL     1       0.217   6.489   1.223  0.00  0.00    +0.043 C 
BRANCH  24  26
ATOM     26  C   UNL     1       0.218   6.479  -1.257  0.00  0.00    +0.330 C 
ATOM     27  O   UNL     1      -0.372   5.785  -2.050  0.00  0.00    -0.248 OA
BRANCH  26  28
ATOM     28  O   UNL     1       0.323   7.801  -1.470  0.00  0.00    -0.460 OA
BRANCH  28  29
ATOM     29  C   UNL     1      -0.297   8.326  -2.674  0.00  0.00    +0.173 C 
ATOM     30  C   UNL     1      -1.742   8.724  -2.371  0.00  0.00    +0.052 C 
BRANCH  29  32
ATOM     31  C   UNL     1       1.890   9.131  -3.575  0.00  0.00    +0.007 C 
ATOM     32  C   UNL     1       0.481   9.553  -3.154  0.00  0.00    +0.041 C 
ENDBRANCH  29  32
ENDBRANCH  28  29
ENDBRANCH  26  28
ENDBRANCH  24  26
ENDBRANCH   1  24
TORSDOF 7
