REMARK  Name = ZINC67040086
REMARK  8 active torsions:
REMARK  status: ('A' for Active; 'I' for Inactive)
REMARK    1  A    between atoms: C_1  and  C_2
REMARK    2  A    between atoms: C_3  and  C_7
REMARK    3  A    between atoms: N_9  and  C_10
REMARK    4  A    between atoms: N_18  and  C_19
REMARK    5  A    between atoms: C_19  and  C_20
REMARK    6  A    between atoms: N_22  and  C_23
REMARK    7  A    between atoms: C_23  and  C_24
REMARK    8  A    between atoms: C_23  and  C_25
REMARK                            x       y       z     vdW  Elec       q    Type
REMARK                         _______ _______ _______ _____ _____    ______ ____
ROOT
ATOM      1  C   UNL     1      -4.887  -0.927   0.025  0.00  0.00    +0.076 C 
ATOM      2  C   UNL     1      -5.337  -0.666   1.465  0.00  0.00    +0.041 C 
ATOM      3  C   UNL     1      -6.798  -0.207   1.464  0.00  0.00    +0.111 C 
ATOM      4  N   UNL     1      -7.607  -1.205   0.750  0.00  0.00    -0.286 N 
ATOM      5  C   UNL     1      -7.209  -1.596  -0.609  0.00  0.00    +0.111 C 
ATOM      6  C   UNL     1      -5.742  -2.039  -0.585  0.00  0.00    +0.041 C 
ATOM      7  C   UNL     1      -8.693  -1.752   1.331  0.00  0.00    +0.303 C 
ATOM      8  O   UNL     1      -8.958  -1.493   2.489  0.00  0.00    -0.253 OA
ATOM      9  N   UNL     1      -9.485  -2.586   0.629  0.00  0.00    -0.291 N 
ATOM     10  H   UNL     1      -9.236  -2.850  -0.270  0.00  0.00    +0.151 HD
ENDROOT
BRANCH   1  13
ATOM     11  C   UNL     1      -2.508  -0.400   0.019  0.00  0.00    +0.248 C 
ATOM     12  O   UNL     1      -2.800   0.781   0.023  0.00  0.00    -0.270 OA
ATOM     13  N   UNL     1      -3.480  -1.334   0.019  0.00  0.00    -0.308 N 
ATOM     14  H   UNL     1      -3.248  -2.276   0.016  0.00  0.00    +0.149 HD
BRANCH  11  17
ATOM     15  C   UNL     1      -0.021   1.512   0.015  0.00  0.00    +0.087 C 
ATOM     16  C   UNL     1       0.002   0.005   0.012  0.00  0.00    +0.114 A 
ATOM     17  C   UNL     1      -1.093  -0.810   0.013  0.00  0.00    +0.077 A 
ATOM     18  C   UNL     1      -0.564  -2.182   0.008  0.00  0.00    +0.054 A 
ATOM     19  C   UNL     1       0.772  -2.062   0.005  0.00  0.00    +0.196 A 
ATOM     20  O   UNL     1       1.097  -0.760   0.001  0.00  0.00    -0.467 OA
ENDBRANCH  11  17
ENDBRANCH   1  13
BRANCH   9  21
ATOM     21  C   UNL     1     -10.724  -3.094   1.224  0.00  0.00    +0.201 C 
BRANCH  21  22
ATOM     22  C   UNL     1     -11.420  -3.999   0.240  0.00  0.00    +0.230 C 
ATOM     23  O   UNL     1     -10.929  -4.200  -0.851  0.00  0.00    -0.274 OA
ATOM     24  N   UNL     1     -12.587  -4.585   0.572  0.00  0.00    -0.312 N 
ATOM     25  H   UNL     1     -12.979  -4.425   1.444  0.00  0.00    +0.149 HD
BRANCH  24  26
ATOM     26  C   UNL     1     -13.263  -5.465  -0.385  0.00  0.00    +0.067 C 
ATOM     27  C   UNL     1     -14.153  -6.452   0.372  0.00  0.00    +0.027 C 
ATOM     28  C   UNL     1     -14.123  -4.624  -1.331  0.00  0.00    +0.027 C 
ENDBRANCH  24  26
ENDBRANCH  21  22
ENDBRANCH   9  21
TORSDOF 5
