REMARK  Name = ZINC12538366
REMARK  14 active torsions:
REMARK  status: ('A' for Active; 'I' for Inactive)
REMARK    1  A    between atoms: C_1  and  C_2
REMARK    2  A    between atoms: C_2  and  N_63
REMARK    3  A    between atoms: C_3  and  C_4
REMARK    4  A    between atoms: C_3  and  N_63
REMARK    5  A    between atoms: C_5  and  C_7
REMARK    6  A    between atoms: C_5  and  C_30
REMARK    7  A    between atoms: C_5  and  N_63
REMARK    8  A    between atoms: C_7  and  N_8
REMARK    9  A    between atoms: C_9  and  C_11
REMARK   10  A    between atoms: C_11  and  S_12
REMARK   11  A    between atoms: S_12  and  C_13
REMARK   12  A    between atoms: C_16  and  C_24
REMARK   13  A    between atoms: N_17  and  C_18
REMARK   14  A    between atoms: C_24  and  C_25
REMARK                            x       y       z     vdW  Elec       q    Type
REMARK                         _______ _______ _______ _____ _____    ______ ____
ROOT
ATOM      1  C   UNL     1       3.324   3.865   1.923  0.00  0.00    +0.173 C 
ENDROOT
BRANCH   1   3
ATOM      2  N   UNL     1       5.433   4.611   0.867  0.00  0.00    -0.316 N 
ATOM      3  C   UNL     1       4.783   3.680   1.593  0.00  0.00    +0.223 C 
ATOM      4  O   UNL     1       5.371   2.693   1.981  0.00  0.00    -0.275 OA
ATOM      5  H   UNL     1       4.982   5.433   0.617  0.00  0.00    +0.149 HD
BRANCH   2   6
ATOM      6  C   UNL     1       6.820   4.381   0.455  0.00  0.00    +0.096 C 
BRANCH   6   7
ATOM      7  C   UNL     1       7.358   5.631  -0.244  0.00  0.00    +0.016 C 
BRANCH   7   8
ATOM      8  C   UNL     1       8.827   5.453  -0.532  0.00  0.00    +0.093 A 
ATOM      9  C   UNL     1       9.415   5.588  -1.734  0.00  0.00    +0.043 A 
ATOM     10  C   UNL     1      10.793   5.334  -1.547  0.00  0.00    +0.041 A 
ATOM     11  C   UNL     1      10.964   5.058  -0.241  0.00  0.00    +0.195 A 
ATOM     12  O   UNL     1       9.771   5.137   0.369  0.00  0.00    -0.469 OA
ENDBRANCH   7   8
BRANCH   7  13
ATOM     13  N   UNL     1       7.144   6.795   0.642  0.00  0.00    +0.387 N 
ATOM     14  H   UNL     1       6.263   6.667   1.154  0.00  0.00    -0.081 HD
BRANCH  13  16
ATOM     15  C   UNL     1       8.168   5.726   2.589  0.00  0.00    -0.017 C 
ATOM     16  C   UNL     1       8.252   6.902   1.613  0.00  0.00    -0.081 C 
ENDBRANCH  13  16
BRANCH  13  17
ATOM     17  C   UNL     1       7.056   8.032  -0.163  0.00  0.00    -0.081 C 
ATOM     18  C   UNL     1       5.668   8.104  -0.802  0.00  0.00    -0.017 C 
ENDBRANCH  13  17
ENDBRANCH   7  13
ENDBRANCH   6   7
ENDBRANCH   2   6
ENDBRANCH   1   3
BRANCH   1  19
ATOM     19  S   UNL     1       2.703   2.388   2.765  0.00  0.00    -0.076 S 
BRANCH  19  20
ATOM     20  C   UNL     1       1.027   2.866   3.025  0.00  0.00    +0.197 A 
ATOM     21  N   UNL     1       0.475   4.003   2.670  0.00  0.00    -0.122 NA
ATOM     22  N   UNL     1      -0.763   4.015   3.015  0.00  0.00    -0.133 NA
ATOM     23  C   UNL     1      -1.076   2.895   3.603  0.00  0.00    +0.143 A 
ATOM     24  N   UNL     1       0.055   2.123   3.636  0.00  0.00    -0.274 N 
BRANCH  24  25
ATOM     25  C   UNL     1       0.187   0.836   4.179  0.00  0.00    +0.050 A 
ATOM     26  C   UNL     1      -0.514  -0.227   3.626  0.00  0.00    +0.026 A 
ATOM     27  C   UNL     1      -0.378  -1.494   4.159  0.00  0.00    +0.002 A 
ATOM     28  C   UNL     1       0.446  -1.702   5.250  0.00  0.00    +0.000 A 
ATOM     29  C   UNL     1       1.141  -0.644   5.806  0.00  0.00    +0.002 A 
ATOM     30  C   UNL     1       1.014   0.624   5.273  0.00  0.00    +0.026 A 
ENDBRANCH  24  25
BRANCH  23  31
ATOM     31  C   UNL     1      -2.430   2.520   4.147  0.00  0.00    +0.119 C 
BRANCH  31  32
ATOM     32  C   UNL     1      -2.533   2.960   5.584  0.00  0.00    -0.003 A 
ATOM     33  C   UNL     1      -2.975   4.139   6.086  0.00  0.00    +0.011 A 
ATOM     34  C   UNL     1      -2.981   4.324   7.456  0.00  0.00    +0.008 A 
ATOM     35  C   UNL     1      -2.545   3.321   8.257  0.00  0.00    +0.045 A 
ATOM     36  S   UNL     1      -2.113   2.061   7.069  0.00  0.00    -0.101 S 
ENDBRANCH  31  32
ENDBRANCH  23  31
ENDBRANCH  19  20
ENDBRANCH   1  19
TORSDOF 12
