REMARK  Name = ZINC22734785
REMARK  7 active torsions:
REMARK  status: ('A' for Active; 'I' for Inactive)
REMARK    1  A    between atoms: C_1  and  N_2
REMARK    2  A    between atoms: N_5  and  C_8
REMARK    3  A    between atoms: C_8  and  C_10
REMARK    4  A    between atoms: C_8  and  C_25
REMARK    5  A    between atoms: C_10  and  N_11
REMARK    6  A    between atoms: C_12  and  C_14
REMARK    7  A    between atoms: N_34  and  C_35
REMARK                            x       y       z     vdW  Elec       q    Type
REMARK                         _______ _______ _______ _____ _____    ______ ____
ROOT
ATOM      1  C   UNL     1       3.096  -2.179   4.332  0.00  0.00    +0.104 C 
ENDROOT
BRANCH   1   2
ATOM      2  C   UNL     1       1.649  -2.054   3.930  0.00  0.00    -0.028 A 
ATOM      3  C   UNL     1       0.676  -2.756   4.618  0.00  0.00    +0.007 A 
ATOM      4  C   UNL     1      -0.646  -2.643   4.247  0.00  0.00    +0.024 A 
ATOM      5  C   UNL     1      -1.013  -1.823   3.179  0.00  0.00    +0.033 A 
ATOM      6  C   UNL     1      -0.036  -1.118   2.498  0.00  0.00    -0.026 A 
ATOM      7  C   UNL     1       1.292  -1.238   2.875  0.00  0.00    +0.010 A 
ATOM      8  C   UNL     1      -0.367  -0.202   1.346  0.00  0.00    +0.038 C 
ATOM      9  C   UNL     1      -1.784  -0.494   0.847  0.00  0.00    +0.024 C 
ATOM     10  C   UNL     1      -2.709  -0.566   2.068  0.00  0.00    +0.105 C 
ATOM     11  N   UNL     1      -2.365  -1.757   2.848  0.00  0.00    -0.333 N 
ATOM     12  C   UNL     1      -3.207  -1.861   4.047  0.00  0.00    +0.129 C 
ENDBRANCH   1   2
BRANCH   1  17
ATOM     13  C   UNL     1       4.012  -7.306   2.147  0.00  0.00    -0.096 C 
ATOM     14  N   UNL     1       3.500  -5.993   2.562  0.00  0.00    +0.379 N 
ATOM     15  C   UNL     1       3.352  -5.924   4.023  0.00  0.00    -0.064 C 
ATOM     16  C   UNL     1       2.743  -4.573   4.407  0.00  0.00    +0.066 C 
ATOM     17  N   UNL     1       3.608  -3.491   3.917  0.00  0.00    -0.297 NA
ATOM     18  C   UNL     1       3.757  -3.561   2.456  0.00  0.00    +0.066 C 
ATOM     19  C   UNL     1       4.365  -4.911   2.072  0.00  0.00    -0.064 C 
ATOM     20  H   UNL     1       2.505  -5.862   2.113  0.00  0.00    -0.082 HD
ENDBRANCH   1  17
BRANCH   1  21
ATOM     21  C   UNL     1       3.218  -2.041   5.851  0.00  0.00    +0.128 C 
BRANCH  21  22
ATOM     22  N   UNL     1       4.612  -2.249   6.250  0.00  0.00    -0.309 N 
ATOM     23  C   UNL     1       4.942  -2.273   7.557  0.00  0.00    +0.251 C 
ATOM     24  O   UNL     1       4.083  -2.123   8.404  0.00  0.00    -0.270 OA
ATOM     25  H   UNL     1       5.389  -2.385   5.484  0.00  0.00    +0.149 HD
BRANCH  23  26
ATOM     26  C   UNL     1       6.344  -2.482   7.958  0.00  0.00    +0.122 A 
ATOM     27  C   UNL     1       7.332  -2.655   7.004  0.00  0.00    +0.031 A 
ATOM     28  C   UNL     1       8.668  -2.853   7.435  0.00  0.00    +0.018 A 
ATOM     29  C   UNL     1       9.693  -3.032   6.495  0.00  0.00    +0.011 A 
ATOM     30  C   UNL     1      10.977  -3.222   6.917  0.00  0.00    +0.001 A 
ATOM     31  C   UNL     1      11.277  -3.241   8.272  0.00  0.00    +0.004 A 
ATOM     32  C   UNL     1      10.285  -3.067   9.214  0.00  0.00    +0.047 A 
ATOM     33  C   UNL     1       8.969  -2.871   8.809  0.00  0.00    +0.139 A 
ATOM     34  O   UNL     1       7.999  -2.703   9.733  0.00  0.00    -0.422 OA
ATOM     35  C   UNL     1       6.719  -2.505   9.377  0.00  0.00    +0.350 A 
ATOM     36  O   UNL     1       5.868  -2.350  10.232  0.00  0.00    -0.244 OA
ENDBRANCH  23  26
ENDBRANCH  21  22
ENDBRANCH   1  21
TORSDOF 5
