REMARK  Name = ZINC12661539
REMARK  16 active torsions:
REMARK  status: ('A' for Active; 'I' for Inactive)
REMARK    1  A    between atoms: CD1_1  and  CG_2
REMARK    2  A    between atoms: CG_2  and  CD2_3
REMARK    3  A    between atoms: CG_2  and  CB_4
REMARK    4  A    between atoms: CB_4  and  CA_5
REMARK    5  A    between atoms: CA_5  and  C_7
REMARK    6  A    between atoms: CA_5  and  N_9
REMARK    7  A    between atoms: C_10  and  CA_12
REMARK    8  A    between atoms: CA_12  and  CB_14
REMARK    9  A    between atoms: CA_12  and  N_17
REMARK   10  A    between atoms: CB_14  and  CG1_15
REMARK   11  A    between atoms: CB_14  and  CG2_16
REMARK   12  A    between atoms: C_18  and  C_20
REMARK   13  A    between atoms: C_32  and  C_34
REMARK   14  A    between atoms: C_32  and  C_35
REMARK   15  A    between atoms: C_37  and  C_39
REMARK   16  A    between atoms: C_37  and  C_40
REMARK                            x       y       z     vdW  Elec       q    Type
REMARK                         _______ _______ _______ _____ _____    ______ ____
ROOT
ATOM      1  N   VAL A   1      -2.605   5.757   2.884  0.00  0.00    -0.302 N 
ATOM      2  C   UNK A   0      -2.495   6.947   3.507  0.00  0.00    +0.245 C 
ATOM      3  O   UNK A   0      -1.471   7.589   3.411  0.00  0.00    -0.273 OA
ATOM      4  H   VAL A   1      -3.424   5.243   2.961  0.00  0.00    +0.150 HD
ENDROOT
BRANCH   2   5
ATOM      5  C   UNK A   0      -3.644   7.478   4.324  0.00  0.00    +0.238 C 
ATOM      6  C   UNK A   0      -4.828   7.643   3.429  0.00  0.00    +0.191 C 
ATOM      7  C   UNK A   0      -5.881   8.649   3.820  0.00  0.00    +0.187 C 
ATOM      8  C   UNK A   0      -5.454   9.742   4.778  0.00  0.00    +0.209 C 
ATOM      9  C   UNK A   0      -4.200   9.459   5.579  0.00  0.00    +0.286 C 
ATOM     10  O   UNK A   0      -3.233   8.669   4.957  0.00  0.00    -0.333 OA
ATOM     11  O   UNK A   0      -4.620   8.975   6.856  0.00  0.00    -0.318 OA
ATOM     12  C   UNK A   0      -6.056   9.006   6.862  0.00  0.00    +0.168 C 
ATOM     13  O   UNK A   0      -6.481   9.872   5.796  0.00  0.00    -0.338 OA
ATOM     14  C   UNK A   0      -6.557   9.550   8.201  0.00  0.00    +0.074 C 
ATOM     15  C   UNK A   0      -6.607   7.597   6.636  0.00  0.00    +0.074 C 
ATOM     16  O   UNK A   0      -6.279   9.287   2.581  0.00  0.00    -0.341 OA
ATOM     17  C   UNK A   0      -5.678   8.538   1.515  0.00  0.00    +0.166 C 
ATOM     18  O   UNK A   0      -4.493   7.920   2.054  0.00  0.00    -0.340 OA
ATOM     19  C   UNK A   0      -6.648   7.465   1.018  0.00  0.00    +0.074 C 
ATOM     20  C   UNK A   0      -5.302   9.475   0.365  0.00  0.00    +0.074 C 
ENDBRANCH   2   5
BRANCH   1  21
ATOM     21  CA  VAL A   1      -1.487   5.240   2.090  0.00  0.00    +0.161 C 
BRANCH  21  23
ATOM     22  N   VAL A   1      -0.645   3.040   1.336  0.00  0.00    -0.301 N 
ATOM     23  C   VAL A   1      -1.574   3.737   2.019  0.00  0.00    +0.234 C 
ATOM     24  O   VAL A   1      -2.480   3.155   2.577  0.00  0.00    -0.274 OA
ATOM     25  H   VAL A   1       0.080   3.506   0.889  0.00  0.00    +0.150 HD
BRANCH  22  26
ATOM     26  CA  VAL A   1      -0.729   1.579   1.267  0.00  0.00    +0.186 C 
BRANCH  26  27
ATOM     27  C   VAL A   1      -0.074   0.981   2.485  0.00  0.00    +0.376 C 
ATOM     28  O   VAL A   1       0.413   1.700   3.324  0.00  0.00    -0.244 OA
ATOM     29  OXT VAL A   1      -0.032  -0.352   2.637  0.00  0.00    -0.244 OA
ENDBRANCH  26  27
BRANCH  26  30
ATOM     30  CB  VAL A   1      -0.013   1.086   0.008  0.00  0.00    +0.037 C 
BRANCH  30  32
ATOM     31  CD1 VAL A   1       0.031   1.205  -2.487  0.00  0.00    +0.007 C 
ATOM     32  CG  VAL A   1      -0.753   1.593  -1.232  0.00  0.00    -0.015 C 
ATOM     33  CD2 VAL A   1      -2.147   0.964  -1.286  0.00  0.00    +0.007 C 
ENDBRANCH  30  32
ENDBRANCH  26  30
ENDBRANCH  22  26
ENDBRANCH  21  23
BRANCH  21  34
ATOM     34  CB  VAL A   1      -1.554   5.822   0.676  0.00  0.00    +0.012 C 
ATOM     35  CG1 VAL A   1      -2.925   5.524   0.066  0.00  0.00    +0.009 C 
ATOM     36  CG2 VAL A   1      -1.342   7.336   0.737  0.00  0.00    +0.009 C 
ENDBRANCH  21  34
ENDBRANCH   1  21
TORSDOF 8
