REMARK  Name = ZINC12490171
REMARK  8 active torsions:
REMARK  status: ('A' for Active; 'I' for Inactive)
REMARK    1  A    between atoms: C_1  and  C_2
REMARK    2  A    between atoms: C_6  and  C_25
REMARK    3  A    between atoms: C_7  and  O_8
REMARK    4  A    between atoms: O_8  and  C_9
REMARK    5  A    between atoms: C_9  and  C_10
REMARK    6  A    between atoms: N_12  and  N_13
REMARK    7  A    between atoms: C_14  and  C_16
REMARK    8  A    between atoms: C_20  and  N_22
REMARK                            x       y       z     vdW  Elec       q    Type
REMARK                         _______ _______ _______ _____ _____    ______ ____
ROOT
ATOM      1  C   UNL     1       2.369   1.025  -0.015  0.00  0.00    +0.267 C 
ATOM      2  O   UNL     1       2.385  -0.188  -0.022  0.00  0.00    -0.271 OA
ATOM      3  N   UNL     1       1.193   1.683  -0.000  0.00  0.00    -0.231 N 
ATOM      4  H   UNL     1       1.179   2.653   0.005  0.00  0.00    +0.173 HD
ENDROOT
BRANCH   3   5
ATOM      5  N   UNL     1      -0.011   0.966   0.007  0.00  0.00    -0.230 N 
ATOM      6  C   UNL     1      -1.187   1.624   0.017  0.00  0.00    +0.260 C 
ATOM      7  O   UNL     1      -1.204   2.839   0.023  0.00  0.00    -0.269 OA
ATOM      8  H   UNL     1       0.002  -0.004   0.002  0.00  0.00    +0.173 HD
BRANCH   6   9
ATOM      9  C   UNL     1      -2.458   0.867   0.018  0.00  0.00    +0.040 A 
ATOM     10  C   UNL     1      -2.442  -0.529   0.005  0.00  0.00    +0.013 A 
ATOM     11  C   UNL     1      -3.631  -1.228   0.012  0.00  0.00    +0.003 A 
ATOM     12  C   UNL     1      -4.837  -0.550   0.021  0.00  0.00    +0.033 A 
ATOM     13  C   UNL     1      -4.859   0.833   0.029  0.00  0.00    +0.127 A 
ATOM     14  C   UNL     1      -3.677   1.545   0.028  0.00  0.00    +0.045 A 
BRANCH  13  15
ATOM     15  N   UNL     1      -6.154   1.551   0.039  0.00  0.00    +0.056 N 
ATOM     16  O   UNL     1      -6.175   2.769   0.045  0.00  0.00    -0.126 OA
ATOM     17  O   UNL     1      -7.198   0.924   0.040  0.00  0.00    -0.126 OA
ENDBRANCH  13  15
ENDBRANCH   6   9
ENDBRANCH   3   5
BRANCH   1  18
ATOM     18  C   UNL     1       3.663   1.796  -0.023  0.00  0.00    +0.326 C 
BRANCH  18  19
ATOM     19  O   UNL     1       4.762   0.882  -0.039  0.00  0.00    -0.482 OA
BRANCH  19  26
ATOM     20  C   UNL     1       5.939   1.399  -2.554  0.00  0.00    +0.047 C 
ATOM     21  C   UNL     1       6.640   1.694  -1.253  0.00  0.00    -0.007 A 
ATOM     22  C   UNL     1       7.907   2.244  -1.260  0.00  0.00    +0.022 A 
ATOM     23  C   UNL     1       8.553   2.511  -0.066  0.00  0.00    +0.019 A 
ATOM     24  C   UNL     1       7.929   2.232   1.137  0.00  0.00    +0.022 A 
ATOM     25  C   UNL     1       6.660   1.687   1.148  0.00  0.00    -0.007 A 
ATOM     26  C   UNL     1       6.011   1.419  -0.048  0.00  0.00    +0.127 A 
ATOM     27  C   UNL     1       5.982   1.383   2.459  0.00  0.00    +0.047 C 
ATOM     28 BR   UNL     1      10.290   3.257  -0.079  0.00  0.00    -0.050 Br
ENDBRANCH  19  26
ENDBRANCH  18  19
ENDBRANCH   1  18
TORSDOF 6
