REMARK  Name = ZINC04761254
REMARK  12 active torsions:
REMARK  status: ('A' for Active; 'I' for Inactive)
REMARK    1  A    between atoms: C_1  and  C_2
REMARK    2  A    between atoms: C_7  and  C_23
REMARK    3  A    between atoms: C_9  and  C_13
REMARK    4  A    between atoms: C_10  and  C_12
REMARK    5  A    between atoms: C_13  and  O_15
REMARK    6  A    between atoms: O_15  and  C_16
REMARK    7  A    between atoms: C_26  and  N_29
REMARK    8  A    between atoms: N_29  and  C_30
REMARK    9  A    between atoms: N_29  and  C_31
REMARK   10  A    between atoms: C_34  and  C_36
REMARK   11  A    between atoms: C_36  and  O_38
REMARK   12  A    between atoms: O_38  and  C_39
REMARK                            x       y       z     vdW  Elec       q    Type
REMARK                         _______ _______ _______ _____ _____    ______ ____
ROOT
ATOM      1  C   UNL     1      -0.719   0.907  -0.816  0.00  0.00    +0.009 C 
ATOM      2  C   UNL     1      -0.444  -0.526  -0.357  0.00  0.00    +0.013 C 
ATOM      3  C   UNL     1      -1.730  -1.145   0.195  0.00  0.00    +0.055 C 
ATOM      4  C   UNL     1      -2.201  -0.353   1.389  0.00  0.00    +0.016 C 
ATOM      5  C   UNL     1      -1.321   0.276   2.197  0.00  0.00    +0.025 C 
ATOM      6  C   UNL     1      -1.798   1.056   3.396  0.00  0.00    +0.092 C 
ATOM      7  C   UNL     1      -3.261   1.372   3.286  0.00  0.00    +0.065 C 
ATOM      8  C   UNL     1      -4.057   0.704   2.433  0.00  0.00    +0.016 C 
ATOM      9  N   UNL     1      -3.545  -0.283   1.638  0.00  0.00    -0.321 N 
ATOM     10  C   UNL     1      -5.522   1.044   2.354  0.00  0.00    +0.061 C 
ATOM     11  C   UNL     1       0.061   0.227   1.943  0.00  0.00    +0.176 C 
ATOM     12  O   UNL     1       0.826   0.796   2.695  0.00  0.00    -0.291 OA
ATOM     13  C   UNL     1       0.613  -0.518   0.753  0.00  0.00    +0.171 C 
ATOM     14  H   UNL     1      -4.141  -0.941   1.245  0.00  0.00    +0.152 HD
ENDROOT
BRANCH   6  15
ATOM     15  C   UNL     1      -1.562   0.241   4.642  0.00  0.00    -0.035 A 
ATOM     16  C   UNL     1      -2.158  -1.000   4.778  0.00  0.00    +0.006 A 
ATOM     17  C   UNL     1      -1.944  -1.749   5.918  0.00  0.00    +0.023 A 
ATOM     18  C   UNL     1      -1.129  -1.256   6.928  0.00  0.00    +0.029 A 
ATOM     19  C   UNL     1      -0.531  -0.010   6.788  0.00  0.00    +0.023 A 
ATOM     20  C   UNL     1      -0.745   0.732   5.644  0.00  0.00    +0.006 A 
BRANCH  18  21
ATOM     21  N   UNL     1      -0.910  -2.011   8.083  0.00  0.00    -0.336 N 
ATOM     22  C   UNL     1      -1.541  -3.325   8.229  0.00  0.00    +0.129 C 
ATOM     23  C   UNL     1      -0.050  -1.489   9.148  0.00  0.00    +0.129 C 
ENDBRANCH  18  21
ENDBRANCH   6  15
BRANCH   7  24
ATOM     24  C   UNL     1      -3.813   2.393   4.094  0.00  0.00    +0.338 C 
ATOM     25  O   UNL     1      -4.966   2.745   3.927  0.00  0.00    -0.245 OA
BRANCH  24  26
ATOM     26  O   UNL     1      -3.061   2.978   5.050  0.00  0.00    -0.458 OA
BRANCH  26  27
ATOM     27  C   UNL     1      -3.683   4.002   5.829  0.00  0.00    +0.177 C 
ATOM     28  C   UNL     1      -3.518   5.352   5.101  0.00  0.00    +0.044 C 
ATOM     29  C   UNL     1      -4.564   6.303   5.615  0.00  0.00    +0.004 C 
ATOM     30  C   UNL     1      -4.045   7.185   6.766  0.00  0.00    +0.000 C 
ATOM     31  C   UNL     1      -3.180   6.404   7.774  0.00  0.00    +0.000 C 
ATOM     32  C   UNL     1      -3.748   5.047   8.090  0.00  0.00    +0.004 C 
ATOM     33  C   UNL     1      -3.087   4.011   7.157  0.00  0.00    +0.044 C 
ENDBRANCH  26  27
ENDBRANCH  24  26
ENDBRANCH   7  24
BRANCH  13  34
ATOM     34  C   UNL     1       1.861   0.165   0.256  0.00  0.00    +0.318 C 
ATOM     35  O   UNL     1       1.993   1.357   0.396  0.00  0.00    -0.250 OA
BRANCH  34  36
ATOM     36  O   UNL     1       2.826  -0.552  -0.341  0.00  0.00    -0.467 OA
ATOM     37  C   UNL     1       3.981   0.160  -0.787  0.00  0.00    +0.280 C 
ENDBRANCH  34  36
ENDBRANCH  13  34
TORSDOF 7
