REMARK  Name = ZINC36647977
REMARK  11 active torsions:
REMARK  status: ('A' for Active; 'I' for Inactive)
REMARK    1  A    between atoms: C_1  and  C_2
REMARK    2  A    between atoms: C_4  and  C_35
REMARK    3  A    between atoms: N_11  and  C_12
REMARK    4  A    between atoms: C_12  and  C_13
REMARK    5  A    between atoms: C_13  and  C_14
REMARK    6  A    between atoms: C_14  and  N_15
REMARK    7  A    between atoms: N_15  and  C_16
REMARK    8  A    between atoms: N_15  and  C_17
REMARK    9  A    between atoms: C_18  and  C_20
REMARK   10  A    between atoms: N_25  and  S_27
REMARK   11  A    between atoms: S_27  and  C_30
REMARK                            x       y       z     vdW  Elec       q    Type
REMARK                         _______ _______ _______ _____ _____    ______ ____
ROOT
ATOM      1  C   UNL     1       2.442   1.172   0.158  0.00  0.00    +0.044 C 
ATOM      2  C   UNL     1       1.940  -0.248   0.127  0.00  0.00    -0.048 A 
ATOM      3  C   UNL     1       1.607  -0.823  -1.091  0.00  0.00    +0.008 A 
ATOM      4  C   UNL     1       1.146  -2.126  -1.121  0.00  0.00    -0.034 A 
ATOM      5  C   UNL     1       1.024  -2.829   0.051  0.00  0.00    +0.044 A 
ATOM      6  C   UNL     1       1.352  -2.276   1.310  0.00  0.00    +0.081 A 
ATOM      7  C   UNL     1       1.826  -0.944   1.302  0.00  0.00    +0.032 A 
ATOM      8  N   UNL     1       1.178  -3.093   2.371  0.00  0.00    -0.224 NA
ATOM      9  C   UNL     1       0.733  -4.322   2.250  0.00  0.00    +0.168 A 
ATOM     10  S   UNL     1       0.493  -4.468   0.485  0.00  0.00    -0.052 S 
ATOM     11  N   UNL     1       0.506  -5.266   3.239  0.00  0.00    -0.250 N 
ATOM     12  C   UNL     1       0.176  -6.529   2.902  0.00  0.00    +0.226 C 
ATOM     13  O   UNL     1      -0.126  -7.327   3.764  0.00  0.00    -0.275 OA
ATOM     14  C   UNL     1       0.779  -2.770  -2.434  0.00  0.00    +0.045 C 
ENDROOT
BRANCH  12  15
ATOM     15  C   UNL     1       0.181  -6.948   1.455  0.00  0.00    +0.091 C 
ATOM     16  C   UNL     1      -1.171  -6.613   0.821  0.00  0.00    +0.015 C 
ATOM     17  C   UNL     1      -1.156  -7.009  -0.657  0.00  0.00    +0.018 C 
ATOM     18  C   UNL     1      -0.928  -8.520  -0.775  0.00  0.00    +0.109 C 
ATOM     19  N   UNL     1       0.296  -8.871  -0.043  0.00  0.00    -0.175 NA
ATOM     20  C   UNL     1       0.424  -8.458   1.361  0.00  0.00    +0.122 C 
BRANCH  19  21
ATOM     21  S   UNL     1       1.509  -9.718  -0.786  0.00  0.00    +0.067 S 
ATOM     22  O   UNL     1       2.241 -10.369   0.243  0.00  0.00    -0.152 OA
ATOM     23  O   UNL     1       0.909 -10.430  -1.860  0.00  0.00    -0.152 OA
BRANCH  21  24
ATOM     24  C   UNL     1       2.600  -8.539  -1.511  0.00  0.00    +0.143 A 
ATOM     25  C   UNL     1       3.694  -7.946  -0.974  0.00  0.00    +0.036 A 
ATOM     26  C   UNL     1       4.408  -7.040  -1.737  0.00  0.00    +0.010 A 
ATOM     27  C   UNL     1       3.992  -6.772  -2.999  0.00  0.00    +0.047 A 
ATOM     28  S   UNL     1       2.554  -7.821  -3.145  0.00  0.00    -0.077 S 
ENDBRANCH  21  24
ENDBRANCH  19  21
ENDBRANCH  12  15
BRANCH  11  29
ATOM     29  C   UNL     1       0.626  -4.891   4.650  0.00  0.00    +0.114 C 
BRANCH  29  30
ATOM     30  C   UNL     1      -0.703  -4.311   5.138  0.00  0.00    +0.001 C 
BRANCH  30  31
ATOM     31  C   UNL     1      -0.577  -3.920   6.612  0.00  0.00    -0.078 C 
BRANCH  31  32
ATOM     32  N   UNL     1      -1.853  -3.363   7.081  0.00  0.00    +0.376 N 
ATOM     33  C   UNL     1      -2.887  -4.406   7.042  0.00  0.00    -0.097 C 
ATOM     34  C   UNL     1      -1.698  -2.878   8.459  0.00  0.00    -0.097 C 
ATOM     35  H   UNL     1      -2.126  -2.597   6.483  0.00  0.00    -0.083 HD
ENDBRANCH  31  32
ENDBRANCH  30  31
ENDBRANCH  29  30
ENDBRANCH  11  29
TORSDOF 7
