REMARK  Name = ZINC37316374
REMARK  4 active torsions:
REMARK  status: ('A' for Active; 'I' for Inactive)
REMARK    1  A    between atoms: C_1  and  O_2
REMARK    2  A    between atoms: O_2  and  C_3
REMARK    3  A    between atoms: C_9  and  N_11
REMARK    4  A    between atoms: N_11  and  C_12
REMARK                            x       y       z     vdW  Elec       q    Type
REMARK                         _______ _______ _______ _____ _____    ______ ____
ROOT
ATOM      1  C   UNL     1       0.539  -3.865  -0.632  0.00  0.00    +0.044 A 
ATOM      2  C   UNL     1       1.842  -4.038  -1.074  0.00  0.00    +0.051 A 
ATOM      3  C   UNL     1       2.140  -5.067  -1.953  0.00  0.00    +0.069 A 
ATOM      4  C   UNL     1       1.129  -5.925  -2.391  0.00  0.00    +0.068 A 
ATOM      5  C   UNL     1      -0.172  -5.747  -1.946  0.00  0.00    +0.045 A 
ATOM      6  C   UNL     1      -0.465  -4.724  -1.066  0.00  0.00    +0.041 A 
ATOM      7 BR   UNL     1      -2.238  -4.487  -0.454  0.00  0.00    -0.048 Br
ATOM      8  N   UNL     1       1.727  -6.845  -3.254  0.00  0.00    -0.306 N 
ATOM      9  H   UNL     1       1.274  -7.567  -3.716  0.00  0.00    +0.170 HD
ATOM     10  C   UNL     1       3.040  -6.557  -3.335  0.00  0.00    +0.325 A 
ATOM     11  O   UNL     1       3.851  -7.168  -4.006  0.00  0.00    -0.247 OA
ATOM     12  N   UNL     1       3.320  -5.491  -2.563  0.00  0.00    -0.306 N 
ATOM     13  H   UNL     1       4.194  -5.086  -2.450  0.00  0.00    +0.170 HD
ENDROOT
BRANCH   1  14
ATOM     14  N   UNL     1       0.235  -2.827   0.256  0.00  0.00    -0.338 N 
ATOM     15  H   UNL     1      -0.676  -2.707   0.568  0.00  0.00    +0.146 HD
BRANCH  14  21
ATOM     16  C   UNL     1       0.673  -0.582   1.123  0.00  0.00    +0.138 C 
ATOM     17  C   UNL     1      -0.329  -0.810   2.256  0.00  0.00    +0.033 C 
ATOM     18  C   UNL     1       0.390  -1.429   3.457  0.00  0.00    +0.003 C 
ATOM     19  C   UNL     1       1.008  -2.767   3.046  0.00  0.00    +0.002 C 
ATOM     20  C   UNL     1       2.010  -2.540   1.913  0.00  0.00    +0.025 C 
ATOM     21  C   UNL     1       1.291  -1.921   0.713  0.00  0.00    +0.099 C 
BRANCH  16  23
ATOM     22  C   UNL     1      -0.017   1.425   0.010  0.00  0.00    +0.194 C 
ATOM     23  O   UNL     1       0.002  -0.004   0.002  0.00  0.00    -0.378 OA
ENDBRANCH  16  23
ENDBRANCH  14  21
ENDBRANCH   1  14
TORSDOF 3
