REMARK  Name = ZINC34924037
REMARK  10 active torsions:
REMARK  status: ('A' for Active; 'I' for Inactive)
REMARK    1  A    between atoms: C_1  and  C_2
REMARK    2  A    between atoms: C_2  and  O_3
REMARK    3  A    between atoms: O_3  and  C_4
REMARK    4  A    between atoms: C_4  and  C_6
REMARK    5  A    between atoms: C_7  and  C_34
REMARK    6  A    between atoms: C_11  and  C_13
REMARK    7  A    between atoms: C_20  and  C_23
REMARK    8  A    between atoms: C_24  and  N_26
REMARK    9  A    between atoms: N_26  and  C_27
REMARK   10  A    between atoms: N_30  and  C_33
REMARK                            x       y       z     vdW  Elec       q    Type
REMARK                         _______ _______ _______ _____ _____    ______ ____
ROOT
ATOM      1  C   UNL     1       1.378  -2.228   2.728  0.00  0.00    +0.083 C 
ATOM      2  C   UNL     1       1.154  -3.503   3.211  0.00  0.00    +0.053 C 
ATOM      3  N   UNL     1       1.815  -3.945   4.269  0.00  0.00    -0.230 NA
ATOM      4  C   UNL     1       2.711  -3.251   4.940  0.00  0.00    +0.166 C 
ATOM      5  N   UNL     1       3.077  -1.972   4.625  0.00  0.00    -0.267 N 
ATOM      6  C   UNL     1       2.399  -1.372   3.445  0.00  0.00    +0.152 C 
ATOM      7  C   UNL     1       4.032  -1.378   5.426  0.00  0.00    +0.048 C 
ATOM      8  C   UNL     1       4.528  -2.103   6.452  0.00  0.00    +0.072 C 
ATOM      9  S   UNL     1       3.637  -3.637   6.285  0.00  0.00    -0.060 S 
ATOM     10  C   UNL     1       0.151  -4.396   2.529  0.00  0.00    +0.066 C 
ENDROOT
BRANCH   6  11
ATOM     11  C   UNL     1       1.710  -0.112   3.901  0.00  0.00    +0.013 A 
ATOM     12  C   UNL     1       1.954   1.083   3.252  0.00  0.00    +0.008 A 
ATOM     13  C   UNL     1       1.322   2.239   3.670  0.00  0.00    +0.001 A 
ATOM     14  C   UNL     1       0.446   2.201   4.739  0.00  0.00    +0.003 A 
ATOM     15  C   UNL     1       0.200   1.007   5.389  0.00  0.00    +0.039 A 
ATOM     16  C   UNL     1       0.828  -0.153   4.968  0.00  0.00    +0.129 A 
ATOM     17  F   UNL     1       0.586  -1.322   5.600  0.00  0.00    -0.205 F 
ENDBRANCH   6  11
BRANCH   7  18
ATOM     18  C   UNL     1       4.493  -0.006   5.170  0.00  0.00    +0.091 C 
ATOM     19  C   UNL     1       5.324   0.598   6.041  0.00  0.00    +0.239 C 
ATOM     20  O   UNL     1       5.824  -0.095   7.093  0.00  0.00    -0.271 OA
BRANCH  19  21
ATOM     21  N   UNL     1       5.668   1.927   5.861  0.00  0.00    -0.309 N 
ATOM     22  H   UNL     1       5.310   2.424   5.108  0.00  0.00    +0.149 HD
BRANCH  21  23
ATOM     23  C   UNL     1       6.572   2.585   6.808  0.00  0.00    +0.070 C 
ATOM     24  C   UNL     1       5.768   3.116   7.999  0.00  0.00    +0.003 C 
ATOM     25  C   UNL     1       6.706   3.870   8.944  0.00  0.00    -0.077 C 
ATOM     26  N   UNL     1       7.326   4.993   8.232  0.00  0.00    +0.378 N 
ATOM     27  C   UNL     1       8.156   4.487   7.132  0.00  0.00    -0.077 C 
ATOM     28  C   UNL     1       7.274   3.756   6.116  0.00  0.00    +0.003 C 
ATOM     29  C   UNL     1       8.164   5.759   9.163  0.00  0.00    -0.096 C 
ATOM     30  H   UNL     1       6.605   5.593   7.859  0.00  0.00    -0.082 HD
ENDBRANCH  21  23
ENDBRANCH  19  21
ENDBRANCH   7  18
BRANCH   1  31
ATOM     31  C   UNL     1       0.687  -1.746   1.610  0.00  0.00    +0.339 C 
ATOM     32  O   UNL     1      -0.035  -2.492   0.972  0.00  0.00    -0.245 OA
BRANCH  31  33
ATOM     33  O   UNL     1       0.821  -0.454   1.238  0.00  0.00    -0.462 OA
BRANCH  33  35
ATOM     34  C   UNL     1       0.363   1.451  -0.177  0.00  0.00    +0.048 C 
ATOM     35  C   UNL     1       0.087  -0.031   0.088  0.00  0.00    +0.229 C 
ENDBRANCH  33  35
ENDBRANCH  31  33
ENDBRANCH   1  31
TORSDOF 7
