REMARK  Name = ZINC62775321
REMARK  3 active torsions:
REMARK  status: ('A' for Active; 'I' for Inactive)
REMARK    1  A    between atoms: C_2  and  N_21
REMARK    2  A    between atoms: C_3  and  N_12
REMARK    3  A    between atoms: C_13  and  C_15
REMARK                            x       y       z     vdW  Elec       q    Type
REMARK                         _______ _______ _______ _____ _____    ______ ____
ROOT
ATOM      1  C   UNL     1      -0.014   1.369   0.033  0.00  0.00    +0.074 A 
ATOM      2  C   UNL     1       1.179   2.078   0.015  0.00  0.00    +0.050 A 
ATOM      3  C   UNL     1       2.395   1.396  -0.004  0.00  0.00    +0.058 A 
ATOM      4  C   UNL     1       2.413   0.008  -0.004  0.00  0.00    +0.074 A 
ATOM      5  C   UNL     1       1.220  -0.694   0.014  0.00  0.00    +0.164 A 
ATOM      6  C   UNL     1       0.009  -0.016   0.032  0.00  0.00    +0.164 A 
ATOM      7  O   UNL     1      -1.159  -0.723   0.050  0.00  0.00    -0.488 OA
ATOM      8  C   UNL     1      -1.466  -1.454  -1.139  0.00  0.00    +0.232 C 
ATOM      9  C   UNL     1      -0.777  -2.809  -1.132  0.00  0.00    +0.082 C 
ATOM     10  C   UNL     1       0.738  -2.689  -1.171  0.00  0.00    +0.232 C 
ATOM     11  O   UNL     1       1.227  -2.060   0.014  0.00  0.00    -0.488 OA
ENDROOT
BRANCH   3  12
ATOM     12  N   UNL     1       3.600   2.113  -0.022  0.00  0.00    -0.280 N 
ATOM     13  C   UNL     1       4.713   1.547  -0.530  0.00  0.00    +0.251 C 
ATOM     14  O   UNL     1       4.652   0.456  -1.062  0.00  0.00    -0.270 OA
ATOM     15  H   UNL     1       3.633   3.016   0.331  0.00  0.00    +0.155 HD
BRANCH  13  16
ATOM     16  C   UNL     1       6.005   2.251  -0.439  0.00  0.00    +0.074 A 
ATOM     17  C   UNL     1       7.220   1.800  -0.916  0.00  0.00    +0.118 A 
ATOM     18  N   UNL     1       8.137   2.738  -0.631  0.00  0.00    -0.284 N 
ATOM     19  H   UNL     1       9.081   2.692  -0.849  0.00  0.00    +0.188 HD
ATOM     20  N   UNL     1       7.501   3.794   0.032  0.00  0.00    -0.182 NA
ATOM     21  C   UNL     1       6.231   3.517   0.147  0.00  0.00    +0.147 A 
ENDBRANCH  13  16
ENDBRANCH   3  12
BRANCH   2  22
ATOM     22  N   UNL     1       1.161   3.479   0.015  0.00  0.00    -0.356 N 
ATOM     23  H   UNL     1       0.315   3.953   0.028  0.00  0.00    +0.142 HD
ATOM     24  H   UNL     1       1.995   3.974   0.003  0.00  0.00    +0.142 HD
ENDBRANCH   2  22
TORSDOF 3
