REMARK  Name = ZINC64553087
REMARK  2 active torsions:
REMARK  status: ('A' for Active; 'I' for Inactive)
REMARK    1  A    between atoms: C_6  and  C_7
REMARK    2  A    between atoms: C_13  and  C_15
REMARK                            x       y       z     vdW  Elec       q    Type
REMARK                         _______ _______ _______ _____ _____    ______ ____
ROOT
ATOM      1  C   UNL     1       0.034   1.334  -0.441  0.00  0.00    +0.015 A 
ATOM      2  C   UNL     1       1.202   2.025  -0.224  0.00  0.00    +0.024 A 
ATOM      3  C   UNL     1       2.387   1.631  -0.854  0.00  0.00    +0.040 A 
ATOM      4  C   UNL     1       2.371   0.531  -1.702  0.00  0.00    -0.024 A 
ATOM      5  C   UNL     1       1.205  -0.167  -1.926  0.00  0.00    +0.018 A 
ATOM      6  C   UNL     1       0.022   0.229  -1.296  0.00  0.00    +0.037 A 
ATOM      7  C   UNL     1       3.768   0.323  -2.244  0.00  0.00    +0.056 C 
ATOM      8  C   UNL     1       4.601   1.444  -1.602  0.00  0.00    +0.118 C 
ATOM      9  N   UNL     1       3.660   2.192  -0.765  0.00  0.00    -0.271 N 
ATOM     10  C   UNL     1       3.978   3.268  -0.018  0.00  0.00    +0.223 C 
ATOM     11  O   UNL     1       3.109   3.876   0.571  0.00  0.00    -0.275 OA
ENDROOT
BRANCH   6  12
ATOM     12  C   UNL     1      -1.230  -0.516  -1.531  0.00  0.00    +0.242 C 
ATOM     13  O   UNL     1      -1.235  -1.478  -2.275  0.00  0.00    -0.270 OA
ATOM     14  N   UNL     1      -2.368  -0.131  -0.921  0.00  0.00    -0.325 N 
ATOM     15  H   UNL     1      -2.364   0.636  -0.327  0.00  0.00    +0.145 HD
ATOM     16  H   UNL     1      -3.191  -0.620  -1.075  0.00  0.00    +0.145 HD
ENDBRANCH   6  12
BRANCH  10  17
ATOM     17  C   UNL     1       5.413   3.716   0.085  0.00  0.00    +0.076 C 
ATOM     18  C   UNL     1       6.051   3.155   1.372  0.00  0.00    +0.013 C 
ATOM     19  C   UNL     1       6.978   4.293   1.865  0.00  0.00    +0.001 C 
ATOM     20  C   UNL     1       6.156   5.566   1.544  0.00  0.00    +0.001 C 
ATOM     21  C   UNL     1       5.479   5.250   0.194  0.00  0.00    +0.013 C 
ENDBRANCH  10  17
TORSDOF 2
