REMARK  Name = ZINC09150211
REMARK  7 active torsions:
REMARK  status: ('A' for Active; 'I' for Inactive)
REMARK    1  A    between atoms: C_1  and  C_2
REMARK    2  A    between atoms: N_8  and  C_26
REMARK    3  A    between atoms: N_10  and  C_11
REMARK    4  A    between atoms: C_11  and  C_13
REMARK    5  A    between atoms: C_13  and  C_14
REMARK    6  A    between atoms: C_14  and  S_15
REMARK    7  A    between atoms: S_15  and  C_18
REMARK                            x       y       z     vdW  Elec       q    Type
REMARK                         _______ _______ _______ _____ _____    ______ ____
ROOT
ATOM      1  C   UNL     1       6.085  -1.681  -3.726  0.00  0.00    +0.240 C 
ATOM      2  O   UNL     1       5.550  -1.226  -4.719  0.00  0.00    -0.274 OA
ENDROOT
BRANCH   1  12
ATOM      3  C   UNL     1       3.633  -5.713  -6.196  0.00  0.00    +0.046 C 
ATOM      4  C   UNL     1       5.064  -6.175  -6.293  0.00  0.00    -0.024 A 
ATOM      5  C   UNL     1       5.357  -7.347  -6.949  0.00  0.00    +0.025 A 
ATOM      6  C   UNL     1       6.661  -7.803  -7.057  0.00  0.00    +0.042 A 
ATOM      7  C   UNL     1       7.685  -7.061  -6.493  0.00  0.00    +0.037 A 
ATOM      8  C   UNL     1       7.392  -5.889  -5.838  0.00  0.00    +0.041 A 
ATOM      9  C   UNL     1       6.082  -5.403  -5.712  0.00  0.00    +0.060 A 
ATOM     10  N   UNL     1       5.968  -4.210  -5.023  0.00  0.00    -0.324 N 
ATOM     11  C   UNL     1       7.076  -3.600  -4.527  0.00  0.00    +0.166 A 
ATOM     12  N   UNL     1       7.156  -2.459  -3.845  0.00  0.00    -0.156 NA
ATOM     13  S   UNL     1       8.364  -4.660  -5.002  0.00  0.00    -0.052 S 
ATOM     14  C   UNL     1       4.649  -3.602  -4.827  0.00  0.00    +0.151 C 
ATOM     15 CL   UNL     1       7.006  -9.286  -7.890  0.00  0.00    -0.083 Cl
ENDBRANCH   1  12
BRANCH   1  16
ATOM     16  C   UNL     1       5.535  -1.361  -2.360  0.00  0.00    +0.121 C 
BRANCH  16  17
ATOM     17  C   UNL     1       4.311  -0.454  -2.503  0.00  0.00    +0.181 C 
BRANCH  17  18
ATOM     18  S   UNL     1       3.648  -0.069  -0.859  0.00  0.00    -0.003 S 
ATOM     19  O   UNL     1       4.562   0.748  -0.142  0.00  0.00    -0.169 OA
ATOM     20  O   UNL     1       3.103  -1.240  -0.265  0.00  0.00    -0.169 OA
BRANCH  18  21
ATOM     21  C   UNL     1       2.258   0.970  -1.163  0.00  0.00    +0.088 A 
ATOM     22  C   UNL     1       1.005   0.414  -1.342  0.00  0.00    +0.028 A 
ATOM     23  C   UNL     1      -0.085   1.228  -1.582  0.00  0.00    +0.022 A 
ATOM     24  C   UNL     1       0.077   2.601  -1.642  0.00  0.00    +0.041 A 
ATOM     25  C   UNL     1       1.331   3.157  -1.462  0.00  0.00    +0.022 A 
ATOM     26  C   UNL     1       2.421   2.342  -1.223  0.00  0.00    +0.028 A 
ATOM     27 CL   UNL     1      -1.291   3.625  -1.950  0.00  0.00    -0.084 Cl
ENDBRANCH  18  21
ENDBRANCH  17  18
ENDBRANCH  16  17
ENDBRANCH   1  16
TORSDOF 5
