REMARK  Name = ZINC01411712
REMARK  8 active torsions:
REMARK  status: ('A' for Active; 'I' for Inactive)
REMARK    1  A    between atoms: C_1  and  C_2
REMARK    2  A    between atoms: C_5  and  N_8
REMARK    3  A    between atoms: C_9  and  C_11
REMARK    4  A    between atoms: C_11  and  O_12
REMARK    5  A    between atoms: O_12  and  C_13
REMARK    6  A    between atoms: C_13  and  C_15
REMARK    7  A    between atoms: C_18  and  C_21
REMARK    8  A    between atoms: C_24  and  C_26
REMARK                            x       y       z     vdW  Elec       q    Type
REMARK                         _______ _______ _______ _____ _____    ______ ____
ROOT
ATOM      1  C   UNL     1      -0.957   3.858  -0.102  0.00  0.00    +0.059 A 
ATOM      2  C   UNL     1      -1.060   2.463  -0.113  0.00  0.00    +0.015 A 
ATOM      3  C   UNL     1       0.070   1.696  -0.103  0.00  0.00    +0.012 A 
ATOM      4  C   UNL     1       1.329   2.304  -0.092  0.00  0.00    +0.017 A 
ATOM      5  C   UNL     1       1.431   3.700  -0.086  0.00  0.00    +0.012 A 
ATOM      6  C   UNL     1       0.302   4.467  -0.091  0.00  0.00    +0.015 A 
ENDROOT
BRANCH   4   7
ATOM      7  C   UNL     1       2.548   1.476  -0.086  0.00  0.00    +0.136 A 
ATOM      8  C   UNL     1       3.842   1.949  -0.076  0.00  0.00    +0.050 A 
ATOM      9  C   UNL     1       4.684   0.834  -0.074  0.00  0.00    +0.050 A 
ATOM     10  C   UNL     1       3.868  -0.283  -0.083  0.00  0.00    +0.130 A 
ATOM     11  O   UNL     1       2.584   0.131  -0.085  0.00  0.00    -0.455 OA
BRANCH  10  12
ATOM     12  C   UNL     1       4.304  -1.627  -0.083  0.00  0.00    +0.066 C 
ATOM     13  C   UNL     1       3.397  -2.639  -0.202  0.00  0.00    +0.082 C 
ATOM     14  C   UNL     1       1.925  -2.584  -0.206  0.00  0.00    +0.258 C 
ATOM     15  O   UNL     1       1.324  -1.531  -0.093  0.00  0.00    -0.269 OA
ATOM     16  N   UNL     1       1.288  -3.735  -0.343  0.00  0.00    -0.243 N 
ATOM     17  C   UNL     1       1.957  -4.900  -0.461  0.00  0.00    +0.283 C 
ATOM     18  O   UNL     1       1.504  -6.022  -0.587  0.00  0.00    -0.262 OA
ATOM     19  S   UNL     1       3.668  -4.396  -0.389  0.00  0.00    -0.026 S 
ATOM     20  H   UNL     1       0.318  -3.742  -0.354  0.00  0.00    +0.159 HD
ENDBRANCH  10  12
ENDBRANCH   4   7
BRANCH   1  21
ATOM     21  C   UNL     1      -2.178   4.687  -0.109  0.00  0.00    +0.340 C 
ATOM     22  O   UNL     1      -2.089   5.899  -0.104  0.00  0.00    -0.245 OA
BRANCH  21  23
ATOM     23  O   UNL     1      -3.391   4.101  -0.119  0.00  0.00    -0.452 OA
BRANCH  23  24
ATOM     24  C   UNL     1      -4.547   4.979  -0.125  0.00  0.00    +0.328 C 
BRANCH  24  26
ATOM     25  N   UNL     1      -7.011   4.755  -0.144  0.00  0.00    -0.283 N 
ATOM     26  C   UNL     1      -5.806   4.150  -0.137  0.00  0.00    +0.255 C 
ATOM     27  O   UNL     1      -5.736   2.940  -0.140  0.00  0.00    -0.272 OA
ATOM     28  H   UNL     1      -7.069   5.721  -0.081  0.00  0.00    +0.155 HD
BRANCH  25  33
ATOM     29  C   UNL     1     -11.742   1.650  -0.542  0.00  0.00    +0.044 C 
ATOM     30  C   UNL     1     -10.485   2.475  -0.436  0.00  0.00    -0.050 A 
ATOM     31  C   UNL     1      -9.398   1.989   0.267  0.00  0.00    +0.005 A 
ATOM     32  C   UNL     1      -8.245   2.743   0.366  0.00  0.00    +0.023 A 
ATOM     33  C   UNL     1      -8.178   3.989  -0.242  0.00  0.00    +0.034 A 
ATOM     34  C   UNL     1      -9.273   4.477  -0.943  0.00  0.00    +0.023 A 
ATOM     35  C   UNL     1     -10.421   3.716  -1.043  0.00  0.00    +0.005 A 
ENDBRANCH  25  33
ENDBRANCH  24  26
ENDBRANCH  23  24
ENDBRANCH  21  23
ENDBRANCH   1  21
TORSDOF 7
