REMARK  Name = ZINC06508979
REMARK  10 active torsions:
REMARK  status: ('A' for Active; 'I' for Inactive)
REMARK    1  A    between atoms: C_1  and  C_2
REMARK    2  A    between atoms: C_2  and  O_3
REMARK    3  A    between atoms: O_3  and  C_4
REMARK    4  A    between atoms: C_4  and  C_5
REMARK    5  A    between atoms: C_5  and  C_6
REMARK    6  A    between atoms: C_6  and  N_64
REMARK    7  A    between atoms: C_7  and  C_8
REMARK    8  A    between atoms: C_7  and  N_64
REMARK    9  A    between atoms: C_11  and  C_28
REMARK   10  A    between atoms: C_19  and  C_20
REMARK                            x       y       z     vdW  Elec       q    Type
REMARK                         _______ _______ _______ _____ _____    ______ ____
ROOT
ATOM      1  C   UNL     1      -0.785   1.875   3.984  0.00  0.00    +0.218 C 
ATOM      2  O   UNL     1      -1.851   2.450   3.915  0.00  0.00    -0.276 OA
ATOM      3  N   UNL     1      -0.420   1.267   5.130  0.00  0.00    -0.186 N 
ATOM      4  C   UNL     1      -1.210   1.215   6.381  0.00  0.00    +0.140 C 
ATOM      5  C   UNL     1      -0.607  -0.018   7.077  0.00  0.00    +0.066 C 
ATOM      6  C   UNL     1      -0.402   0.221   8.574  0.00  0.00    +0.012 C 
ATOM      7  C   UNL     1       0.373  -0.967   9.144  0.00  0.00    +0.005 C 
ATOM      8  C   UNL     1       1.758  -1.135   8.552  0.00  0.00    +0.037 C 
ATOM      9  C   UNL     1       1.867  -0.723   7.115  0.00  0.00    -0.024 C 
ATOM     10  C   UNL     1       3.013  -0.951   6.442  0.00  0.00    +0.013 C 
ATOM     11  C   UNL     1       0.782  -0.096   6.456  0.00  0.00    +0.068 C 
ATOM     12  N   UNL     1       0.771   0.565   5.351  0.00  0.00    -0.181 NA
ENDROOT
BRANCH  10  13
ATOM     13  C   UNL     1       4.200  -1.447   7.157  0.00  0.00    -0.025 A 
ATOM     14  C   UNL     1       4.558  -0.896   8.391  0.00  0.00    +0.008 A 
ATOM     15  C   UNL     1       5.669  -1.369   9.057  0.00  0.00    +0.001 A 
ATOM     16  C   UNL     1       6.435  -2.378   8.502  0.00  0.00    +0.000 A 
ATOM     17  C   UNL     1       6.091  -2.925   7.278  0.00  0.00    +0.001 A 
ATOM     18  C   UNL     1       4.980  -2.467   6.603  0.00  0.00    +0.008 A 
ENDBRANCH  10  13
BRANCH   4  19
ATOM     19  C   UNL     1      -2.674   1.007   6.088  0.00  0.00    -0.024 A 
ATOM     20  C   UNL     1      -3.060   0.163   5.064  0.00  0.00    +0.005 A 
ATOM     21  C   UNL     1      -4.403  -0.030   4.797  0.00  0.00    +0.000 A 
ATOM     22  C   UNL     1      -5.359   0.627   5.549  0.00  0.00    +0.000 A 
ATOM     23  C   UNL     1      -4.972   1.474   6.570  0.00  0.00    +0.000 A 
ATOM     24  C   UNL     1      -3.630   1.665   6.840  0.00  0.00    +0.005 A 
ENDBRANCH   4  19
BRANCH   1  25
ATOM     25  C   UNL     1       0.132   1.842   2.789  0.00  0.00    +0.017 C 
BRANCH  25  26
ATOM     26  N   UNL     1      -0.499   2.575   1.675  0.00  0.00    +0.385 N 
ATOM     27  H   UNL     1      -1.394   2.131   1.440  0.00  0.00    -0.085 HD
ATOM     28  H   UNL     1      -0.664   3.548   1.961  0.00  0.00    -0.085 HD
BRANCH  26  29
ATOM     29  C   UNL     1       0.378   2.559   0.489  0.00  0.00    -0.080 C 
BRANCH  29  30
ATOM     30  C   UNL     1      -0.301   3.326  -0.647  0.00  0.00    +0.009 C 
BRANCH  30  31
ATOM     31  C   UNL     1       0.603   3.314  -1.882  0.00  0.00    +0.158 C 
BRANCH  31  32
ATOM     32  O   UNL     1      -0.032   4.030  -2.943  0.00  0.00    -0.380 OA
BRANCH  32  34
ATOM     33  C   UNL     1      -0.039   4.866  -5.211  0.00  0.00    +0.034 C 
ATOM     34  C   UNL     1       0.733   4.079  -4.150  0.00  0.00    +0.156 C 
ENDBRANCH  32  34
ENDBRANCH  31  32
ENDBRANCH  30  31
ENDBRANCH  29  30
ENDBRANCH  26  29
ENDBRANCH  25  26
ENDBRANCH   1  25
TORSDOF 9
