REMARK  Name = ZINC09350022
REMARK  4 active torsions:
REMARK  status: ('A' for Active; 'I' for Inactive)
REMARK    1  A    between atoms: C_15  and  C_17
REMARK    2  A    between atoms: N_19  and  C_20
REMARK    3  A    between atoms: C_24  and  N_26
REMARK    4  A    between atoms: N_32  and  C_35
REMARK                            x       y       z     vdW  Elec       q    Type
REMARK                         _______ _______ _______ _____ _____    ______ ____
ROOT
ATOM      1  C   UNL     1      -8.314  -0.625  -6.426  0.00  0.00    +0.001 A 
ATOM      2  C   UNL     1      -7.408  -1.109  -5.499  0.00  0.00    +0.000 A 
ATOM      3  C   UNL     1      -6.259  -0.395  -5.208  0.00  0.00    +0.006 A 
ATOM      4  C   UNL     1      -6.011   0.803  -5.842  0.00  0.00    -0.021 A 
ATOM      5  C   UNL     1      -6.928   1.309  -6.768  0.00  0.00    -0.019 A 
ATOM      6  C   UNL     1      -8.083   0.577  -7.061  0.00  0.00    +0.008 A 
ATOM      7  C   UNL     1      -6.692   2.604  -7.434  0.00  0.00    +0.022 C 
ATOM      8  C   UNL     1      -5.733   3.424  -6.968  0.00  0.00    +0.054 C 
ATOM      9  C   UNL     1      -4.741   1.565  -5.565  0.00  0.00    +0.100 C 
ATOM     10  C   UNL     1      -4.359   1.579  -4.126  0.00  0.00    +0.113 C 
ATOM     11  C   UNL     1      -3.486   2.902  -4.103  0.00  0.00    +0.117 C 
ATOM     12  C   UNL     1      -4.474   3.832  -4.761  0.00  0.00    +0.156 C 
ATOM     13  C   UNL     1      -3.100   2.863  -2.679  0.00  0.00    +0.228 C 
ATOM     14  O   UNL     1      -2.970   3.803  -1.924  0.00  0.00    -0.275 OA
ATOM     15  N   UNL     1      -2.920   1.535  -2.394  0.00  0.00    -0.238 N 
ATOM     16  C   UNL     1      -3.462   0.714  -3.350  0.00  0.00    +0.228 C 
ATOM     17  O   UNL     1      -3.248  -0.468  -3.516  0.00  0.00    -0.275 OA
ATOM     18  N   UNL     1      -4.677   2.954  -5.971  0.00  0.00    -0.383 NA
ATOM     19  H   UNL     1      -3.798   3.023  -6.496  0.00  0.00    +0.127 HD
ENDROOT
BRANCH  15  20
ATOM     20  C   UNL     1      -2.221   1.046  -1.203  0.00  0.00    +0.084 C 
ATOM     21  C   UNL     1      -0.782   1.567  -1.206  0.00  0.00    +0.023 C 
ATOM     22  C   UNL     1      -0.052   1.056   0.038  0.00  0.00    +0.002 C 
ATOM     23  C   UNL     1      -0.772   1.554   1.293  0.00  0.00    +0.000 C 
ATOM     24  C   UNL     1      -2.211   1.032   1.296  0.00  0.00    +0.002 C 
ATOM     25  C   UNL     1      -2.941   1.543   0.052  0.00  0.00    +0.023 C 
ENDBRANCH  15  20
BRANCH  12  26
ATOM     26  C   UNL     1      -5.559   4.230  -3.793  0.00  0.00    +0.237 C 
ATOM     27  O   UNL     1      -6.639   3.679  -3.833  0.00  0.00    -0.273 OA
ATOM     28  N   UNL     1      -5.329   5.197  -2.883  0.00  0.00    -0.284 N 
ATOM     29  H   UNL     1      -4.446   5.591  -2.807  0.00  0.00    +0.155 HD
BRANCH  28  30
ATOM     30  C   UNL     1      -6.365   5.633  -2.049  0.00  0.00    +0.036 A 
ATOM     31  C   UNL     1      -6.436   6.967  -1.667  0.00  0.00    +0.025 A 
ATOM     32  C   UNL     1      -7.462   7.395  -0.849  0.00  0.00    +0.024 A 
ATOM     33  C   UNL     1      -8.412   6.495  -0.399  0.00  0.00    +0.071 A 
ATOM     34  C   UNL     1      -8.341   5.165  -0.773  0.00  0.00    +0.146 A 
ATOM     35  C   UNL     1      -7.320   4.732  -1.596  0.00  0.00    +0.057 A 
ATOM     36 CL   UNL     1      -9.697   7.037   0.635  0.00  0.00    -0.081 Cl
BRANCH  34  37
ATOM     37  N   UNL     1      -9.359   4.205  -0.290  0.00  0.00    +0.058 N 
ATOM     38  O   UNL     1      -9.296   3.034  -0.619  0.00  0.00    -0.126 OA
ATOM     39  O   UNL     1     -10.259   4.587   0.436  0.00  0.00    -0.126 OA
ENDBRANCH  34  37
ENDBRANCH  28  30
ENDBRANCH  12  26
TORSDOF 4
