REMARK  Name = ZINC39695913
REMARK  11 active torsions:
REMARK  status: ('A' for Active; 'I' for Inactive)
REMARK    1  A    between atoms: C_1  and  C_2
REMARK    2  A    between atoms: C_2  and  C_3
REMARK    3  A    between atoms: C_3  and  C_4
REMARK    4  A    between atoms: C_4  and  C_6
REMARK    5  A    between atoms: C_4  and  C_7
REMARK    6  A    between atoms: C_11  and  C_20
REMARK    7  A    between atoms: N_22  and  C_23
REMARK    8  A    between atoms: C_23  and  C_25
REMARK    9  A    between atoms: C_23  and  C_26
REMARK   10  A    between atoms: C_29  and  C_32
REMARK   11  A    between atoms: C_32  and  C_33
REMARK                            x       y       z     vdW  Elec       q    Type
REMARK                         _______ _______ _______ _____ _____    ______ ____
ROOT
ATOM      1  C   UNL     1       1.314  -2.554  -2.227  0.00  0.00    +0.218 C 
ATOM      2  O   UNL     1       1.688  -1.680  -2.980  0.00  0.00    -0.275 OA
ATOM      3  N   UNL     1       1.442  -3.848  -2.580  0.00  0.00    -0.300 N 
ATOM      4  C   UNL     1       1.042  -5.046  -1.804  0.00  0.00    +0.121 C 
ATOM      5  C   UNL     1       0.462  -6.017  -2.857  0.00  0.00    +0.100 C 
ATOM      6  C   UNL     1       1.106  -5.587  -4.185  0.00  0.00    -0.004 C 
ATOM      7  C   UNL     1       2.010  -4.396  -3.835  0.00  0.00    +0.115 C 
ATOM      8  C   UNL     1       0.032  -5.152  -5.177  0.00  0.00    -0.010 C 
ATOM      9  C   UNL     1       0.693  -4.783  -6.509  0.00  0.00    -0.082 C 
ATOM     10  N   UNL     1       1.429  -5.942  -7.029  0.00  0.00    +0.379 N 
ATOM     11  C   UNL     1       2.519  -6.296  -6.113  0.00  0.00    -0.082 C 
ATOM     12  C   UNL     1       1.936  -6.728  -4.765  0.00  0.00    -0.010 C 
ATOM     13  H   UNL     1       0.799  -6.726  -7.119  0.00  0.00    -0.086 HD
ATOM     14  H   UNL     1       1.812  -5.716  -7.935  0.00  0.00    -0.086 HD
ENDROOT
BRANCH   5  15
ATOM     15  C   UNL     1      -1.037  -5.878  -2.929  0.00  0.00    +0.219 C 
ATOM     16  O   UNL     1      -1.560  -4.810  -2.690  0.00  0.00    -0.275 OA
ATOM     17  N   UNL     1      -1.797  -6.941  -3.259  0.00  0.00    -0.308 N 
ATOM     18  H   UNL     1      -1.379  -7.795  -3.450  0.00  0.00    +0.149 HD
BRANCH  17  19
ATOM     19  C   UNL     1      -3.254  -6.806  -3.330  0.00  0.00    +0.100 C 
ATOM     20  C   UNL     1      -3.651  -6.279  -4.710  0.00  0.00    +0.033 C 
BRANCH  19  21
ATOM     21  C   UNL     1      -3.895  -8.152  -3.103  0.00  0.00    -0.027 A 
ATOM     22  C   UNL     1      -3.332  -9.287  -3.655  0.00  0.00    +0.006 A 
ATOM     23  C   UNL     1      -3.919 -10.521  -3.446  0.00  0.00    +0.004 A 
ATOM     24  C   UNL     1      -5.069 -10.619  -2.686  0.00  0.00    -0.048 A 
ATOM     25  C   UNL     1      -5.631  -9.484  -2.133  0.00  0.00    +0.004 A 
ATOM     26  C   UNL     1      -5.042  -8.251  -2.337  0.00  0.00    +0.006 A 
BRANCH  24  27
ATOM     27  C   UNL     1      -5.710 -11.964  -2.459  0.00  0.00    +0.032 C 
ATOM     28  C   UNL     1      -5.127 -12.601  -1.196  0.00  0.00    +0.009 C 
ENDBRANCH  24  27
ENDBRANCH  19  21
ENDBRANCH  17  19
ENDBRANCH   5  15
BRANCH   1  29
ATOM     29  C   UNL     1       0.706  -2.193  -0.896  0.00  0.00    +0.072 C 
ATOM     30  C   UNL     1       1.544  -2.802   0.230  0.00  0.00    +0.017 C 
BRANCH  29  31
ATOM     31  C   UNL     1       0.677  -0.670  -0.745  0.00  0.00    +0.012 C 
BRANCH  31  33
ATOM     32  C   UNL     1      -0.080   1.222   0.699  0.00  0.00    +0.004 C 
ATOM     33  C   UNL     1      -0.052  -0.300   0.548  0.00  0.00    -0.003 C 
ENDBRANCH  31  33
ENDBRANCH  29  31
ENDBRANCH   1  29
TORSDOF 7
