REMARK  Name = ZINC09011518
REMARK  9 active torsions:
REMARK  status: ('A' for Active; 'I' for Inactive)
REMARK    1  A    between atoms: C_4  and  O_7
REMARK    2  A    between atoms: O_7  and  C_8
REMARK    3  A    between atoms: C_13  and  N_14
REMARK    4  A    between atoms: C_15  and  C_17
REMARK    5  A    between atoms: C_17  and  O_18
REMARK    6  A    between atoms: O_18  and  C_19
REMARK    7  A    between atoms: C_19  and  C_21
REMARK    8  A    between atoms: N_29  and  C_32
REMARK    9  A    between atoms: C_32  and  C_33
REMARK                            x       y       z     vdW  Elec       q    Type
REMARK                         _______ _______ _______ _____ _____    ______ ____
ROOT
ATOM      1  O   UNL     1       4.980  -0.073  -1.424  0.00  0.00    -0.452 OA
ENDROOT
BRANCH   1   2
ATOM      2  C   UNL     1       3.840  -0.778  -1.555  0.00  0.00    +0.340 C 
ATOM      3  O   UNL     1       3.818  -1.957  -1.265  0.00  0.00    -0.245 OA
BRANCH   2   4
ATOM      4  C   UNL     1       2.614  -0.116  -2.053  0.00  0.00    +0.060 A 
ATOM      5  C   UNL     1       2.641   1.238  -2.386  0.00  0.00    +0.016 A 
ATOM      6  C   UNL     1       1.498   1.866  -2.853  0.00  0.00    +0.014 A 
ATOM      7  C   UNL     1       0.322   1.146  -2.990  0.00  0.00    +0.049 A 
ATOM      8  C   UNL     1       0.288  -0.223  -2.655  0.00  0.00    +0.050 A 
ATOM      9  C   UNL     1       1.431  -0.849  -2.189  0.00  0.00    +0.028 A 
ATOM     10  C   UNL     1      -1.096  -0.670  -2.918  0.00  0.00    +0.254 C 
ATOM     11  O   UNL     1      -1.521  -1.795  -2.750  0.00  0.00    -0.270 OA
ATOM     12  N   UNL     1      -1.807   0.377  -3.373  0.00  0.00    -0.227 N 
ATOM     13  C   UNL     1      -1.047   1.485  -3.440  0.00  0.00    +0.254 C 
ATOM     14  O   UNL     1      -1.420   2.579  -3.814  0.00  0.00    -0.270 OA
BRANCH  12  15
ATOM     15  C   UNL     1      -3.223   0.320  -3.742  0.00  0.00    +0.191 C 
BRANCH  15  16
ATOM     16  C   UNL     1      -4.069   0.636  -2.535  0.00  0.00    +0.123 A 
ATOM     17  C   UNL     1      -4.482   1.861  -2.162  0.00  0.00    +0.046 A 
ATOM     18  C   UNL     1      -5.247   1.694  -0.985  0.00  0.00    +0.041 A 
ATOM     19  C   UNL     1      -5.250   0.379  -0.705  0.00  0.00    +0.195 A 
ATOM     20  O   UNL     1      -4.535  -0.258  -1.647  0.00  0.00    -0.466 OA
ENDBRANCH  15  16
ENDBRANCH  12  15
ENDBRANCH   2   4
ENDBRANCH   1   2
BRANCH   1  21
ATOM     21  C   UNL     1       6.143  -0.787  -0.930  0.00  0.00    +0.328 C 
BRANCH  21  23
ATOM     22  N   UNL     1       8.511  -0.289  -0.414  0.00  0.00    -0.280 N 
ATOM     23  C   UNL     1       7.315   0.156  -0.849  0.00  0.00    +0.255 C 
ATOM     24  O   UNL     1       7.183   1.317  -1.176  0.00  0.00    -0.272 OA
ATOM     25  H   UNL     1       8.613  -1.214  -0.139  0.00  0.00    +0.155 HD
BRANCH  22  31
ATOM     26  C   UNL     1      10.902   0.074  -0.308  0.00  0.00    +0.150 A 
ATOM     27  C   UNL     1      11.981   0.942  -0.259  0.00  0.00    +0.048 A 
ATOM     28  C   UNL     1      11.770   2.308  -0.249  0.00  0.00    +0.004 A 
ATOM     29  C   UNL     1      10.484   2.813  -0.293  0.00  0.00    +0.002 A 
ATOM     30  C   UNL     1       9.402   1.955  -0.349  0.00  0.00    +0.027 A 
ATOM     31  C   UNL     1       9.606   0.583  -0.359  0.00  0.00    +0.076 A 
BRANCH  26  32
ATOM     32  O   UNL     1      11.107  -1.269  -0.313  0.00  0.00    -0.454 OA
BRANCH  32  36
ATOM     33  C   UNL     1      11.046  -3.227  -3.944  0.00  0.00    +0.000 A 
ATOM     34  C   UNL     1      11.372  -3.919  -2.792  0.00  0.00    +0.004 A 
ATOM     35  C   UNL     1      11.394  -3.266  -1.575  0.00  0.00    +0.046 A 
ATOM     36  C   UNL     1      11.087  -1.914  -1.509  0.00  0.00    +0.129 A 
ATOM     37  C   UNL     1      10.755  -1.223  -2.665  0.00  0.00    +0.046 A 
ATOM     38  C   UNL     1      10.740  -1.880  -3.880  0.00  0.00    +0.004 A 
ENDBRANCH  32  36
ENDBRANCH  26  32
ENDBRANCH  22  31
ENDBRANCH  21  23
ENDBRANCH   1  21
TORSDOF 9
