REMARK  Name = ZINC06393987
REMARK  7 active torsions:
REMARK  status: ('A' for Active; 'I' for Inactive)
REMARK    1  A    between atoms: C_1  and  C_2
REMARK    2  A    between atoms: C_2  and  C_3
REMARK    3  A    between atoms: C_3  and  C_27
REMARK    4  A    between atoms: N_12  and  C_17
REMARK    5  A    between atoms: N_15  and  N_16
REMARK    6  A    between atoms: C_20  and  O_23
REMARK    7  A    between atoms: O_23  and  C_24
REMARK                            x       y       z     vdW  Elec       q    Type
REMARK                         _______ _______ _______ _____ _____    ______ ____
ROOT
ATOM      1  C   UNL     1       4.333  -0.006  -9.394  0.00  0.00    +0.071 C 
ATOM      2  C   UNL     1       4.087  -0.230  -7.899  0.00  0.00    +0.071 C 
ATOM      3  C   UNL     1       4.100  -1.735  -7.639  0.00  0.00    -0.018 A 
ATOM      4  C   UNL     1       4.649  -2.564  -8.553  0.00  0.00    +0.021 A 
ATOM      5  S   UNL     1       4.457  -4.187  -7.872  0.00  0.00    -0.071 S 
ATOM      6  C   UNL     1       3.639  -3.747  -6.359  0.00  0.00    +0.118 A 
ATOM      7  C   UNL     1       3.542  -2.346  -6.435  0.00  0.00    +0.076 A 
ATOM      8  C   UNL     1       2.907  -1.706  -5.324  0.00  0.00    +0.268 A 
ATOM      9  O   UNL     1       2.774  -0.494  -5.303  0.00  0.00    -0.266 OA
ATOM     10  N   UNL     1       2.461  -2.458  -4.302  0.00  0.00    -0.248 N 
ATOM     11  C   UNL     1       2.596  -3.817  -4.310  0.00  0.00    +0.218 A 
ATOM     12  N   UNL     1       3.174  -4.432  -5.321  0.00  0.00    -0.207 NA
ATOM     13  N   UNL     1       2.124  -4.551  -3.251  0.00  0.00    -0.253 N 
ATOM     14  C   UNL     1       5.276  -2.162  -9.851  0.00  0.00    +0.203 C 
ATOM     15  O   UNL     1       5.483  -0.741  -9.820  0.00  0.00    -0.368 OA
ATOM     16  C   UNL     1       3.111  -0.478 -10.186  0.00  0.00    +0.042 C 
ATOM     17  H   UNL     1       1.632  -4.114  -2.538  0.00  0.00    +0.169 HD
ENDROOT
BRANCH  10  18
ATOM     18  C   UNL     1       1.841  -1.835  -3.208  0.00  0.00    +0.053 A 
ATOM     19  C   UNL     1       0.469  -1.625  -3.216  0.00  0.00    +0.030 A 
ATOM     20  C   UNL     1      -0.142  -1.012  -2.139  0.00  0.00    +0.047 A 
ATOM     21  C   UNL     1       0.617  -0.607  -1.050  0.00  0.00    +0.120 A 
ATOM     22  C   UNL     1       1.989  -0.812  -1.045  0.00  0.00    +0.047 A 
ATOM     23  C   UNL     1       2.599  -1.429  -2.119  0.00  0.00    +0.030 A 
BRANCH  21  24
ATOM     24  O   UNL     1       0.015  -0.004   0.009  0.00  0.00    -0.495 OA
ATOM     25  C   UNL     1       0.857   0.388   1.096  0.00  0.00    +0.277 C 
ENDBRANCH  21  24
ENDBRANCH  10  18
BRANCH  13  26
ATOM     26  N   UNL     1       2.347  -5.898  -3.200  0.00  0.00    -0.254 NA
ATOM     27  H   UNL     1       3.333  -6.104  -3.259  0.00  0.00    +0.140 HD
ATOM     28  H   UNL     1       1.944  -6.300  -2.367  0.00  0.00    +0.140 HD
ENDBRANCH  13  26
BRANCH   1  30
ATOM     29  C   UNL     1       4.681   1.729 -11.158  0.00  0.00    +0.007 C 
ATOM     30  C   UNL     1       4.559   1.485  -9.653  0.00  0.00    +0.032 C 
ENDBRANCH   1  30
TORSDOF 4
