REMARK  Name = ZINC13244673
REMARK  10 active torsions:
REMARK  status: ('A' for Active; 'I' for Inactive)
REMARK    1  A    between atoms: C_1  and  C_2
REMARK    2  A    between atoms: C_2  and  C_3
REMARK    3  A    between atoms: C_3  and  C_4
REMARK    4  A    between atoms: C_7  and  S_12
REMARK    5  A    between atoms: N_8  and  C_9
REMARK    6  A    between atoms: C_9  and  C_10
REMARK    7  A    between atoms: S_12  and  C_13
REMARK    8  A    between atoms: C_13  and  C_14
REMARK    9  A    between atoms: C_23  and  S_25
REMARK   10  A    between atoms: S_25  and  N_28
REMARK                            x       y       z     vdW  Elec       q    Type
REMARK                         _______ _______ _______ _____ _____    ______ ____
ROOT
ATOM      1  C   UNL     1      -0.387   1.342   2.462  0.00  0.00    +0.230 C 
ATOM      2  O   UNL     1      -1.055   1.795   3.368  0.00  0.00    -0.274 OA
ATOM      3  N   UNL     1      -0.738   1.578   1.182  0.00  0.00    -0.270 N 
ATOM      4  C   UNL     1      -0.013   1.086   0.008  0.00  0.00    +0.118 C 
ATOM      5  C   UNL     1      -0.797   1.615  -1.204  0.00  0.00    +0.056 C 
ATOM      6  C   UNL     1      -1.947   2.393  -0.603  0.00  0.00    -0.023 A 
ATOM      7  C   UNL     1      -1.849   2.327   0.778  0.00  0.00    +0.040 A 
ATOM      8  C   UNL     1      -2.809   2.976   1.556  0.00  0.00    +0.026 A 
ATOM      9  C   UNL     1      -3.839   3.670   0.955  0.00  0.00    +0.030 A 
ATOM     10  C   UNL     1      -3.927   3.729  -0.423  0.00  0.00    +0.106 A 
ATOM     11  C   UNL     1      -2.979   3.089  -1.201  0.00  0.00    +0.034 A 
ENDROOT
BRANCH  10  12
ATOM     12  S   UNL     1      -5.243   4.617  -1.187  0.00  0.00    +0.061 S 
ATOM     13  O   UNL     1      -5.686   5.580  -0.241  0.00  0.00    -0.153 OA
ATOM     14  O   UNL     1      -4.791   4.976  -2.485  0.00  0.00    -0.153 OA
BRANCH  12  15
ATOM     15  N   UNL     1      -6.494   3.552  -1.399  0.00  0.00    -0.177 NA
ATOM     16  C   UNL     1      -6.715   2.716  -2.588  0.00  0.00    +0.109 C 
ATOM     17  C   UNL     1      -8.008   1.909  -2.347  0.00  0.00    +0.018 C 
ATOM     18  C   UNL     1      -8.752   2.758  -1.283  0.00  0.00    +0.018 C 
ATOM     19  C   UNL     1      -7.573   3.290  -0.430  0.00  0.00    +0.109 C 
ENDBRANCH  12  15
ENDBRANCH  10  12
BRANCH   1  20
ATOM     20  C   UNL     1       0.837   0.517   2.768  0.00  0.00    +0.173 C 
BRANCH  20  21
ATOM     21  S   UNL     1       1.040   0.382   4.561  0.00  0.00    -0.077 S 
BRANCH  21  25
ATOM     22  C   UNL     1       4.211  -1.760   5.324  0.00  0.00    +0.135 A 
ATOM     23  N   UNL     1       4.188  -1.745   4.021  0.00  0.00    -0.134 NA
ATOM     24  N   UNL     1       3.179  -1.064   3.606  0.00  0.00    -0.122 NA
ATOM     25  C   UNL     1       2.499  -0.604   4.630  0.00  0.00    +0.193 A 
ATOM     26  N   UNL     1       3.140  -1.028   5.759  0.00  0.00    -0.295 N 
BRANCH  22  27
ATOM     27  C   UNL     1       5.233  -2.449   6.191  0.00  0.00    +0.076 C 
BRANCH  27  29
ATOM     28  C   UNL     1       7.423  -2.187   7.364  0.00  0.00    +0.004 C 
ATOM     29  C   UNL     1       6.386  -1.487   6.484  0.00  0.00    +0.004 C 
ENDBRANCH  27  29
ENDBRANCH  22  27
BRANCH  26  30
ATOM     30  C   UNL     1       2.757  -0.760   7.147  0.00  0.00    +0.250 C 
BRANCH  30  31
ATOM     31  C   UNL     1       1.831  -1.845   7.632  0.00  0.00    +0.375 C 
ATOM     32  O   UNL     1       1.522  -2.750   6.894  0.00  0.00    -0.244 OA
ATOM     33  O   UNL     1       1.349  -1.806   8.884  0.00  0.00    -0.244 OA
ENDBRANCH  30  31
ENDBRANCH  26  30
ENDBRANCH  21  25
ENDBRANCH  20  21
ENDBRANCH   1  20
TORSDOF 9
