REMARK  Name = ZINC13231418
REMARK  13 active torsions:
REMARK  status: ('A' for Active; 'I' for Inactive)
REMARK    1  A    between atoms: C_4  and  C_7
REMARK    2  A    between atoms: C_7  and  C_8
REMARK    3  A    between atoms: C_8  and  N_9
REMARK    4  A    between atoms: C_15  and  C_33
REMARK    5  A    between atoms: C_19  and  S_20
REMARK    6  A    between atoms: S_20  and  C_21
REMARK    7  A    between atoms: C_21  and  C_22
REMARK    8  A    between atoms: N_24  and  C_25
REMARK    9  A    between atoms: N_24  and  C_29
REMARK   10  A    between atoms: C_25  and  C_26
REMARK   11  A    between atoms: C_26  and  C_27
REMARK   12  A    between atoms: C_29  and  C_30
REMARK   13  A    between atoms: C_30  and  C_31
REMARK                            x       y       z     vdW  Elec       q    Type
REMARK                         _______ _______ _______ _____ _____    ______ ____
ROOT
ATOM      1  N   UNL     1      -0.018   1.461   0.010  0.00  0.00    -0.287 N 
ATOM      2  C   UNL     1      -1.202   2.116   0.019  0.00  0.00    +0.262 A 
ATOM      3  O   UNL     1      -2.257   1.510   0.021  0.00  0.00    -0.267 OA
ATOM      4  C   UNL     1      -1.166   3.587   0.033  0.00  0.00    +0.065 A 
ATOM      5  C   UNL     1      -2.335   4.347   0.048  0.00  0.00    +0.016 A 
ATOM      6  C   UNL     1      -2.260   5.711   0.054  0.00  0.00    +0.016 A 
ATOM      7  C   UNL     1      -1.016   6.356   0.046  0.00  0.00    +0.065 A 
ATOM      8  C   UNL     1       0.161   5.618   0.031  0.00  0.00    +0.043 A 
ATOM      9  C   UNL     1       0.096   4.222   0.024  0.00  0.00    +0.080 A 
ATOM     10  N   UNL     1       1.217   3.463   0.009  0.00  0.00    -0.223 NA
ATOM     11  C   UNL     1       1.159   2.154   0.003  0.00  0.00    +0.173 A 
ENDROOT
BRANCH   7  12
ATOM     12  C   UNL     1      -0.956   7.835   0.053  0.00  0.00    +0.387 C 
ATOM     13  O   UNL     1       0.119   8.399   0.045  0.00  0.00    -0.241 OA
ATOM     14  O   UNL     1      -2.094   8.555   0.067  0.00  0.00    -0.241 OA
ENDBRANCH   7  12
BRANCH   1  15
ATOM     15  C   UNL     1       0.002  -0.004   0.002  0.00  0.00    +0.132 C 
BRANCH  15  16
ATOM     16  C   UNL     1       0.023  -0.522   1.442  0.00  0.00    +0.057 C 
BRANCH  16  20
ATOM     17  C   UNL     1       0.081  -4.793   1.419  0.00  0.00    +0.000 A 
ATOM     18  C   UNL     1       1.268  -4.086   1.411  0.00  0.00    +0.000 A 
ATOM     19  C   UNL     1       1.250  -2.703   1.418  0.00  0.00    +0.004 A 
ATOM     20  C   UNL     1       0.043  -2.029   1.433  0.00  0.00    -0.046 A 
ATOM     21  C   UNL     1      -1.144  -2.736   1.447  0.00  0.00    +0.004 A 
ATOM     22  C   UNL     1      -1.126  -4.118   1.434  0.00  0.00    +0.000 A 
ENDBRANCH  16  20
ENDBRANCH  15  16
ENDBRANCH   1  15
BRANCH  11  23
ATOM     23  S   UNL     1       2.669   1.246  -0.017  0.00  0.00    -0.078 S 
BRANCH  23  24
ATOM     24  C   UNL     1       3.857   2.612  -0.021  0.00  0.00    +0.173 C 
BRANCH  24  25
ATOM     25  C   UNL     1       5.258   2.058  -0.037  0.00  0.00    +0.226 C 
ATOM     26  O   UNL     1       5.436   0.859  -0.045  0.00  0.00    -0.275 OA
ATOM     27  N   UNL     1       6.314   2.897  -0.043  0.00  0.00    -0.299 N 
BRANCH  27  28
ATOM     28  C   UNL     1       7.676   2.359  -0.059  0.00  0.00    +0.122 C 
BRANCH  28  29
ATOM     29  C   UNL     1       8.137   2.179  -1.506  0.00  0.00    +0.137 C 
BRANCH  29  30
ATOM     30  C   UNL     1       9.506   1.639  -1.522  0.00  0.00    +0.064 C 
ATOM     31  N   UNL     1      10.562   1.221  -1.535  0.00  0.00    -0.197 NA
ENDBRANCH  29  30
ENDBRANCH  28  29
ENDBRANCH  27  28
BRANCH  27  32
ATOM     32  C   UNL     1       6.098   4.346  -0.033  0.00  0.00    +0.122 C 
BRANCH  32  33
ATOM     33  C   UNL     1       6.037   4.842   1.413  0.00  0.00    +0.137 C 
BRANCH  33  34
ATOM     34  C   UNL     1       5.821   6.298   1.423  0.00  0.00    +0.064 C 
ATOM     35  N   UNL     1       5.654   7.422   1.431  0.00  0.00    -0.197 NA
ENDBRANCH  33  34
ENDBRANCH  32  33
ENDBRANCH  27  32
ENDBRANCH  24  25
ENDBRANCH  23  24
ENDBRANCH  11  23
TORSDOF 13
