REMARK  Name = ZINC27016201
REMARK  6 active torsions:
REMARK  status: ('A' for Active; 'I' for Inactive)
REMARK    1  A    between atoms: C_2  and  C_3
REMARK    2  A    between atoms: C_3  and  N_4
REMARK    3  A    between atoms: C_5  and  C_25
REMARK    4  A    between atoms: C_6  and  N_17
REMARK    5  A    between atoms: N_9  and  C_10
REMARK    6  A    between atoms: C_18  and  C_20
REMARK                            x       y       z     vdW  Elec       q    Type
REMARK                         _______ _______ _______ _____ _____    ______ ____
ROOT
ATOM      1  N   UNL     1       3.339   6.103  -0.432  0.00  0.00    -0.315 N 
ATOM      2  C   UNL     1       3.089   7.391  -0.028  0.00  0.00    +0.080 A 
ATOM      3  C   UNL     1       1.809   7.774   0.218  0.00  0.00    +0.100 A 
ATOM      4  S   UNL     1       0.897   6.280  -0.136  0.00  0.00    -0.036 S 
ATOM      5  C   UNL     1       2.279   5.243  -0.588  0.00  0.00    +0.154 A 
ATOM      6  N   UNL     1       2.282   3.979  -0.966  0.00  0.00    -0.336 N 
ATOM      7  H   UNL     1       3.236   3.457  -1.133  0.00  0.00    +0.168 HD
ENDROOT
BRANCH   6   8
ATOM      8  C   UNL     1       1.100   3.318  -1.152  0.00  0.00    +0.042 A 
ATOM      9  C   UNL     1       0.436   3.398  -2.379  0.00  0.00    +0.026 A 
ATOM     10  C   UNL     1      -0.757   2.730  -2.560  0.00  0.00    +0.003 A 
ATOM     11  C   UNL     1      -1.300   1.985  -1.528  0.00  0.00    +0.020 A 
ATOM     12  C   UNL     1      -0.645   1.896  -0.310  0.00  0.00    +0.043 A 
ATOM     13  C   UNL     1       0.549   2.560  -0.116  0.00  0.00    +0.045 A 
ATOM     14 CL   UNL     1      -1.332   0.954   0.976  0.00  0.00    -0.083 Cl
ENDBRANCH   6   8
BRANCH   2  15
ATOM     15  C   UNL     1       4.199   8.348   0.144  0.00  0.00    +0.001 A 
ATOM     16  C   UNL     1       5.233   8.400  -0.795  0.00  0.00    +0.010 A 
ATOM     17  C   UNL     1       6.265   9.300  -0.630  0.00  0.00    +0.001 A 
ATOM     18  C   UNL     1       6.284  10.143   0.468  0.00  0.00    +0.000 A 
ATOM     19  C   UNL     1       5.266  10.093   1.404  0.00  0.00    +0.001 A 
ATOM     20  C   UNL     1       4.225   9.202   1.250  0.00  0.00    +0.010 A 
ENDBRANCH   2  15
BRANCH   3  21
ATOM     21  N   UNL     1       1.331   9.012   0.638  0.00  0.00    -0.272 N 
ATOM     22  C   UNL     1       0.033   9.155   0.972  0.00  0.00    +0.284 C 
ATOM     23  O   UNL     1      -0.721   8.202   0.906  0.00  0.00    -0.266 OA
ATOM     24  H   UNL     1       2.013   9.874   0.697  0.00  0.00    +0.156 HD
BRANCH  22  25
ATOM     25  C   UNL     1      -0.470  10.460   1.413  0.00  0.00    +0.189 A 
ATOM     26  C   UNL     1      -1.757  10.743   1.774  0.00  0.00    +0.054 A 
ATOM     27  C   UNL     1      -1.787  12.102   2.125  0.00  0.00    +0.042 A 
ATOM     28  C   UNL     1      -0.536  12.584   1.958  0.00  0.00    +0.196 A 
ATOM     29  O   UNL     1       0.255  11.591   1.529  0.00  0.00    -0.458 OA
ENDBRANCH  22  25
ENDBRANCH   3  21
BRANCH   1  30
ATOM     30  C   UNL     1       4.708   5.656  -0.698  0.00  0.00    +0.151 C 
BRANCH  30  32
ATOM     31  C   UNL     1       5.291   3.325  -1.128  0.00  0.00    +0.005 C 
ATOM     32  C   UNL     1       4.859   4.218  -0.274  0.00  0.00    -0.013 C 
ENDBRANCH  30  32
ENDBRANCH   1  30
TORSDOF 6
