REMARK  Name = ZINC63869538
REMARK  6 active torsions:
REMARK  status: ('A' for Active; 'I' for Inactive)
REMARK    1  A    between atoms: C_7  and  C_10
REMARK    2  A    between atoms: C_10  and  C_11
REMARK    3  A    between atoms: N_15  and  C_19
REMARK    4  A    between atoms: C_19  and  C_20
REMARK    5  A    between atoms: N_22  and  C_23
REMARK    6  A    between atoms: C_27  and  C_29
REMARK                            x       y       z     vdW  Elec       q    Type
REMARK                         _______ _______ _______ _____ _____    ______ ____
ROOT
ATOM      1  C   UNL     1       0.458  -3.656  -1.466  0.00  0.00    +0.165 C 
ATOM      2  C   UNL     1      -0.431  -4.884  -1.493  0.00  0.00    +0.244 C 
ATOM      3  O   UNL     1      -0.200  -5.967  -1.000  0.00  0.00    -0.273 OA
ATOM      4  N   UNL     1      -1.533  -4.520  -2.179  0.00  0.00    -0.216 N 
ATOM      5  C   UNL     1      -1.465  -3.247  -2.584  0.00  0.00    +0.310 C 
ATOM      6  O   UNL     1      -2.339  -2.692  -3.220  0.00  0.00    -0.252 OA
ATOM      7  N   UNL     1      -0.316  -2.647  -2.209  0.00  0.00    -0.287 N 
ATOM      8  H   UNL     1      -0.051  -1.732  -2.392  0.00  0.00    +0.151 HD
ENDROOT
BRANCH   1   9
ATOM      9  C   UNL     1       0.697  -3.197  -0.026  0.00  0.00    +0.065 C 
BRANCH   9  16
ATOM     10  C   UNL     1      -0.006   1.337   0.037  0.00  0.00    +0.001 A 
ATOM     11  C   UNL     1       1.176   2.089   0.030  0.00  0.00    +0.002 A 
ATOM     12  C   UNL     1       2.401   1.522   0.008  0.00  0.00    +0.026 A 
ATOM     13  C   UNL     1       2.538   0.107  -0.010  0.00  0.00    +0.043 A 
ATOM     14  N   UNL     1       3.595  -0.668  -0.033  0.00  0.00    -0.380 N 
ATOM     15  C   UNL     1       3.150  -2.066  -0.044  0.00  0.00    +0.144 C 
ATOM     16  C   UNL     1       1.639  -2.021  -0.024  0.00  0.00    -0.039 C 
ATOM     17  C   UNL     1       1.303  -0.711  -0.003  0.00  0.00    -0.001 A 
ATOM     18  C   UNL     1       0.011  -0.015   0.022  0.00  0.00    +0.010 A 
ATOM     19  H   UNL     1       4.517  -0.367  -0.042  0.00  0.00    +0.160 HD
ENDBRANCH   9  16
ENDBRANCH   1   9
BRANCH   4  20
ATOM     20  C   UNL     1      -2.666  -5.410  -2.448  0.00  0.00    +0.214 C 
BRANCH  20  21
ATOM     21  C   UNL     1      -3.670  -5.297  -1.329  0.00  0.00    +0.235 C 
ATOM     22  O   UNL     1      -3.459  -4.548  -0.399  0.00  0.00    -0.274 OA
ATOM     23  N   UNL     1      -4.801  -6.029  -1.363  0.00  0.00    -0.284 N 
ATOM     24  H   UNL     1      -5.001  -6.577  -2.138  0.00  0.00    +0.155 HD
BRANCH  23  25
ATOM     25  C   UNL     1      -5.686  -5.999  -0.279  0.00  0.00    +0.034 A 
ATOM     26  C   UNL     1      -5.872  -4.822   0.435  0.00  0.00    +0.025 A 
ATOM     27  C   UNL     1      -6.746  -4.795   1.503  0.00  0.00    +0.022 A 
ATOM     28  C   UNL     1      -7.437  -5.938   1.863  0.00  0.00    +0.053 A 
ATOM     29  C   UNL     1      -7.255  -7.112   1.153  0.00  0.00    +0.075 A 
ATOM     30  C   UNL     1      -6.386  -7.143   0.080  0.00  0.00    +0.037 A 
ATOM     31 CL   UNL     1      -8.535  -5.901   3.207  0.00  0.00    -0.083 Cl
BRANCH  29  32
ATOM     32  C   UNL     1      -8.009  -8.356   1.548  0.00  0.00    +0.419 C 
ATOM     33  F   UNL     1      -7.660  -9.404   0.689  0.00  0.00    -0.166 F 
ATOM     34  F   UNL     1      -7.682  -8.702   2.863  0.00  0.00    -0.166 F 
ATOM     35  F   UNL     1      -9.384  -8.116   1.456  0.00  0.00    -0.166 F 
ENDBRANCH  29  32
ENDBRANCH  23  25
ENDBRANCH  20  21
ENDBRANCH   4  20
TORSDOF 6
