REMARK  Name = ZINC67295131
REMARK  3 active torsions:
REMARK  status: ('A' for Active; 'I' for Inactive)
REMARK    1  A    between atoms: C_1  and  C_2
REMARK    2  A    between atoms: C_5  and  N_9
REMARK    3  A    between atoms: C_11  and  C_21
REMARK                            x       y       z     vdW  Elec       q    Type
REMARK                         _______ _______ _______ _____ _____    ______ ____
ROOT
ATOM      1  N   UNL     1      -0.661  -4.585  -0.343  0.00  0.00    -0.323 N 
ATOM      2  C   UNL     1       0.455  -4.853  -0.986  0.00  0.00    +0.212 A 
ATOM      3  C   UNL     1       1.155  -6.139  -0.793  0.00  0.00    +0.098 A 
ATOM      4  C   UNL     1       1.940  -6.595  -1.844  0.00  0.00    +0.030 A 
ATOM      5  C   UNL     1       2.004  -5.762  -3.047  0.00  0.00    +0.019 A 
ATOM      6  C   UNL     1       2.545  -6.263  -4.237  0.00  0.00    +0.026 A 
ATOM      7  C   UNL     1       2.590  -5.460  -5.355  0.00  0.00    +0.019 A 
ATOM      8  C   UNL     1       2.103  -4.161  -5.307  0.00  0.00    +0.019 A 
ATOM      9  C   UNL     1       1.568  -3.653  -4.140  0.00  0.00    +0.048 A 
ATOM     10  C   UNL     1       1.514  -4.443  -3.001  0.00  0.00    +0.137 A 
ATOM     11  O   UNL     1       0.995  -3.957  -1.851  0.00  0.00    -0.439 OA
ATOM     12 BR   UNL     1       3.321  -6.130  -6.965  0.00  0.00    -0.050 Br
ATOM     13  H   UNL     1      -1.085  -5.270   0.198  0.00  0.00    +0.169 HD
ENDROOT
BRANCH   3  14
ATOM     14  C   UNL     1       1.025  -6.904   0.458  0.00  0.00    +0.254 C 
ATOM     15  O   UNL     1       1.508  -8.017   0.543  0.00  0.00    -0.270 OA
ATOM     16  N   UNL     1       0.371  -6.372   1.509  0.00  0.00    -0.266 N 
ATOM     17  C   UNL     1       0.310  -7.066   2.716  0.00  0.00    +0.125 A 
ATOM     18  C   UNL     1       0.535  -8.438   2.733  0.00  0.00    +0.044 A 
ATOM     19  C   UNL     1       0.472  -9.114   3.938  0.00  0.00    +0.005 A 
ATOM     20  C   UNL     1       0.184  -8.393   5.089  0.00  0.00    +0.020 A 
ATOM     21  C   UNL     1      -0.028  -7.031   4.998  0.00  0.00    +0.113 A 
ATOM     22  N   UNL     1       0.044  -6.412   3.835  0.00  0.00    -0.240 NA
ATOM     23  H   UNL     1      -0.057  -5.505   1.426  0.00  0.00    +0.157 HD
ENDBRANCH   3  14
BRANCH   1  28
ATOM     24  C   UNL     1      -2.983   0.546  -0.732  0.00  0.00    +0.044 C 
ATOM     25  C   UNL     1      -2.364  -0.824  -0.627  0.00  0.00    -0.048 A 
ATOM     26  C   UNL     1      -1.805  -1.414  -1.747  0.00  0.00    +0.005 A 
ATOM     27  C   UNL     1      -1.236  -2.668  -1.659  0.00  0.00    +0.029 A 
ATOM     28  C   UNL     1      -1.223  -3.342  -0.436  0.00  0.00    +0.077 A 
ATOM     29  C   UNL     1      -1.789  -2.740   0.692  0.00  0.00    +0.147 A 
ATOM     30  C   UNL     1      -2.351  -1.482   0.590  0.00  0.00    +0.043 A 
ATOM     31  F   UNL     1      -1.782  -3.384   1.879  0.00  0.00    -0.203 F 
ENDBRANCH   1  28
TORSDOF 2
