REMARK  Name = ZINC27015476
REMARK  6 active torsions:
REMARK  status: ('A' for Active; 'I' for Inactive)
REMARK    1  A    between atoms: C_4  and  N_7
REMARK    2  A    between atoms: C_9  and  C_19
REMARK    3  A    between atoms: C_10  and  C_12
REMARK    4  A    between atoms: N_20  and  N_21
REMARK    5  A    between atoms: C_22  and  C_24
REMARK    6  A    between atoms: C_28  and  N_30
REMARK                            x       y       z     vdW  Elec       q    Type
REMARK                         _______ _______ _______ _____ _____    ______ ____
ROOT
ATOM      1  N   UNL     1     -11.901   0.505   0.117  0.00  0.00    -0.239 N 
ATOM      2  C   UNL     1     -11.018   1.524   0.175  0.00  0.00    +0.124 A 
ATOM      3  C   UNL     1      -9.760   0.999   0.070  0.00  0.00    +0.040 A 
ATOM      4  C   UNL     1      -9.920  -0.453  -0.053  0.00  0.00    +0.102 A 
ATOM      5  N   UNL     1     -11.211  -0.703  -0.020  0.00  0.00    -0.166 NA
ENDROOT
BRANCH   4   6
ATOM      6  C   UNL     1      -8.832  -1.451  -0.189  0.00  0.00    +0.003 A 
ATOM      7  C   UNL     1      -8.942  -2.483  -1.120  0.00  0.00    +0.011 A 
ATOM      8  C   UNL     1      -7.925  -3.407  -1.246  0.00  0.00    +0.016 A 
ATOM      9  C   UNL     1      -6.801  -3.315  -0.443  0.00  0.00    +0.018 A 
ATOM     10  C   UNL     1      -6.688  -2.295   0.486  0.00  0.00    +0.016 A 
ATOM     11  C   UNL     1      -7.698  -1.364   0.617  0.00  0.00    +0.011 A 
ATOM     12 BR   UNL     1      -5.413  -4.589  -0.616  0.00  0.00    -0.050 Br
ENDBRANCH   4   6
BRANCH   1  16
ATOM     13  C   UNL     1     -16.045   0.898   0.329  0.00  0.00    +0.000 A 
ATOM     14  C   UNL     1     -15.477  -0.355   0.192  0.00  0.00    +0.002 A 
ATOM     15  C   UNL     1     -14.104  -0.489   0.122  0.00  0.00    +0.028 A 
ATOM     16  C   UNL     1     -13.294   0.637   0.188  0.00  0.00    +0.065 A 
ATOM     17  C   UNL     1     -13.867   1.894   0.331  0.00  0.00    +0.028 A 
ATOM     18  C   UNL     1     -15.241   2.022   0.395  0.00  0.00    +0.002 A 
ENDBRANCH   1  16
BRANCH   3  19
ATOM     19  C   UNL     1      -8.490   1.746   0.083  0.00  0.00    +0.142 C 
ATOM     20  N   UNL     1      -7.370   1.127  -0.133  0.00  0.00    -0.187 NA
BRANCH  20  21
ATOM     21  N   UNL     1      -6.162   1.838  -0.120  0.00  0.00    -0.203 N 
ATOM     22  C   UNL     1      -4.999   1.195  -0.344  0.00  0.00    +0.263 C 
ATOM     23  O   UNL     1      -4.997  -0.002  -0.557  0.00  0.00    -0.268 OA
ATOM     24  H   UNL     1      -6.164   2.921   0.073  0.00  0.00    +0.178 HD
BRANCH  22  25
ATOM     25  C   UNL     1      -3.726   1.945  -0.330  0.00  0.00    +0.041 A 
ATOM     26  C   UNL     1      -3.724   3.320  -0.085  0.00  0.00    +0.013 A 
ATOM     27  C   UNL     1      -2.532   4.013  -0.074  0.00  0.00    +0.003 A 
ATOM     28  C   UNL     1      -1.339   3.349  -0.299  0.00  0.00    +0.033 A 
ATOM     29  C   UNL     1      -1.334   1.988  -0.548  0.00  0.00    +0.127 A 
ATOM     30  C   UNL     1      -2.519   1.282  -0.562  0.00  0.00    +0.045 A 
BRANCH  29  31
ATOM     31  N   UNL     1      -0.054   1.287  -0.793  0.00  0.00    +0.056 N 
ATOM     32  O   UNL     1      -0.048   0.088  -1.007  0.00  0.00    -0.126 OA
ATOM     33  O   UNL     1       0.993   1.910  -0.785  0.00  0.00    -0.126 OA
ENDBRANCH  29  31
ENDBRANCH  22  25
ENDBRANCH  20  21
ENDBRANCH   3  19
TORSDOF 6
