REMARK  Name = ZINC39940582
REMARK  4 active torsions:
REMARK  status: ('A' for Active; 'I' for Inactive)
REMARK    1  A    between atoms: C_1  and  C_2
REMARK    2  A    between atoms: C_3  and  C_25
REMARK    3  A    between atoms: C_4  and  C_19
REMARK    4  A    between atoms: N_27  and  C_28
REMARK                            x       y       z     vdW  Elec       q    Type
REMARK                         _______ _______ _______ _____ _____    ______ ____
ROOT
ATOM      1  C   UNL     1      -0.061   1.510  -0.513  0.00  0.00    +0.061 C 
ATOM      2  C   UNL     1      -0.017   0.015  -0.332  0.00  0.00    +0.014 C 
ATOM      3  C   UNL     1      -1.163  -0.652  -0.159  0.00  0.00    +0.043 C 
ATOM      4  C   UNL     1      -1.264  -2.135   0.040  0.00  0.00    +0.089 C 
ATOM      5  C   UNL     1       0.060  -2.796  -0.325  0.00  0.00    +0.013 C 
ATOM      6  C   UNL     1       1.198  -1.982  -0.443  0.00  0.00    +0.072 C 
ATOM      7  N   UNL     1       1.202  -0.626  -0.357  0.00  0.00    -0.312 N 
ATOM      8  S   UNL     1       2.558  -3.102  -0.669  0.00  0.00    -0.091 S 
ATOM      9  C   UNL     1       1.550  -4.574  -1.087  0.00  0.00    +0.185 C 
ATOM     10  C   UNL     1       0.217  -4.156  -0.461  0.00  0.00    +0.064 C 
ATOM     11  N   UNL     1      -0.648  -5.095  -0.066  0.00  0.00    -0.166 NA
ATOM     12  C   UNL     1      -0.214  -6.348   0.083  0.00  0.00    +0.330 C 
ATOM     13  O   UNL     1      -1.030  -7.246   0.189  0.00  0.00    -0.250 OA
ATOM     14  N   UNL     1       1.096  -6.651   0.120  0.00  0.00    -0.237 N 
ATOM     15  C   UNL     1       2.032  -5.811  -0.397  0.00  0.00    +0.239 C 
ATOM     16  O   UNL     1       3.217  -6.047  -0.298  0.00  0.00    -0.274 OA
ATOM     17  H   UNL     1       2.033  -0.128  -0.310  0.00  0.00    +0.152 HD
ATOM     18  H   UNL     1       1.380  -7.489   0.517  0.00  0.00    +0.159 HD
ENDROOT
BRANCH   4  19
ATOM     19  C   UNL     1      -1.588  -2.426   1.482  0.00  0.00    -0.035 A 
ATOM     20  C   UNL     1      -0.729  -2.009   2.482  0.00  0.00    +0.004 A 
ATOM     21  C   UNL     1      -1.026  -2.276   3.805  0.00  0.00    +0.000 A 
ATOM     22  C   UNL     1      -2.183  -2.960   4.129  0.00  0.00    +0.000 A 
ATOM     23  C   UNL     1      -3.042  -3.377   3.130  0.00  0.00    +0.000 A 
ATOM     24  C   UNL     1      -2.747  -3.107   1.807  0.00  0.00    +0.004 A 
ENDBRANCH   4  19
BRANCH   3  25
ATOM     25  C   UNL     1      -2.366   0.095  -0.163  0.00  0.00    +0.247 C 
ATOM     26  O   UNL     1      -2.332   1.302  -0.320  0.00  0.00    -0.270 OA
ATOM     27  N   UNL     1      -3.547  -0.530   0.008  0.00  0.00    -0.282 N 
ATOM     28  H   UNL     1      -3.582  -1.498   0.056  0.00  0.00    +0.155 HD
BRANCH  27  29
ATOM     29  C   UNL     1      -4.724   0.217   0.116  0.00  0.00    +0.034 A 
ATOM     30  C   UNL     1      -5.919  -0.291  -0.378  0.00  0.00    +0.023 A 
ATOM     31  C   UNL     1      -7.080   0.450  -0.271  0.00  0.00    +0.002 A 
ATOM     32  C   UNL     1      -7.053   1.696   0.328  0.00  0.00    +0.000 A 
ATOM     33  C   UNL     1      -5.866   2.205   0.820  0.00  0.00    +0.002 A 
ATOM     34  C   UNL     1      -4.703   1.467   0.721  0.00  0.00    +0.023 A 
ENDBRANCH  27  29
ENDBRANCH   3  25
TORSDOF 3
