REMARK  Name = ZINC64892856
REMARK  6 active torsions:
REMARK  status: ('A' for Active; 'I' for Inactive)
REMARK    1  A    between atoms: C_1  and  C_2
REMARK    2  A    between atoms: C_5  and  N_8
REMARK    3  A    between atoms: C_20  and  C_21
REMARK    4  A    between atoms: C_20  and  C_22
REMARK    5  A    between atoms: N_24  and  C_25
REMARK    6  A    between atoms: C_25  and  C_26
REMARK                            x       y       z     vdW  Elec       q    Type
REMARK                         _______ _______ _______ _____ _____    ______ ____
ROOT
ATOM      1  N   UNL     1       0.139  -4.178   0.007  0.00  0.00    -0.250 N 
ATOM      2  C   UNL     1       0.163  -4.808  -1.190  0.00  0.00    +0.268 C 
ATOM      3  O   UNL     1       0.443  -4.220  -2.218  0.00  0.00    -0.268 OA
ATOM      4  C   UNL     1      -0.167  -6.240  -1.185  0.00  0.00    +0.106 A 
ATOM      5  C   UNL     1      -0.060  -7.165  -2.159  0.00  0.00    +0.041 A 
ATOM      6  C   UNL     1      -0.499  -8.417  -1.630  0.00  0.00    +0.008 A 
ATOM      7  C   UNL     1      -0.660  -9.801  -2.055  0.00  0.00    +0.017 A 
ATOM      8  C   UNL     1      -1.132 -10.701  -1.182  0.00  0.00    +0.048 A 
ATOM      9  S   UNL     1      -1.398  -9.740   0.295  0.00  0.00    -0.079 S 
ATOM     10  C   UNL     1      -0.869  -8.155  -0.303  0.00  0.00    +0.088 A 
ATOM     11  N   UNL     1      -0.679  -6.849  -0.037  0.00  0.00    -0.328 N 
ATOM     12  C   UNL     1      -0.938  -6.082   1.186  0.00  0.00    +0.158 C 
ATOM     13  C   UNL     1       0.049  -4.913   1.264  0.00  0.00    +0.133 C 
ATOM     14  C   UNL     1       1.436  -5.453   1.621  0.00  0.00    +0.044 C 
ENDROOT
BRANCH   1  19
ATOM     15  C   UNL     1       0.419   1.485   0.145  0.00  0.00    +0.044 C 
ATOM     16  C   UNL     1       0.344  -0.019   0.108  0.00  0.00    -0.050 A 
ATOM     17  C   UNL     1      -0.732  -0.642  -0.497  0.00  0.00    +0.005 A 
ATOM     18  C   UNL     1      -0.803  -2.021  -0.532  0.00  0.00    +0.024 A 
ATOM     19  C   UNL     1       0.208  -2.782   0.041  0.00  0.00    +0.038 A 
ATOM     20  C   UNL     1       1.287  -2.153   0.648  0.00  0.00    +0.024 A 
ATOM     21  C   UNL     1       1.355  -0.774   0.675  0.00  0.00    +0.005 A 
ENDBRANCH   1  19
BRANCH  13  22
ATOM     22  C   UNL     1      -0.398  -3.969   2.349  0.00  0.00    +0.239 C 
ATOM     23  O   UNL     1       0.150  -3.986   3.431  0.00  0.00    -0.273 OA
ATOM     24  N   UNL     1      -1.406  -3.105   2.118  0.00  0.00    -0.309 N 
ATOM     25  H   UNL     1      -1.797  -3.041   1.233  0.00  0.00    +0.149 HD
BRANCH  24  26
ATOM     26  C   UNL     1      -1.912  -2.262   3.204  0.00  0.00    +0.139 C 
BRANCH  26  27
ATOM     27  C   UNL     1      -3.115  -1.492   2.724  0.00  0.00    -0.030 A 
ATOM     28  C   UNL     1      -2.947  -0.292   2.059  0.00  0.00    +0.006 A 
ATOM     29  C   UNL     1      -4.050   0.415   1.618  0.00  0.00    +0.020 A 
ATOM     30  C   UNL     1      -5.322  -0.079   1.843  0.00  0.00    +0.041 A 
ATOM     31  C   UNL     1      -5.490  -1.280   2.509  0.00  0.00    +0.020 A 
ATOM     32  C   UNL     1      -4.386  -1.989   2.944  0.00  0.00    +0.006 A 
ATOM     33 CL   UNL     1      -6.708   0.808   1.290  0.00  0.00    -0.084 Cl
ENDBRANCH  26  27
ENDBRANCH  24  26
ENDBRANCH  13  22
TORSDOF 4
