REMARK  Name = ZINC35893284
REMARK  3 active torsions:
REMARK  status: ('A' for Active; 'I' for Inactive)
REMARK    1  A    between atoms: C_4  and  C_7
REMARK    2  A    between atoms: C_10  and  C_26
REMARK    3  A    between atoms: N_17  and  C_18
REMARK                            x       y       z     vdW  Elec       q    Type
REMARK                         _______ _______ _______ _____ _____    ______ ____
ROOT
ATOM      1  C   UNL     1       4.624  -0.612   0.874  0.00  0.00    +0.037 C 
ATOM      2  C   UNL     1       4.586  -1.859   1.761  0.00  0.00    +0.024 C 
ATOM      3  C   UNL     1       5.569  -2.901   1.222  0.00  0.00    +0.093 C 
ATOM      4  C   UNL     1       5.152  -3.304  -0.196  0.00  0.00    +0.122 C 
ATOM      5  N   UNL     1       5.046  -2.092  -1.020  0.00  0.00    -0.284 N 
ATOM      6  C   UNL     1       4.197  -0.989  -0.548  0.00  0.00    +0.117 C 
ATOM      7  C   UNL     1       5.714  -1.993  -2.186  0.00  0.00    +0.307 C 
ATOM      8  O   UNL     1       5.696  -0.950  -2.811  0.00  0.00    -0.252 OA
ATOM      9  N   UNL     1       6.401  -3.051  -2.661  0.00  0.00    -0.267 N 
ATOM     10  H   UNL     1       6.367  -3.901  -2.194  0.00  0.00    +0.156 HD
ENDROOT
BRANCH   9  11
ATOM     11  C   UNL     1       7.164  -2.924  -3.830  0.00  0.00    +0.070 A 
ATOM     12  C   UNL     1       6.795  -2.009  -4.805  0.00  0.00    +0.029 A 
ATOM     13  C   UNL     1       7.548  -1.884  -5.956  0.00  0.00    +0.040 A 
ATOM     14  C   UNL     1       8.672  -2.672  -6.138  0.00  0.00    +0.126 A 
ATOM     15  C   UNL     1       9.044  -3.587  -5.168  0.00  0.00    +0.078 A 
ATOM     16  C   UNL     1       8.296  -3.711  -4.011  0.00  0.00    +0.147 A 
ATOM     17  F   UNL     1       8.662  -4.599  -3.061  0.00  0.00    -0.203 F 
ATOM     18  F   UNL     1       9.407  -2.549  -7.265  0.00  0.00    -0.205 F 
ENDBRANCH   9  11
BRANCH   3  19
ATOM     19  C   UNL     1       6.957  -2.315   1.192  0.00  0.00    +0.220 C 
ATOM     20  O   UNL     1       7.431  -1.931   0.144  0.00  0.00    -0.275 OA
ATOM     21  N   UNL     1       7.672  -2.218   2.330  0.00  0.00    -0.297 N 
ATOM     22  C   UNL     1       7.167  -2.780   3.593  0.00  0.00    +0.136 C 
ATOM     23  C   UNL     1       8.267  -3.652   4.209  0.00  0.00    +0.179 C 
ATOM     24  O   UNL     1       9.477  -2.895   4.290  0.00  0.00    -0.377 OA
ATOM     25  C   UNL     1       9.993  -2.479   3.024  0.00  0.00    +0.179 C 
ATOM     26  C   UNL     1       8.984  -1.552   2.346  0.00  0.00    +0.136 C 
ENDBRANCH   3  19
BRANCH   1  30
ATOM     27  C   UNL     1       1.947   2.330   2.432  0.00  0.00    +0.000 A 
ATOM     28  C   UNL     1       3.295   2.615   2.314  0.00  0.00    +0.000 A 
ATOM     29  C   UNL     1       4.161   1.662   1.810  0.00  0.00    +0.004 A 
ATOM     30  C   UNL     1       3.680   0.425   1.424  0.00  0.00    -0.043 A 
ATOM     31  C   UNL     1       2.332   0.140   1.543  0.00  0.00    +0.004 A 
ATOM     32  C   UNL     1       1.466   1.093   2.046  0.00  0.00    +0.000 A 
ENDBRANCH   1  30
TORSDOF 3
