REMARK  Name = ZINC13035577
REMARK  11 active torsions:
REMARK  status: ('A' for Active; 'I' for Inactive)
REMARK    1  A    between atoms: C_4  and  S_26
REMARK    2  A    between atoms: C_5  and  N_7
REMARK    3  A    between atoms: C_8  and  C_10
REMARK    4  A    between atoms: C_10  and  S_11
REMARK    5  A    between atoms: S_11  and  C_12
REMARK    6  A    between atoms: C_15  and  C_21
REMARK    7  A    between atoms: N_16  and  C_17
REMARK    8  A    between atoms: C_17  and  C_18
REMARK    9  A    between atoms: C_18  and  C_19
REMARK   10  A    between atoms: S_26  and  C_27
REMARK   11  A    between atoms: C_27  and  C_28
REMARK                            x       y       z     vdW  Elec       q    Type
REMARK                         _______ _______ _______ _____ _____    ______ ____
ROOT
ATOM      1  N   UNL     1       3.356  11.976   0.023  0.00  0.00    -0.284 N 
ATOM      2  C   UNL     1       3.729  10.700  -0.202  0.00  0.00    +0.228 C 
ATOM      3  O   UNL     1       4.872  10.450  -0.521  0.00  0.00    -0.275 OA
ATOM      4  H   UNL     1       2.428  12.183   0.215  0.00  0.00    +0.155 HD
ENDROOT
BRANCH   1   9
ATOM      5  C   UNL     1       6.301  13.950  -0.961  0.00  0.00    +0.002 A 
ATOM      6  C   UNL     1       6.194  15.033  -0.106  0.00  0.00    +0.001 A 
ATOM      7  C   UNL     1       5.148  15.107   0.794  0.00  0.00    +0.016 A 
ATOM      8  C   UNL     1       4.201  14.094   0.842  0.00  0.00    +0.030 A 
ATOM      9  C   UNL     1       4.309  13.002  -0.020  0.00  0.00    +0.047 A 
ATOM     10  C   UNL     1       5.365  12.934  -0.916  0.00  0.00    +0.024 A 
BRANCH   8  11
ATOM     11  S   UNL     1       2.867  14.185   1.989  0.00  0.00    -0.114 S 
BRANCH  11  12
ATOM     12  C   UNL     1       3.150  15.747   2.868  0.00  0.00    +0.169 C 
BRANCH  12  13
ATOM     13  C   UNL     1       2.064  15.950   3.893  0.00  0.00    +0.221 C 
ATOM     14  O   UNL     1       1.186  15.123   4.019  0.00  0.00    -0.275 OA
ATOM     15  N   UNL     1       2.069  17.051   4.671  0.00  0.00    -0.329 N 
ATOM     16  H   UNL     1       2.772  17.713   4.570  0.00  0.00    +0.145 HD
ATOM     17  H   UNL     1       1.370  17.182   5.330  0.00  0.00    +0.145 HD
ENDBRANCH  12  13
ENDBRANCH  11  12
ENDBRANCH   8  11
ENDBRANCH   1   9
BRANCH   2  18
ATOM     18  C   UNL     1       2.726   9.585  -0.056  0.00  0.00    +0.173 C 
BRANCH  18  19
ATOM     19  S   UNL     1       3.526   8.003  -0.422  0.00  0.00    -0.077 S 
BRANCH  19  20
ATOM     20  C   UNL     1       2.164   6.910  -0.182  0.00  0.00    +0.192 A 
ATOM     21  N   UNL     1       0.945   7.250   0.167  0.00  0.00    -0.122 NA
ATOM     22  N   UNL     1       0.202   6.205   0.253  0.00  0.00    -0.128 NA
ATOM     23  C   UNL     1       0.902   5.130  -0.036  0.00  0.00    +0.172 A 
ATOM     24  N   UNL     1       2.184   5.549  -0.319  0.00  0.00    -0.301 N 
BRANCH  23  25
ATOM     25  C   UNL     1       0.412   3.743  -0.049  0.00  0.00    +0.056 A 
ATOM     26  C   UNL     1      -0.880   3.282  -0.048  0.00  0.00    +0.019 A 
ATOM     27  C   UNL     1      -1.097   1.923  -0.068  0.00  0.00    +0.008 A 
ATOM     28  C   UNL     1      -0.031   1.082  -0.077  0.00  0.00    +0.046 A 
ATOM     29  S   UNL     1       1.345   2.220  -0.071  0.00  0.00    -0.094 S 
ENDBRANCH  23  25
BRANCH  24  30
ATOM     30  C   UNL     1       3.327   4.712  -0.690  0.00  0.00    +0.137 C 
BRANCH  30  31
ATOM     31  C   UNL     1       3.374   4.558  -2.211  0.00  0.00    +0.147 C 
BRANCH  31  32
ATOM     32  C   UNL     1       4.550   3.697  -2.593  0.00  0.00    +0.358 C 
ATOM     33  O   UNL     1       5.277   3.253  -1.736  0.00  0.00    -0.246 OA
ATOM     34  O   UNL     1       4.791   3.424  -3.885  0.00  0.00    -0.246 OA
ENDBRANCH  31  32
ENDBRANCH  30  31
ENDBRANCH  24  30
ENDBRANCH  19  20
ENDBRANCH  18  19
ENDBRANCH   2  18
TORSDOF 11
