REMARK  Name = ZINC09457582
REMARK  14 active torsions:
REMARK  status: ('A' for Active; 'I' for Inactive)
REMARK    1  A    between atoms: C_1  and  C_2
REMARK    2  A    between atoms: C_2  and  N_65
REMARK    3  A    between atoms: C_3  and  C_4
REMARK    4  A    between atoms: C_3  and  N_65
REMARK    5  A    between atoms: C_5  and  C_6
REMARK    6  A    between atoms: C_5  and  N_65
REMARK    7  A    between atoms: C_6  and  C_7
REMARK    8  A    between atoms: C_7  and  N_8
REMARK    9  A    between atoms: C_9  and  C_29
REMARK   10  A    between atoms: C_11  and  C_16
REMARK   11  A    between atoms: C_12  and  O_15
REMARK   12  A    between atoms: C_16  and  C_18
REMARK   13  A    between atoms: C_25  and  C_28
REMARK   14  A    between atoms: C_32  and  C_34
REMARK                            x       y       z     vdW  Elec       q    Type
REMARK                         _______ _______ _______ _____ _____    ______ ____
ROOT
ATOM      1  N   UNL     1       0.159   3.752   0.852  0.00  0.00    -0.281 N 
ATOM      2  C   UNL     1       0.936   3.371  -0.333  0.00  0.00    +0.180 C 
ATOM      3  C   UNL     1       0.709   4.461  -1.355  0.00  0.00    +0.074 C 
ATOM      4  C   UNL     1      -0.121   5.365  -0.783  0.00  0.00    +0.188 C 
ATOM      5  C   UNL     1      -0.458   4.918   0.585  0.00  0.00    +0.282 C 
ATOM      6  O   UNL     1      -1.183   5.516   1.355  0.00  0.00    -0.267 OA
ENDROOT
BRANCH   2   7
ATOM      7  C   UNL     1       0.449   2.050  -0.869  0.00  0.00    +0.130 A 
ATOM      8  C   UNL     1       1.225   1.058  -1.342  0.00  0.00    +0.047 A 
ATOM      9  C   UNL     1       0.360   0.012  -1.736  0.00  0.00    +0.045 A 
ATOM     10  C   UNL     1      -0.894   0.427  -1.480  0.00  0.00    +0.102 A 
ATOM     11  O   UNL     1      -0.834   1.661  -0.955  0.00  0.00    -0.463 OA
ATOM     12  C   UNL     1      -2.153  -0.360  -1.739  0.00  0.00    +0.086 C 
ENDBRANCH   2   7
BRANCH   4  13
ATOM     13  O   UNL     1      -0.571   6.497  -1.371  0.00  0.00    -0.502 OA
ATOM     14  H   UNL     1      -1.169   6.988  -0.737  0.00  0.00    +0.292 HD
ENDBRANCH   4  13
BRANCH   3  15
ATOM     15  C   UNL     1       1.278   4.528  -2.704  0.00  0.00    +0.195 C 
ATOM     16  O   UNL     1       0.548   4.479  -3.676  0.00  0.00    -0.287 OA
BRANCH  15  17
ATOM     17  C   UNL     1       2.738   4.654  -2.884  0.00  0.00    +0.023 A 
ATOM     18  C   UNL     1       3.572   4.833  -1.775  0.00  0.00    +0.015 A 
ATOM     19  C   UNL     1       4.931   4.941  -1.943  0.00  0.00    +0.046 A 
ATOM     20  C   UNL     1       5.493   4.886  -3.221  0.00  0.00    +0.124 A 
ATOM     21  C   UNL     1       4.657   4.720  -4.322  0.00  0.00    -0.002 A 
ATOM     22  C   UNL     1       3.298   4.602  -4.165  0.00  0.00    +0.019 A 
ATOM     23  C   UNL     1       5.541   4.722  -5.554  0.00  0.00    +0.083 C 
ATOM     24  C   UNL     1       6.863   5.302  -4.998  0.00  0.00    +0.175 C 
ATOM     25  O   UNL     1       6.796   4.966  -3.602  0.00  0.00    -0.488 OA
ATOM     26  C   UNL     1       8.069   4.632  -5.659  0.00  0.00    +0.052 C 
ENDBRANCH  15  17
ENDBRANCH   3  15
BRANCH   1  27
ATOM     27  C   UNL     1       0.070   2.998   2.104  0.00  0.00    +0.107 C 
BRANCH  27  28
ATOM     28  C   UNL     1       1.177   3.455   3.055  0.00  0.00    +0.000 C 
BRANCH  28  29
ATOM     29  C   UNL     1       1.085   2.667   4.363  0.00  0.00    -0.077 C 
BRANCH  29  30
ATOM     30  N   UNL     1       2.173   3.105   5.262  0.00  0.00    +0.379 N 
ATOM     31  H   UNL     1       3.065   3.056   4.755  0.00  0.00    -0.082 HD
BRANCH  30  33
ATOM     32  C   UNL     1       0.600   4.622   6.416  0.00  0.00    -0.017 C 
ATOM     33  C   UNL     1       1.942   4.500   5.693  0.00  0.00    -0.082 C 
ENDBRANCH  30  33
BRANCH  30  34
ATOM     34  C   UNL     1       2.243   2.217   6.441  0.00  0.00    -0.082 C 
ATOM     35  C   UNL     1       3.503   2.555   7.241  0.00  0.00    -0.017 C 
ENDBRANCH  30  34
ENDBRANCH  29  30
ENDBRANCH  28  29
ENDBRANCH  27  28
ENDBRANCH   1  27
TORSDOF 10
