REMARK  Name = ZINC01756109
REMARK  6 active torsions:
REMARK  status: ('A' for Active; 'I' for Inactive)
REMARK    1  A    between atoms: C_1  and  N_46
REMARK    2  A    between atoms: C_12  and  S_18
REMARK    3  A    between atoms: C_14  and  S_16
REMARK    4  A    between atoms: S_16  and  C_17
REMARK    5  A    between atoms: S_18  and  C_19
REMARK    6  A    between atoms: C_19  and  C_20
REMARK                            x       y       z     vdW  Elec       q    Type
REMARK                         _______ _______ _______ _____ _____    ______ ____
ROOT
ATOM      1  C   UNL     1      13.635  -6.013  -1.680  0.00  0.00    -0.096 C 
ATOM      2  C   UNL     1      11.364  -5.501  -1.012  0.00  0.00    -0.074 C 
ATOM      3  C   UNL     1      10.301  -4.399  -1.049  0.00  0.00    +0.018 C 
ATOM      4  C   UNL     1       9.900  -4.172  -2.504  0.00  0.00    -0.028 A 
ATOM      5  C   UNL     1      10.699  -4.619  -3.500  0.00  0.00    -0.021 A 
ATOM      6  S   UNL     1       9.868  -4.155  -4.993  0.00  0.00    -0.075 S 
ATOM      7  C   UNL     1       8.451  -3.363  -4.273  0.00  0.00    +0.115 A 
ATOM      8  C   UNL     1       8.673  -3.487  -2.894  0.00  0.00    +0.056 A 
ATOM      9  C   UNL     1       7.623  -2.900  -2.034  0.00  0.00    +0.174 A 
ATOM     10  N   UNL     1       7.455  -2.807  -0.738  0.00  0.00    -0.128 NA
ATOM     11  N   UNL     1       6.356  -2.185  -0.486  0.00  0.00    -0.122 NA
ATOM     12  C   UNL     1       5.754  -1.854  -1.605  0.00  0.00    +0.198 A 
ATOM     13  N   UNL     1       6.541  -2.295  -2.634  0.00  0.00    -0.248 N 
ATOM     14  C   UNL     1       6.444  -2.241  -3.999  0.00  0.00    +0.177 A 
ATOM     15  N   UNL     1       7.372  -2.761  -4.769  0.00  0.00    -0.216 NA
ATOM     16  C   UNL     1      12.000  -5.343  -3.344  0.00  0.00    -0.036 C 
ATOM     17  N   UNL     1      12.457  -5.158  -1.945  0.00  0.00    +0.381 N 
ATOM     18  H   UNL     1      12.720  -4.176  -1.806  0.00  0.00    -0.082 HD
ENDROOT
BRANCH  14  19
ATOM     19  S   UNL     1       5.047  -1.460  -4.737  0.00  0.00    -0.091 S 
ATOM     20  C   UNL     1       5.449  -1.685  -6.487  0.00  0.00    +0.093 C 
ENDBRANCH  14  19
BRANCH  12  21
ATOM     21  S   UNL     1       4.222  -0.995  -1.754  0.00  0.00    -0.081 S 
BRANCH  21  22
ATOM     22  C   UNL     1       3.711  -0.709  -0.037  0.00  0.00    +0.112 C 
BRANCH  22  23
ATOM     23  C   UNL     1       2.397   0.028  -0.021  0.00  0.00    -0.036 A 
ATOM     24  C   UNL     1       1.208  -0.679  -0.014  0.00  0.00    +0.006 A 
ATOM     25  C   UNL     1       0.002  -0.004   0.002  0.00  0.00    +0.022 A 
ATOM     26  C   UNL     1      -0.017   1.379   0.010  0.00  0.00    +0.059 A 
ATOM     27  C   UNL     1       1.173   2.087   0.002  0.00  0.00    +0.060 A 
ATOM     28  C   UNL     1       2.380   1.410  -0.012  0.00  0.00    +0.026 A 
ATOM     29 CL   UNL     1       1.151   3.823   0.011  0.00  0.00    -0.082 Cl
ATOM     30 CL   UNL     1      -1.531   2.227   0.021  0.00  0.00    -0.082 Cl
ENDBRANCH  22  23
ENDBRANCH  21  22
ENDBRANCH  12  21
TORSDOF 4
