REMARK  Name = ZINC39667961
REMARK  11 active torsions:
REMARK  status: ('A' for Active; 'I' for Inactive)
REMARK    1  A    between atoms: C_1  and  C_2
REMARK    2  A    between atoms: C_5  and  C_19
REMARK    3  A    between atoms: C_6  and  C_18
REMARK    4  A    between atoms: N_8  and  C_9
REMARK    5  A    between atoms: C_19  and  C_21
REMARK    6  A    between atoms: C_21  and  S_22
REMARK    7  A    between atoms: S_22  and  C_23
REMARK    8  A    between atoms: C_27  and  C_31
REMARK    9  A    between atoms: C_28  and  C_30
REMARK   10  A    between atoms: C_31  and  C_32
REMARK   11  A    between atoms: C_32  and  C_33
REMARK                            x       y       z     vdW  Elec       q    Type
REMARK                         _______ _______ _______ _____ _____    ______ ____
ROOT
ATOM      1  C   UNL     1      -2.757  -1.749   1.004  0.00  0.00    +0.171 C 
ATOM      2  O   UNL     1      -3.536  -1.598   0.086  0.00  0.00    -0.291 OA
ENDROOT
BRANCH   1   6
ATOM      3  C   UNL     1       0.070   2.013   0.831  0.00  0.00    +0.032 C 
ATOM      4  C   UNL     1       0.184   0.517   0.530  0.00  0.00    +0.094 C 
ATOM      5  C   UNL     1      -1.169  -0.038   0.170  0.00  0.00    +0.004 C 
ATOM      6  C   UNL     1      -1.509  -0.986   1.037  0.00  0.00    +0.014 C 
ATOM      7  C   UNL     1      -0.417  -1.155   2.060  0.00  0.00    +0.104 C 
ATOM      8  N   UNL     1       0.650  -0.198   1.725  0.00  0.00    -0.317 N 
ATOM      9  C   UNL     1       0.129  -2.584   2.006  0.00  0.00    +0.033 C 
BRANCH   8  10
ATOM     10  C   UNL     1       1.859  -0.007   2.404  0.00  0.00    +0.034 A 
ATOM     11  C   UNL     1       2.156  -0.774   3.522  0.00  0.00    +0.027 A 
ATOM     12  C   UNL     1       3.349  -0.587   4.194  0.00  0.00    +0.051 A 
ATOM     13  C   UNL     1       4.253   0.366   3.752  0.00  0.00    +0.166 A 
ATOM     14  C   UNL     1       3.958   1.137   2.631  0.00  0.00    +0.168 A 
ATOM     15  C   UNL     1       2.764   0.945   1.955  0.00  0.00    +0.072 A 
ATOM     16  O   UNL     1       4.997   1.993   2.404  0.00  0.00    -0.453 OA
ATOM     17  C   UNL     1       5.745   2.023   3.634  0.00  0.00    +0.466 C 
ATOM     18  O   UNL     1       5.477   0.740   4.229  0.00  0.00    -0.453 OA
ENDBRANCH   8  10
ENDBRANCH   1   6
BRANCH   1  19
ATOM     19  C   UNL     1      -3.074  -2.723   2.109  0.00  0.00    +0.156 C 
BRANCH  19  20
ATOM     20  S   UNL     1      -4.742  -3.392   1.865  0.00  0.00    -0.078 S 
BRANCH  20  21
ATOM     21  C   UNL     1      -4.961  -4.498   3.219  0.00  0.00    +0.192 A 
ATOM     22  N   UNL     1      -3.982  -4.641   4.101  0.00  0.00    -0.183 NA
ATOM     23  C   UNL     1      -4.116  -5.466   5.132  0.00  0.00    +0.277 A 
ATOM     24  O   UNL     1      -3.113  -5.608   6.033  0.00  0.00    -0.265 OA
ATOM     25  C   UNL     1      -5.303  -6.184   5.276  0.00  0.00    +0.040 A 
ATOM     26  C   UNL     1      -6.299  -6.007   4.335  0.00  0.00    +0.049 A 
ATOM     27  N   UNL     1      -6.101  -5.163   3.333  0.00  0.00    -0.227 NA
ATOM     28  C   UNL     1      -7.598  -6.762   4.449  0.00  0.00    +0.066 C 
BRANCH  25  29
ATOM     29  C   UNL     1      -5.495  -7.131   6.432  0.00  0.00    +0.054 C 
BRANCH  29  30
ATOM     30  C   UNL     1      -6.114  -6.378   7.612  0.00  0.00    +0.130 C 
BRANCH  30  31
ATOM     31  C   UNL     1      -6.306  -7.325   8.768  0.00  0.00    +0.356 C 
ATOM     32  O   UNL     1      -5.978  -8.495   8.659  0.00  0.00    -0.246 OA
ATOM     33  O   UNL     1      -6.788  -6.923   9.812  0.00  0.00    -0.246 OA
ENDBRANCH  30  31
ENDBRANCH  29  30
ENDBRANCH  25  29
ENDBRANCH  20  21
ENDBRANCH  19  20
ENDBRANCH   1  19
TORSDOF 8
