REMARK  Name = ZINC12644662
REMARK  15 active torsions:
REMARK  status: ('A' for Active; 'I' for Inactive)
REMARK    1  A    between atoms: C_1  and  C_2
REMARK    2  A    between atoms: C_2  and  O_3
REMARK    3  A    between atoms: O_3  and  C_4
REMARK    4  A    between atoms: C_4  and  C_6
REMARK    5  A    between atoms: C_8  and  C_35
REMARK    6  A    between atoms: C_10  and  N_11
REMARK    7  A    between atoms: C_12  and  C_14
REMARK    8  A    between atoms: C_14  and  N_15
REMARK    9  A    between atoms: C_16  and  C_29
REMARK   10  A    between atoms: C_18  and  C_24
REMARK   11  A    between atoms: C_19  and  C_23
REMARK   12  A    between atoms: C_24  and  O_26
REMARK   13  A    between atoms: O_26  and  C_27
REMARK   14  A    between atoms: C_27  and  C_28
REMARK   15  A    between atoms: C_35  and  C_37
REMARK                            x       y       z     vdW  Elec       q    Type
REMARK                         _______ _______ _______ _____ _____    ______ ____
ROOT
ATOM      1  N   UNL     1       2.324   5.021  -0.984  0.00  0.00    -0.265 N 
ATOM      2  C   UNL     1       2.293   3.950   0.027  0.00  0.00    +0.147 C 
ATOM      3  C   UNL     1       2.621   4.343   1.453  0.00  0.00    +0.078 C 
ATOM      4  C   UNL     1       2.918   5.638   1.697  0.00  0.00    +0.021 C 
ATOM      5  N   UNL     1       2.921   6.561   0.691  0.00  0.00    -0.273 N 
ATOM      6  C   UNL     1       2.639   6.270  -0.586  0.00  0.00    +0.307 C 
ATOM      7  O   UNL     1       2.667   7.160  -1.412  0.00  0.00    -0.252 OA
ATOM      8  C   UNL     1       3.251   6.070   3.101  0.00  0.00    +0.061 C 
ATOM      9  H   UNL     1       3.140   7.479   0.913  0.00  0.00    +0.156 HD
ENDROOT
BRANCH   2  10
ATOM     10  C   UNL     1       0.914   3.343   0.017  0.00  0.00    -0.022 A 
ATOM     11  C   UNL     1       0.763   1.970  -0.026  0.00  0.00    +0.006 A 
ATOM     12  C   UNL     1      -0.502   1.413  -0.035  0.00  0.00    +0.000 A 
ATOM     13  C   UNL     1      -1.617   2.229  -0.005  0.00  0.00    +0.000 A 
ATOM     14  C   UNL     1      -1.466   3.602   0.044  0.00  0.00    +0.000 A 
ATOM     15  C   UNL     1      -0.201   4.159   0.052  0.00  0.00    +0.006 A 
ENDBRANCH   2  10
BRANCH   3  16
ATOM     16  C   UNL     1       2.616   3.385   2.495  0.00  0.00    +0.339 C 
ATOM     17  O   UNL     1       2.882   3.723   3.633  0.00  0.00    -0.245 OA
BRANCH  16  18
ATOM     18  O   UNL     1       2.316   2.098   2.226  0.00  0.00    -0.462 OA
BRANCH  18  19
ATOM     19  C   UNL     1       2.331   1.185   3.325  0.00  0.00    +0.229 C 
ATOM     20  C   UNL     1       1.969  -0.217   2.830  0.00  0.00    +0.048 C 
ENDBRANCH  18  19
ENDBRANCH  16  18
ENDBRANCH   3  16
BRANCH   1  21
ATOM     21  C   UNL     1       2.022   4.735  -2.388  0.00  0.00    +0.206 C 
BRANCH  21  23
ATOM     22  N   UNL     1       3.278   4.223  -4.457  0.00  0.00    -0.278 N 
ATOM     23  C   UNL     1       3.300   4.423  -3.124  0.00  0.00    +0.235 C 
ATOM     24  O   UNL     1       4.347   4.351  -2.517  0.00  0.00    -0.274 OA
ATOM     25  H   UNL     1       2.441   4.280  -4.942  0.00  0.00    +0.155 HD
BRANCH  22  30
ATOM     26  C   UNL     1       4.629   3.699  -6.498  0.00  0.00    +0.088 A 
ATOM     27  C   UNL     1       5.912   3.431  -6.944  0.00  0.00    +0.036 A 
ATOM     28  C   UNL     1       6.923   3.417  -6.000  0.00  0.00    +0.057 A 
ATOM     29  S   UNL     1       6.052   3.790  -4.489  0.00  0.00    -0.070 S 
ATOM     30  C   UNL     1       4.448   3.936  -5.130  0.00  0.00    +0.086 A 
BRANCH  28  31
ATOM     31  C   UNL     1       8.299   3.172  -6.186  0.00  0.00    +0.167 C 
ATOM     32  O   UNL     1       8.729   2.935  -7.297  0.00  0.00    -0.292 OA
ATOM     33  C   UNL     1       9.237   3.205  -5.006  0.00  0.00    +0.092 C 
ENDBRANCH  28  31
BRANCH  26  34
ATOM     34  C   UNL     1       3.495   3.734  -7.429  0.00  0.00    +0.342 C 
ATOM     35  O   UNL     1       2.377   3.972  -7.017  0.00  0.00    -0.245 OA
BRANCH  34  36
ATOM     36  O   UNL     1       3.694   3.503  -8.743  0.00  0.00    -0.461 OA
BRANCH  36  38
ATOM     37  C   UNL     1       2.947   3.268 -11.049  0.00  0.00    +0.048 C 
ATOM     38  C   UNL     1       2.527   3.554  -9.605  0.00  0.00    +0.229 C 
ENDBRANCH  36  38
ENDBRANCH  34  36
ENDBRANCH  26  34
ENDBRANCH  22  30
ENDBRANCH  21  23
ENDBRANCH   1  21
TORSDOF 11
