REMARK  Name = ZINC24954824
REMARK  10 active torsions:
REMARK  status: ('A' for Active; 'I' for Inactive)
REMARK    1  A    between atoms: C_1  and  C_2
REMARK    2  A    between atoms: C_4  and  C_37
REMARK    3  A    between atoms: C_5  and  C_9
REMARK    4  A    between atoms: C_6  and  C_8
REMARK    5  A    between atoms: C_15  and  C_17
REMARK    6  A    between atoms: C_17  and  N_18
REMARK    7  A    between atoms: N_21  and  C_24
REMARK    8  A    between atoms: C_24  and  C_25
REMARK    9  A    between atoms: C_29  and  C_36
REMARK   10  A    between atoms: C_32  and  C_35
REMARK                            x       y       z     vdW  Elec       q    Type
REMARK                         _______ _______ _______ _____ _____    ______ ____
ROOT
ATOM      1  C   UNL     1      -1.925   5.585  -0.256  0.00  0.00    +0.180 C 
ENDROOT
BRANCH   1   8
ATOM      2  C   UNL     1       0.940   0.251  -0.035  0.00  0.00    +0.081 A 
ATOM      3  C   UNL     1      -0.240  -0.439  -0.023  0.00  0.00    +0.076 A 
ATOM      4  S   UNL     1      -1.413   0.910  -0.091  0.00  0.00    -0.060 S 
ATOM      5  C   UNL     1      -0.220   2.241  -0.118  0.00  0.00    +0.165 A 
ATOM      6  N   UNL     1       0.919   1.575  -0.083  0.00  0.00    -0.225 NA
ATOM      7  N   UNL     1      -0.435   3.613  -0.170  0.00  0.00    -0.264 N 
ATOM      8  C   UNL     1      -1.692   4.097  -0.200  0.00  0.00    +0.233 C 
ATOM      9  O   UNL     1      -2.636   3.336  -0.182  0.00  0.00    -0.274 OA
ATOM     10  H   UNL     1       0.421   4.303  -0.186  0.00  0.00    +0.157 HD
BRANCH   2  15
ATOM     11  C   UNL     1       5.957  -2.571   0.118  0.00  0.00    +0.044 C 
ATOM     12  C   UNL     1       4.645  -1.832   0.078  0.00  0.00    -0.050 A 
ATOM     13  C   UNL     1       4.427  -0.866  -0.887  0.00  0.00    +0.007 A 
ATOM     14  C   UNL     1       3.227  -0.186  -0.929  0.00  0.00    -0.041 A 
ATOM     15  C   UNL     1       2.232  -0.475   0.004  0.00  0.00    +0.007 A 
ATOM     16  C   UNL     1       2.459  -1.447   0.978  0.00  0.00    -0.041 A 
ATOM     17  C   UNL     1       3.662  -2.124   1.007  0.00  0.00    +0.007 A 
ATOM     18  C   UNL     1       1.391  -1.761   1.994  0.00  0.00    +0.044 C 
ATOM     19  C   UNL     1       2.991   0.867  -1.981  0.00  0.00    +0.044 C 
ENDBRANCH   2  15
ENDBRANCH   1   8
BRANCH   1  20
ATOM     20  N   UNL     1      -3.369   5.854  -0.280  0.00  0.00    -0.298 NA
ATOM     21  C   UNL     1      -3.976   5.362  -1.524  0.00  0.00    +0.066 C 
ATOM     22  C   UNL     1      -5.489   5.589  -1.476  0.00  0.00    -0.063 C 
ATOM     23  N   UNL     1      -5.761   7.021  -1.292  0.00  0.00    +0.387 N 
ATOM     24  C   UNL     1      -5.154   7.514  -0.048  0.00  0.00    -0.063 C 
ATOM     25  C   UNL     1      -3.641   7.287  -0.096  0.00  0.00    +0.066 C 
ATOM     26  H   UNL     1      -5.303   7.564  -2.132  0.00  0.00    -0.081 HD
BRANCH  23  27
ATOM     27  C   UNL     1      -7.205   7.290  -1.316  0.00  0.00    +0.019 C 
BRANCH  27  28
ATOM     28  C   UNL     1      -7.438   8.777  -1.379  0.00  0.00    +0.199 C 
ATOM     29  O   UNL     1      -6.499   9.533  -1.515  0.00  0.00    -0.278 OA
ATOM     30  N   UNL     1      -8.689   9.268  -1.284  0.00  0.00    -0.303 N 
ATOM     31  C   UNL     1      -9.837   8.365  -1.125  0.00  0.00    +0.111 C 
ATOM     32  C   UNL     1     -10.639   8.806   0.110  0.00  0.00    +0.004 C 
ATOM     33  C   UNL     1     -11.016  10.283  -0.035  0.00  0.00    +0.009 C 
ATOM     34  C   UNL     1      -9.744  11.131  -0.112  0.00  0.00    +0.004 C 
ATOM     35  C   UNL     1      -8.932  10.716  -1.343  0.00  0.00    +0.111 C 
ATOM     36  C   UNL     1      -8.907  10.911   1.149  0.00  0.00    +0.009 C 
ATOM     37  C   UNL     1     -11.910   7.963   0.219  0.00  0.00    +0.009 C 
ENDBRANCH  27  28
ENDBRANCH  23  27
ENDBRANCH   1  20
TORSDOF 5
