REMARK  Name = ZINC18475165
REMARK  13 active torsions:
REMARK  status: ('A' for Active; 'I' for Inactive)
REMARK    1  A    between atoms: C_1  and  C_2
REMARK    2  A    between atoms: C_2  and  N_3
REMARK    3  A    between atoms: N_3  and  C_4
REMARK    4  A    between atoms: N_3  and  S_6
REMARK    5  A    between atoms: C_4  and  C_5
REMARK    6  A    between atoms: S_6  and  C_9
REMARK    7  A    between atoms: C_12  and  O_18
REMARK    8  A    between atoms: C_13  and  N_15
REMARK    9  A    between atoms: O_18  and  C_19
REMARK   10  A    between atoms: C_19  and  C_20
REMARK   11  A    between atoms: N_22  and  C_23
REMARK   12  A    between atoms: C_23  and  C_25
REMARK   13  A    between atoms: C_23  and  C_26
REMARK                            x       y       z     vdW  Elec       q    Type
REMARK                         _______ _______ _______ _____ _____    ______ ____
ROOT
ATOM      1  O   UNL     1       2.278   1.052  -0.268  0.00  0.00    -0.480 OA
ENDROOT
BRANCH   1   5
ATOM      2  C   UNL     1      -1.370   2.973  -0.412  0.00  0.00    +0.108 A 
ATOM      3  C   UNL     1      -1.318   1.592  -0.363  0.00  0.00    +0.032 A 
ATOM      4  C   UNL     1      -0.098   0.947  -0.309  0.00  0.00    +0.050 A 
ATOM      5  C   UNL     1       1.077   1.685  -0.315  0.00  0.00    +0.151 A 
ATOM      6  C   UNL     1       1.022   3.070  -0.370  0.00  0.00    +0.169 A 
ATOM      7  C   UNL     1      -0.201   3.711  -0.418  0.00  0.00    +0.065 A 
BRANCH   2   8
ATOM      8  S   UNL     1      -2.928   3.794  -0.474  0.00  0.00    +0.061 S 
ATOM      9  O   UNL     1      -3.878   2.903   0.093  0.00  0.00    -0.153 OA
ATOM     10  O   UNL     1      -2.716   5.105   0.031  0.00  0.00    -0.153 OA
BRANCH   8  11
ATOM     11  N   UNL     1      -3.330   3.961  -2.072  0.00  0.00    -0.177 NA
BRANCH  11  13
ATOM     12  C   UNL     1      -5.587   3.271  -2.712  0.00  0.00    +0.022 C 
ATOM     13  C   UNL     1      -4.100   2.913  -2.747  0.00  0.00    +0.106 C 
ENDBRANCH  11  13
BRANCH  11  14
ATOM     14  C   UNL     1      -2.916   5.157  -2.810  0.00  0.00    +0.106 C 
ATOM     15  C   UNL     1      -1.606   4.873  -3.547  0.00  0.00    +0.022 C 
ENDBRANCH  11  14
ENDBRANCH   8  11
ENDBRANCH   2   8
BRANCH   6  16
ATOM     16  N   UNL     1       2.274   3.860  -0.376  0.00  0.00    +0.060 N 
ATOM     17  O   UNL     1       2.226   5.076  -0.424  0.00  0.00    -0.126 OA
ATOM     18  O   UNL     1       3.352   3.295  -0.333  0.00  0.00    -0.126 OA
ENDBRANCH   6  16
ENDBRANCH   1   5
BRANCH   1  19
ATOM     19  C   UNL     1       2.258  -0.376  -0.213  0.00  0.00    +0.324 C 
BRANCH  19  20
ATOM     20  C   UNL     1       3.671  -0.897  -0.166  0.00  0.00    +0.251 C 
ATOM     21  O   UNL     1       4.604  -0.122  -0.178  0.00  0.00    -0.272 OA
ATOM     22  N   UNL     1       3.898  -2.224  -0.111  0.00  0.00    -0.306 N 
ATOM     23  H   UNL     1       3.152  -2.844  -0.101  0.00  0.00    +0.149 HD
BRANCH  22  24
ATOM     24  C   UNL     1       5.272  -2.731  -0.066  0.00  0.00    +0.101 C 
ATOM     25  C   UNL     1       5.802  -2.898  -1.491  0.00  0.00    +0.033 C 
BRANCH  24  26
ATOM     26  C   UNL     1       5.293  -4.064   0.637  0.00  0.00    -0.020 A 
ATOM     27  C   UNL     1       4.189  -4.860   0.626  0.00  0.00    +0.006 A 
ATOM     28  C   UNL     1       4.190  -6.096   1.270  0.00  0.00    +0.001 A 
ATOM     29  C   UNL     1       5.294  -6.543   1.928  0.00  0.00    +0.008 A 
ATOM     30  C   UNL     1       6.453  -5.749   1.961  0.00  0.00    -0.018 A 
ATOM     31  C   UNL     1       6.454  -4.494   1.302  0.00  0.00    -0.013 A 
ATOM     32  C   UNL     1       7.615  -3.702   1.330  0.00  0.00    +0.009 A 
ATOM     33  C   UNL     1       8.720  -4.151   1.984  0.00  0.00    +0.001 A 
ATOM     34  C   UNL     1       8.721  -5.387   2.628  0.00  0.00    +0.001 A 
ATOM     35  C   UNL     1       7.612  -6.176   2.631  0.00  0.00    +0.008 A 
ENDBRANCH  24  26
ENDBRANCH  22  24
ENDBRANCH  19  20
ENDBRANCH   1  19
TORSDOF 10
