REMARK  Name = ZINC28068267
REMARK  9 active torsions:
REMARK  status: ('A' for Active; 'I' for Inactive)
REMARK    1  A    between atoms: C_1  and  C_2
REMARK    2  A    between atoms: C_5  and  C_8
REMARK    3  A    between atoms: C_11  and  C_33
REMARK    4  A    between atoms: C_18  and  C_21
REMARK    5  A    between atoms: C_21  and  C_22
REMARK    6  A    between atoms: N_24  and  C_25
REMARK    7  A    between atoms: C_29  and  C_32
REMARK    8  A    between atoms: C_30  and  C_31
REMARK    9  A    between atoms: C_36  and  C_39
REMARK                            x       y       z     vdW  Elec       q    Type
REMARK                         _______ _______ _______ _____ _____    ______ ____
ROOT
ATOM      1  C   UNL     1      -1.314   2.075   0.042  0.00  0.00    +0.136 C 
ATOM      2  C   UNL     1      -1.622   2.651  -1.354  0.00  0.00    +0.087 C 
ATOM      3  C   UNL     1      -1.691   4.144  -1.126  0.00  0.00    +0.069 C 
ATOM      4  N   UNL     1      -1.475   4.399   0.118  0.00  0.00    -0.182 NA
ATOM      5  N   UNL     1      -1.242   3.269   0.899  0.00  0.00    -0.195 N 
ATOM      6  C   UNL     1      -0.987   3.270   2.241  0.00  0.00    +0.170 C 
ATOM      7  N   UNL     1      -0.763   2.229   3.033  0.00  0.00    -0.157 NA
ATOM      8  C   UNL     1      -0.522   2.317   4.312  0.00  0.00    +0.252 C 
ATOM      9  O   UNL     1      -0.318   1.338   5.003  0.00  0.00    -0.272 OA
ATOM     10  C   UNL     1      -0.522   3.730   4.881  0.00  0.00    +0.150 C 
ATOM     11  S   UNL     1      -0.884   4.672   3.345  0.00  0.00    -0.078 S 
ENDROOT
BRANCH   1  16
ATOM     12  C   UNL     1       3.744  -0.720   0.001  0.00  0.00    +0.044 C 
ATOM     13  C   UNL     1       2.425   0.009   0.014  0.00  0.00    -0.050 A 
ATOM     14  C   UNL     1       1.241  -0.704   0.026  0.00  0.00    +0.004 A 
ATOM     15  C   UNL     1       0.031  -0.036   0.037  0.00  0.00    +0.006 A 
ATOM     16  C   UNL     1       0.005   1.346   0.036  0.00  0.00    -0.025 A 
ATOM     17  C   UNL     1       1.189   2.060   0.024  0.00  0.00    +0.006 A 
ATOM     18  C   UNL     1       2.399   1.391   0.012  0.00  0.00    +0.004 A 
ENDBRANCH   1  16
BRANCH   3  19
ATOM     19  C   UNL     1      -1.964   5.152  -2.167  0.00  0.00    -0.002 A 
ATOM     20  C   UNL     1      -2.179   4.755  -3.489  0.00  0.00    +0.010 A 
ATOM     21  C   UNL     1      -2.439   5.704  -4.456  0.00  0.00    +0.004 A 
ATOM     22  C   UNL     1      -2.477   7.046  -4.122  0.00  0.00    -0.050 A 
ATOM     23  C   UNL     1      -2.259   7.446  -2.815  0.00  0.00    +0.004 A 
ATOM     24  C   UNL     1      -2.003   6.509  -1.836  0.00  0.00    +0.010 A 
ATOM     25  C   UNL     1      -2.756   8.076  -5.185  0.00  0.00    +0.044 C 
ENDBRANCH   3  19
BRANCH  10  26
ATOM     26  C   UNL     1      -1.627   3.914   5.923  0.00  0.00    +0.120 C 
BRANCH  26  27
ATOM     27  C   UNL     1      -1.643   5.346   6.391  0.00  0.00    +0.219 C 
ATOM     28  O   UNL     1      -0.848   6.141   5.937  0.00  0.00    -0.275 OA
ATOM     29  N   UNL     1      -2.540   5.743   7.316  0.00  0.00    -0.285 N 
ATOM     30  H   UNL     1      -3.319   5.047   7.661  0.00  0.00    +0.155 HD
BRANCH  29  31
ATOM     31  C   UNL     1      -2.481   7.040   7.836  0.00  0.00    +0.037 A 
ATOM     32  C   UNL     1      -1.280   7.738   7.832  0.00  0.00    +0.023 A 
ATOM     33  C   UNL     1      -1.225   9.018   8.347  0.00  0.00    +0.002 A 
ATOM     34  C   UNL     1      -2.365   9.606   8.865  0.00  0.00    +0.004 A 
ATOM     35  C   UNL     1      -3.562   8.915   8.870  0.00  0.00    -0.046 A 
ATOM     36  C   UNL     1      -3.625   7.636   8.352  0.00  0.00    -0.026 A 
ATOM     37  C   UNL     1      -4.931   6.885   8.352  0.00  0.00    +0.046 C 
ATOM     38  C   UNL     1      -4.801   9.559   9.435  0.00  0.00    +0.044 C 
ENDBRANCH  29  31
ENDBRANCH  26  27
ENDBRANCH  10  26
TORSDOF 5
