REMARK  Name = ZINC02940070
REMARK  7 active torsions:
REMARK  status: ('A' for Active; 'I' for Inactive)
REMARK    1  A    between atoms: N_7  and  C_11
REMARK    2  A    between atoms: C_11  and  C_12
REMARK    3  A    between atoms: C_12  and  C_13
REMARK    4  A    between atoms: N_15  and  C_16
REMARK    5  A    between atoms: C_18  and  N_31
REMARK    6  A    between atoms: C_20  and  O_22
REMARK    7  A    between atoms: O_22  and  C_23
REMARK                            x       y       z     vdW  Elec       q    Type
REMARK                         _______ _______ _______ _____ _____    ______ ____
ROOT
ATOM      1  C   UNL     1       7.621   0.576  -2.743  0.00  0.00    +0.039 A 
ATOM      2  C   UNL     1       8.373   0.555  -1.575  0.00  0.00    +0.056 A 
ATOM      3  C   UNL     1       9.751   0.619  -1.638  0.00  0.00    +0.131 A 
ATOM      4  C   UNL     1      10.386   0.704  -2.862  0.00  0.00    +0.079 A 
ATOM      5  C   UNL     1       9.641   0.725  -4.033  0.00  0.00    +0.132 A 
ATOM      6  C   UNL     1       8.257   0.656  -3.974  0.00  0.00    +0.069 A 
ENDROOT
BRANCH   1   9
ATOM      7  C   UNL     1       5.568   1.107  -1.665  0.00  0.00    +0.219 C 
ATOM      8  O   UNL     1       6.190   1.633  -0.766  0.00  0.00    -0.275 OA
ATOM      9  N   UNL     1       6.225   0.510  -2.679  0.00  0.00    -0.285 N 
ATOM     10  H   UNL     1       5.663  -0.028  -3.456  0.00  0.00    +0.155 HD
BRANCH   7  11
ATOM     11  C   UNL     1       4.061   1.122  -1.648  0.00  0.00    +0.118 C 
BRANCH  11  12
ATOM     12  C   UNL     1       3.572   1.856  -0.398  0.00  0.00    +0.135 C 
BRANCH  12  19
ATOM     13  C   UNL     1       0.488   4.801  -2.074  0.00  0.00    +0.002 A 
ATOM     14  C   UNL     1      -0.817   4.413  -1.825  0.00  0.00    +0.004 A 
ATOM     15  C   UNL     1      -1.078   3.248  -1.131  0.00  0.00    +0.048 A 
ATOM     16  C   UNL     1      -0.029   2.456  -0.690  0.00  0.00    +0.154 A 
ATOM     17  C   UNL     1       1.286   2.848  -0.941  0.00  0.00    +0.088 A 
ATOM     18  C   UNL     1       1.540   4.022  -1.634  0.00  0.00    +0.029 A 
ATOM     19  N   UNL     1       2.108   1.871  -0.381  0.00  0.00    -0.302 N 
ATOM     20  C   UNL     1       1.308   0.940   0.177  0.00  0.00    +0.249 A 
ATOM     21  S   UNL     1       1.846  -0.465   0.994  0.00  0.00    +0.009 S 
ATOM     22  O   UNL     1       0.023   1.288  -0.005  0.00  0.00    -0.431 OA
ENDBRANCH  12  19
ENDBRANCH  11  12
ENDBRANCH   7  11
ENDBRANCH   1   9
BRANCH   3  23
ATOM     23  N   UNL     1      10.549   0.598  -0.392  0.00  0.00    +0.057 N 
ATOM     24  O   UNL     1       9.991   0.523   0.688  0.00  0.00    -0.126 OA
ATOM     25  O   UNL     1      11.765   0.654  -0.446  0.00  0.00    -0.126 OA
ENDBRANCH   3  23
BRANCH   5  26
ATOM     26  O   UNL     1      10.266   0.809  -5.236  0.00  0.00    -0.453 OA
BRANCH  26  27
ATOM     27  C   UNL     1      10.242   2.002  -5.887  0.00  0.00    +0.164 A 
ATOM     28  C   UNL     1       9.510   3.060  -5.370  0.00  0.00    +0.052 A 
ATOM     29  C   UNL     1       9.486   4.273  -6.032  0.00  0.00    +0.042 A 
ATOM     30  C   UNL     1      10.193   4.433  -7.211  0.00  0.00    +0.126 A 
ATOM     31  C   UNL     1      10.926   3.379  -7.730  0.00  0.00    +0.080 A 
ATOM     32  C   UNL     1      10.956   2.166  -7.067  0.00  0.00    +0.168 A 
ATOM     33  F   UNL     1      11.675   1.138  -7.570  0.00  0.00    -0.202 F 
ATOM     34  F   UNL     1      10.168   5.620  -7.857  0.00  0.00    -0.205 F 
ENDBRANCH  26  27
ENDBRANCH   5  26
TORSDOF 7
