REMARK  Name = ZINC60167043
REMARK  6 active torsions:
REMARK  status: ('A' for Active; 'I' for Inactive)
REMARK    1  A    between atoms: C_4  and  C_7
REMARK    2  A    between atoms: C_7  and  N_8
REMARK    3  A    between atoms: C_13  and  C_15
REMARK    4  A    between atoms: C_15  and  N_16
REMARK    5  A    between atoms: C_17  and  C_19
REMARK    6  A    between atoms: C_22  and  C_27
REMARK                            x       y       z     vdW  Elec       q    Type
REMARK                         _______ _______ _______ _____ _____    ______ ____
ROOT
ATOM      1  N   UNL     1       3.660  -3.675   1.168  0.00  0.00    -0.313 N 
ATOM      2  C   UNL     1       3.162  -4.853   0.742  0.00  0.00    +0.249 C 
ATOM      3  O   UNL     1       3.711  -5.454  -0.163  0.00  0.00    -0.270 OA
ATOM      4  H   UNL     1       3.183  -3.161   1.838  0.00  0.00    +0.149 HD
ENDROOT
BRANCH   2   5
ATOM      5  C   UNL     1       1.957  -5.410   1.368  0.00  0.00    +0.101 A 
ATOM      6  C   UNL     1       1.504  -6.687   1.017  0.00  0.00    +0.020 A 
ATOM      7  C   UNL     1       0.364  -7.189   1.623  0.00  0.00    +0.030 A 
ATOM      8  C   UNL     1      -0.311  -6.425   2.566  0.00  0.00    +0.085 A 
ATOM      9  N   UNL     1       0.136  -5.177   2.905  0.00  0.00    -0.319 N 
ATOM     10  H   UNL     1      -0.348  -4.658   3.565  0.00  0.00    +0.169 HD
ATOM     11  C   UNL     1       1.244  -4.663   2.337  0.00  0.00    +0.261 A 
ATOM     12  O   UNL     1       1.631  -3.552   2.655  0.00  0.00    -0.267 OA
BRANCH   8  13
ATOM     13  C   UNL     1      -1.516  -6.961   3.203  0.00  0.00    +0.151 A 
ATOM     14  C   UNL     1      -2.282  -6.322   4.139  0.00  0.00    +0.051 A 
ATOM     15  C   UNL     1      -3.328  -7.198   4.470  0.00  0.00    +0.042 A 
ATOM     16  C   UNL     1      -3.158  -8.318   3.733  0.00  0.00    +0.196 A 
ATOM     17  O   UNL     1      -2.068  -8.168   2.966  0.00  0.00    -0.461 OA
ENDBRANCH   8  13
ENDBRANCH   2   5
BRANCH   1  18
ATOM     18  C   UNL     1       4.921  -3.172   0.620  0.00  0.00    +0.089 C 
BRANCH  18  24
ATOM     19  N   UNL     1       4.216  -0.925   1.287  0.00  0.00    +0.385 N 
ATOM     20  C   UNL     1       4.618   0.336   1.922  0.00  0.00    -0.078 C 
ATOM     21  C   UNL     1       4.902   0.097   3.406  0.00  0.00    -0.019 C 
ATOM     22  C   UNL     1       6.031  -0.929   3.545  0.00  0.00    -0.003 C 
ATOM     23  C   UNL     1       5.632  -2.215   2.815  0.00  0.00    -0.014 C 
ATOM     24  C   UNL     1       5.321  -1.889   1.353  0.00  0.00    -0.051 C 
ATOM     25  H   UNL     1       3.413  -1.301   1.769  0.00  0.00    -0.081 HD
BRANCH  19  26
ATOM     26  C   UNL     1       3.869  -0.675  -0.118  0.00  0.00    -0.043 C 
BRANCH  26  30
ATOM     27  C   UNL     1       0.412   1.827  -0.311  0.00  0.00    +0.000 A 
ATOM     28  C   UNL     1       1.674   2.392  -0.280  0.00  0.00    +0.000 A 
ATOM     29  C   UNL     1       2.792   1.582  -0.217  0.00  0.00    +0.002 A 
ATOM     30  C   UNL     1       2.650   0.207  -0.185  0.00  0.00    -0.064 A 
ATOM     31  C   UNL     1       1.388  -0.357  -0.216  0.00  0.00    +0.002 A 
ATOM     32  C   UNL     1       0.270   0.452  -0.280  0.00  0.00    +0.000 A 
ENDBRANCH  26  30
ENDBRANCH  19  26
ENDBRANCH  18  24
ENDBRANCH   1  18
TORSDOF 6
