REMARK  Name = ZINC39726534
REMARK  3 active torsions:
REMARK  status: ('A' for Active; 'I' for Inactive)
REMARK    1  A    between atoms: C_3  and  C_6
REMARK    2  A    between atoms: N_15  and  C_16
REMARK    3  A    between atoms: C_16  and  C_17
REMARK                            x       y       z     vdW  Elec       q    Type
REMARK                         _______ _______ _______ _____ _____    ______ ____
ROOT
ATOM      1  C   UNL     1       4.020   1.051  -2.264  0.00  0.00    +0.020 C 
ENDROOT
BRANCH   1   2
ATOM      2  C   UNL     1       4.851   0.217  -3.205  0.00  0.00    +0.201 C 
ATOM      3  O   UNL     1       5.793  -0.418  -2.782  0.00  0.00    -0.278 OA
ATOM      4  N   UNL     1       4.547   0.178  -4.518  0.00  0.00    -0.286 N 
ATOM      5  C   UNL     1       4.321  -0.979  -5.109  0.00  0.00    +0.050 C 
ATOM      6  C   UNL     1       4.265  -2.219  -4.307  0.00  0.00    +0.054 C 
ATOM      7  C   UNL     1       4.032  -3.405  -4.924  0.00  0.00    +0.097 C 
ATOM      8  N   UNL     1       3.919  -4.698  -4.504  0.00  0.00    -0.190 NA
ATOM      9  C   UNL     1       3.685  -5.450  -5.555  0.00  0.00    +0.369 C 
ATOM     10  O   UNL     1       3.518  -6.793  -5.509  0.00  0.00    -0.243 OA
ATOM     11  N   UNL     1       3.632  -4.720  -6.682  0.00  0.00    -0.190 NA
ATOM     12  C   UNL     1       3.835  -3.450  -6.387  0.00  0.00    +0.096 C 
ATOM     13  C   UNL     1       3.892  -2.215  -7.174  0.00  0.00    +0.047 C 
ATOM     14  C   UNL     1       4.118  -1.034  -6.563  0.00  0.00    +0.041 C 
ATOM     15 BR   UNL     1       4.182   0.556  -7.584  0.00  0.00    -0.048 Br
ATOM     16  H   UNL     1       4.494   1.002  -5.029  0.00  0.00    +0.155 HD
ENDBRANCH   1   2
BRANCH   1  25
ATOM     17  C   UNL     1       3.670   1.642   0.029  0.00  0.00    +0.002 C 
ATOM     18  C   UNL     1       4.283   1.595   1.426  0.00  0.00    -0.046 A 
ATOM     19  C   UNL     1       3.567   1.817   2.599  0.00  0.00    +0.010 A 
ATOM     20  C   UNL     1       4.193   1.752   3.797  0.00  0.00    +0.045 A 
ATOM     21  S   UNL     1       5.870   1.365   3.316  0.00  0.00    -0.101 S 
ATOM     22  C   UNL     1       5.611   1.321   1.566  0.00  0.00    -0.010 A 
ATOM     23  C   UNL     1       6.582   1.054   0.463  0.00  0.00    +0.024 C 
ATOM     24  C   UNL     1       5.914   1.476  -0.856  0.00  0.00    -0.072 C 
ATOM     25  N   UNL     1       4.552   0.926  -0.900  0.00  0.00    +0.393 N 
ATOM     26  H   UNL     1       4.582  -0.050  -0.644  0.00  0.00    -0.080 HD
BRANCH  17  29
ATOM     27  C   UNL     1      -0.031   0.744   0.110  0.00  0.00    +0.008 A 
ATOM     28  C   UNL     1       1.088   1.556   0.101  0.00  0.00    +0.010 A 
ATOM     29  C   UNL     1       2.315   0.983   0.050  0.00  0.00    -0.019 A 
ATOM     30  S   UNL     1       1.910  -0.756   0.012  0.00  0.00    -0.103 S 
ATOM     31  C   UNL     1       0.132  -0.601   0.067  0.00  0.00    +0.045 A 
ENDBRANCH  17  29
ENDBRANCH   1  25
TORSDOF 3
