REMARK  Name = ZINC02047816
REMARK  6 active torsions:
REMARK  status: ('A' for Active; 'I' for Inactive)
REMARK    1  A    between atoms: C_7  and  O_12
REMARK    2  A    between atoms: O_12  and  C_13
REMARK    3  A    between atoms: C_13  and  C_14
REMARK    4  A    between atoms: C_18  and  C_26
REMARK    5  A    between atoms: C_19  and  N_21
REMARK    6  A    between atoms: C_22  and  C_24
REMARK                            x       y       z     vdW  Elec       q    Type
REMARK                         _______ _______ _______ _____ _____    ______ ____
ROOT
ATOM      1  C   UNL     1      -6.072   3.821   0.078  0.00  0.00    +0.192 C 
ATOM      2  C   UNL     1      -7.185   4.819   0.009  0.00  0.00    +0.027 A 
ATOM      3  C   UNL     1      -8.294   4.832   0.785  0.00  0.00    -0.016 A 
ATOM      4  C   UNL     1      -9.224   5.910   0.519  0.00  0.00    +0.095 A 
ATOM      5  C   UNL     1      -8.891   6.809  -0.489  0.00  0.00    +0.087 A 
ATOM      6  S   UNL     1      -7.366   6.214  -1.061  0.00  0.00    -0.075 S 
ATOM      7  C   UNL     1      -8.488   3.755   1.847  0.00  0.00    +0.065 C 
ATOM      8  C   UNL     1      -7.544   2.593   1.521  0.00  0.00    +0.165 C 
ATOM      9  O   UNL     1      -6.218   3.082   1.302  0.00  0.00    -0.368 OA
ENDROOT
BRANCH   5  10
ATOM     10  N   UNL     1      -9.603   7.910  -0.928  0.00  0.00    -0.270 N 
ATOM     11  C   UNL     1      -9.117   8.673  -1.927  0.00  0.00    +0.330 C 
ATOM     12  O   UNL     1      -8.053   8.393  -2.442  0.00  0.00    -0.263 OA
ATOM     13  H   UNL     1     -10.453   8.134  -0.517  0.00  0.00    +0.156 HD
BRANCH  11  14
ATOM     14  C   UNL     1      -9.885   9.861  -2.401  0.00  0.00    +0.441 C 
ATOM     15  O   UNL     1     -10.948  10.141  -1.888  0.00  0.00    -0.235 OA
ATOM     16  O   UNL     1      -9.399  10.623  -3.399  0.00  0.00    -0.235 OA
ENDBRANCH  11  14
ENDBRANCH   5  10
BRANCH   4  17
ATOM     17  C   UNL     1     -10.467   6.050   1.283  0.00  0.00    +0.389 C 
ATOM     18  O   UNL     1     -10.483   6.711   2.303  0.00  0.00    -0.240 OA
ATOM     19  O   UNL     1     -11.593   5.443   0.854  0.00  0.00    -0.240 OA
ENDBRANCH   4  17
BRANCH   1  20
ATOM     20  C   UNL     1      -4.724   4.546   0.069  0.00  0.00    +0.267 C 
BRANCH  20  21
ATOM     21  O   UNL     1      -3.667   3.585   0.055  0.00  0.00    -0.472 OA
BRANCH  21  28
ATOM     22  C   UNL     1      -0.013   1.076   0.008  0.00  0.00    +0.001 A 
ATOM     23  C   UNL     1       1.182   1.774   0.000  0.00  0.00    +0.002 A 
ATOM     24  C   UNL     1       1.163   3.161   0.007  0.00  0.00    +0.030 A 
ATOM     25  C   UNL     1      -0.032   3.819   0.022  0.00  0.00    +0.125 A 
ATOM     26  C   UNL     1      -1.258   3.141   0.030  0.00  0.00    +0.065 A 
ATOM     27  C   UNL     1      -1.220   1.737   0.017  0.00  0.00    +0.015 A 
ATOM     28  C   UNL     1      -2.402   4.064   0.045  0.00  0.00    +0.243 C 
ATOM     29  N   UNL     1      -2.187   5.338   0.049  0.00  0.00    -0.091 NA
ATOM     30  S   UNL     1      -0.523   5.522   0.035  0.00  0.00    +0.103 S 
ATOM     31  O   UNL     1      -0.138   6.075   1.285  0.00  0.00    -0.146 OA
ATOM     32  O   UNL     1      -0.161   6.087  -1.218  0.00  0.00    -0.146 OA
ENDBRANCH  21  28
ENDBRANCH  20  21
ENDBRANCH   1  20
TORSDOF 6
