REMARK  Name = ZINC09374080
REMARK  11 active torsions:
REMARK  status: ('A' for Active; 'I' for Inactive)
REMARK    1  A    between atoms: C_1  and  C_2
REMARK    2  A    between atoms: C_2  and  C_3
REMARK    3  A    between atoms: C_3  and  N_4
REMARK    4  A    between atoms: C_15  and  C_16
REMARK    5  A    between atoms: C_15  and  O_22
REMARK    6  A    between atoms: C_19  and  C_21
REMARK    7  A    between atoms: N_27  and  C_28
REMARK    8  A    between atoms: C_28  and  C_29
REMARK    9  A    between atoms: C_29  and  N_59
REMARK   10  A    between atoms: C_30  and  N_59
REMARK   11  A    between atoms: C_31  and  N_59
REMARK                            x       y       z     vdW  Elec       q    Type
REMARK                         _______ _______ _______ _____ _____    ______ ____
ROOT
ATOM      1  N   UNL     1      -6.950   3.127   4.685  0.00  0.00    -0.269 N 
ATOM      2  C   UNL     1      -6.632   4.442   4.340  0.00  0.00    +0.042 A 
ATOM      3  C   UNL     1      -6.767   5.629   5.057  0.00  0.00    +0.024 A 
ATOM      4  C   UNL     1      -6.374   6.826   4.496  0.00  0.00    +0.002 A 
ATOM      5  C   UNL     1      -5.843   6.858   3.219  0.00  0.00    +0.000 A 
ATOM      6  C   UNL     1      -5.706   5.684   2.501  0.00  0.00    +0.008 A 
ATOM      7  C   UNL     1      -6.097   4.487   3.058  0.00  0.00    +0.011 A 
ATOM      8  C   UNL     1      -6.083   3.065   2.562  0.00  0.00    +0.174 C 
ATOM      9  C   UNL     1      -6.660   2.259   3.699  0.00  0.00    +0.253 C 
ATOM     10  O   UNL     1      -6.830   1.058   3.720  0.00  0.00    -0.272 OA
ATOM     11  C   UNL     1      -4.684   2.615   2.236  0.00  0.00    +0.086 C 
ATOM     12  C   UNL     1      -3.594   2.588   3.094  0.00  0.00    +0.169 C 
ATOM     13  C   UNL     1      -4.707   2.235   0.889  0.00  0.00    +0.250 C 
ATOM     14  O   UNL     1      -3.759   1.815   0.249  0.00  0.00    -0.282 OA
ATOM     15  C   UNL     1      -6.089   2.430   0.374  0.00  0.00    +0.288 C 
ATOM     16  O   UNL     1      -6.449   2.191  -0.761  0.00  0.00    -0.266 OA
ATOM     17  N   UNL     1      -6.880   2.915   1.349  0.00  0.00    -0.275 N 
ENDROOT
BRANCH  12  18
ATOM     18  C   UNL     1      -2.312   2.243   2.600  0.00  0.00    +0.170 A 
ATOM     19  C   UNL     1      -1.439   1.335   3.165  0.00  0.00    +0.053 A 
ATOM     20  C   UNL     1      -0.302   1.312   2.346  0.00  0.00    +0.045 A 
ATOM     21  C   UNL     1      -0.518   2.187   1.337  0.00  0.00    +0.103 A 
ATOM     22  O   UNL     1      -1.724   2.748   1.495  0.00  0.00    -0.457 OA
ATOM     23  C   UNL     1       0.446   2.486   0.217  0.00  0.00    +0.086 C 
ENDBRANCH  12  18
BRANCH  12  24
ATOM     24  O   UNL     1      -3.755   2.892   4.402  0.00  0.00    -0.503 OA
ATOM     25  H   UNL     1      -2.874   2.823   4.870  0.00  0.00    +0.292 HD
ENDBRANCH  12  24
BRANCH   1  26
ATOM     26  C   UNL     1      -7.533   2.737   5.971  0.00  0.00    +0.113 C 
BRANCH  26  28
ATOM     27  C   UNL     1      -7.022   2.018   8.309  0.00  0.00    +0.005 C 
ATOM     28  C   UNL     1      -6.413   2.425   6.965  0.00  0.00    +0.016 C 
ENDBRANCH  26  28
ENDBRANCH   1  26
BRANCH  17  29
ATOM     29  C   UNL     1      -8.303   3.238   1.214  0.00  0.00    +0.091 C 
BRANCH  29  30
ATOM     30  C   UNL     1      -8.455   4.696   0.775  0.00  0.00    -0.060 C 
BRANCH  30  33
ATOM     31  C   UNL     1     -10.077   6.465   0.453  0.00  0.00    -0.097 C 
ATOM     32  C   UNL     1     -10.492   4.260  -0.458  0.00  0.00    -0.097 C 
ATOM     33  N   UNL     1      -9.894   5.013   0.664  0.00  0.00    +0.377 N 
ATOM     34  H   UNL     1     -10.364   4.741   1.536  0.00  0.00    -0.083 HD
ENDBRANCH  30  33
ENDBRANCH  29  30
ENDBRANCH  17  29
TORSDOF 7
