REMARK  Name = ZINC63165303
REMARK  8 active torsions:
REMARK  status: ('A' for Active; 'I' for Inactive)
REMARK    1  A    between atoms: C_1  and  C_2
REMARK    2  A    between atoms: C_2  and  N_3
REMARK    3  A    between atoms: C_4  and  C_21
REMARK    4  A    between atoms: C_8  and  S_10
REMARK    5  A    between atoms: S_10  and  C_11
REMARK    6  A    between atoms: C_11  and  C_12
REMARK    7  A    between atoms: C_24  and  O_27
REMARK    8  A    between atoms: O_27  and  C_28
REMARK                            x       y       z     vdW  Elec       q    Type
REMARK                         _______ _______ _______ _____ _____    ______ ____
ROOT
ATOM      1  N   UNL     1      -1.375  -0.513   0.013  0.00  0.00    -0.258 NA
ATOM      2  C   UNL     1      -1.405  -1.978  -0.238  0.00  0.00    +0.171 C 
ATOM      3  N   UNL     1      -2.700  -2.389   0.367  0.00  0.00    -0.233 NA
ATOM      4  N   UNL     1      -2.821  -1.562   1.571  0.00  0.00    -0.229 NA
ATOM      5  C   UNL     1      -1.985  -0.364   1.354  0.00  0.00    +0.200 C 
ATOM      6  H   UNL     1      -2.694  -3.370   0.601  0.00  0.00    +0.143 HD
ATOM      7  H   UNL     1      -2.520  -2.070   2.389  0.00  0.00    +0.143 HD
ENDROOT
BRANCH   2   8
ATOM      8  C   UNL     1      -1.387  -2.268  -1.716  0.00  0.00    -0.015 A 
ATOM      9  C   UNL     1      -0.418  -3.101  -2.244  0.00  0.00    +0.010 A 
ATOM     10  C   UNL     1      -0.399  -3.368  -3.600  0.00  0.00    +0.046 A 
ATOM     11  C   UNL     1      -1.352  -2.799  -4.431  0.00  0.00    +0.120 A 
ATOM     12  C   UNL     1      -2.323  -1.963  -3.899  0.00  0.00    +0.046 A 
ATOM     13  C   UNL     1      -2.341  -1.704  -2.542  0.00  0.00    +0.010 A 
BRANCH  11  14
ATOM     14  O   UNL     1      -1.335  -3.059  -5.765  0.00  0.00    -0.495 OA
ATOM     15  C   UNL     1      -2.347  -2.439  -6.560  0.00  0.00    +0.277 C 
ENDBRANCH  11  14
ENDBRANCH   2   8
BRANCH   1  17
ATOM     16  C   UNL     1      -0.015   1.524  -0.010  0.00  0.00    +0.020 C 
ATOM     17  C   UNL     1       0.004  -0.005   0.002  0.00  0.00    +0.085 C 
ENDBRANCH   1  17
BRANCH   5  18
ATOM     18  S   UNL     1      -3.013   1.129   1.408  0.00  0.00    -0.121 S 
BRANCH  18  19
ATOM     19  C   UNL     1      -4.263   0.848   0.123  0.00  0.00    +0.118 C 
BRANCH  19  20
ATOM     20  C   UNL     1      -5.209   2.049   0.061  0.00  0.00    +0.184 C 
ATOM     21  N   UNL     1      -5.825   2.274   1.375  0.00  0.00    -0.363 N 
ATOM     22  C   UNL     1      -5.477   3.465   1.769  0.00  0.00    +0.060 A 
ATOM     23  C   UNL     1      -5.775   4.242   2.980  0.00  0.00    +0.027 A 
ATOM     24  C   UNL     1      -5.263   5.482   3.118  0.00  0.00    +0.002 A 
ATOM     25  C   UNL     1      -4.444   6.076   2.140  0.00  0.00    +0.002 A 
ATOM     26  C   UNL     1      -4.110   5.451   0.994  0.00  0.00    +0.027 A 
ATOM     27  C   UNL     1      -4.611   4.094   0.736  0.00  0.00    +0.060 A 
ATOM     28  N   UNL     1      -4.456   3.268  -0.258  0.00  0.00    -0.363 N 
ATOM     29  H   UNL     1      -6.387   1.650   1.860  0.00  0.00    +0.162 HD
ATOM     30  H   UNL     1      -3.938   3.428  -1.062  0.00  0.00    +0.162 HD
ENDBRANCH  19  20
ENDBRANCH  18  19
ENDBRANCH   5  18
TORSDOF 6
