REMARK  Name = ZINC59105346
REMARK  14 active torsions:
REMARK  status: ('A' for Active; 'I' for Inactive)
REMARK    1  A    between atoms: C_1  and  C_2
REMARK    2  A    between atoms: C_2  and  O_3
REMARK    3  A    between atoms: O_3  and  C_4
REMARK    4  A    between atoms: C_4  and  C_5
REMARK    5  A    between atoms: C_9  and  C_10
REMARK    6  A    between atoms: C_12  and  O_23
REMARK    7  A    between atoms: C_13  and  O_17
REMARK    8  A    between atoms: O_17  and  C_18
REMARK    9  A    between atoms: C_18  and  C_19
REMARK   10  A    between atoms: C_19  and  O_21
REMARK   11  A    between atoms: O_21  and  C_22
REMARK   12  A    between atoms: O_23  and  C_24
REMARK   13  A    between atoms: N_27  and  C_28
REMARK   14  A    between atoms: C_31  and  C_34
REMARK                            x       y       z     vdW  Elec       q    Type
REMARK                         _______ _______ _______ _____ _____    ______ ____
ROOT
ATOM      1  C   UNL     1      -2.819  -2.439   0.267  0.00  0.00    +0.139 C 
ATOM      2  C   UNL     1      -3.029  -3.791   0.174  0.00  0.00    +0.209 C 
ATOM      3  O   UNL     1      -1.986  -4.650   0.136  0.00  0.00    -0.286 OA
ATOM      4  C   UNL     1      -4.361  -4.268   0.121  0.00  0.00    +0.062 C 
ATOM      5  C   UNL     1      -4.793  -5.558   0.030  0.00  0.00    +0.027 C 
ATOM      6  S   UNL     1      -5.339  -2.779   0.203  0.00  0.00    -0.065 S 
ATOM      7  C   UNL     1      -4.017  -1.585   0.309  0.00  0.00    +0.120 C 
ATOM      8  N   UNL     1      -4.093  -0.270   0.400  0.00  0.00    -0.240 NA
ENDROOT
BRANCH   5   9
ATOM      9  C   UNL     1      -6.222  -5.863   0.151  0.00  0.00    -0.019 A 
ATOM     10  C   UNL     1      -6.727  -7.072  -0.345  0.00  0.00    +0.057 A 
ATOM     11  C   UNL     1      -8.073  -7.354  -0.227  0.00  0.00    +0.164 A 
ATOM     12  C   UNL     1      -8.928  -6.437   0.384  0.00  0.00    +0.181 A 
ATOM     13  C   UNL     1      -8.429  -5.237   0.877  0.00  0.00    +0.087 A 
ATOM     14  C   UNL     1      -7.085  -4.949   0.770  0.00  0.00    +0.032 A 
ATOM     15 CL   UNL     1      -9.500  -4.101   1.636  0.00  0.00    -0.080 Cl
BRANCH  11  16
ATOM     16  O   UNL     1      -8.567  -8.527  -0.708  0.00  0.00    -0.491 OA
ATOM     17  C   UNL     1      -7.635  -9.419  -1.322  0.00  0.00    +0.277 C 
ENDBRANCH  11  16
BRANCH  12  18
ATOM     18  O   UNL     1     -10.252  -6.717   0.498  0.00  0.00    -0.476 OA
BRANCH  18  19
ATOM     19  C   UNL     1     -10.671  -7.403   1.680  0.00  0.00    +0.349 C 
BRANCH  19  20
ATOM     20  C   UNL     1     -12.160  -7.626   1.631  0.00  0.00    +0.345 C 
ATOM     21  O   UNL     1     -12.798  -7.237   0.681  0.00  0.00    -0.247 OA
BRANCH  20  22
ATOM     22  O   UNL     1     -12.779  -8.257   2.642  0.00  0.00    -0.466 OA
ATOM     23  C   UNL     1     -14.192  -8.433   2.528  0.00  0.00    +0.280 C 
ENDBRANCH  20  22
ENDBRANCH  19  20
ENDBRANCH  18  19
ENDBRANCH  12  18
ENDBRANCH   5   9
BRANCH   8  24
ATOM     24  C   UNL     1      -5.313   0.342   0.424  0.00  0.00    +0.065 A 
ATOM     25  C   UNL     1      -6.314  -0.048  -0.471  0.00  0.00    +0.028 A 
ATOM     26  C   UNL     1      -7.544   0.575  -0.439  0.00  0.00    +0.005 A 
ATOM     27  C   UNL     1      -7.789   1.584   0.475  0.00  0.00    -0.050 A 
ATOM     28  C   UNL     1      -6.803   1.977   1.364  0.00  0.00    +0.005 A 
ATOM     29  C   UNL     1      -5.570   1.359   1.349  0.00  0.00    +0.028 A 
ATOM     30  C   UNL     1      -9.135   2.260   0.503  0.00  0.00    +0.044 C 
ENDBRANCH   8  24
BRANCH   1  31
ATOM     31  C   UNL     1      -1.471  -1.874   0.327  0.00  0.00    +0.346 C 
ATOM     32  O   UNL     1      -0.501  -2.608   0.290  0.00  0.00    -0.245 OA
BRANCH  31  33
ATOM     33  O   UNL     1      -1.302  -0.539   0.423  0.00  0.00    -0.461 OA
BRANCH  33  35
ATOM     34  C   UNL     1       0.032   1.470   0.584  0.00  0.00    +0.048 C 
ATOM     35  C   UNL     1       0.042  -0.057   0.477  0.00  0.00    +0.229 C 
ENDBRANCH  33  35
ENDBRANCH  31  33
ENDBRANCH   1  31
TORSDOF 10
