REMARK  Name = ZINC02066296
REMARK  9 active torsions:
REMARK  status: ('A' for Active; 'I' for Inactive)
REMARK    1  A    between atoms: C_1  and  C_2
REMARK    2  A    between atoms: C_3  and  C_25
REMARK    3  A    between atoms: C_4  and  C_16
REMARK    4  A    between atoms: C_10  and  C_14
REMARK    5  A    between atoms: C_10  and  C_15
REMARK    6  A    between atoms: C_19  and  O_23
REMARK    7  A    between atoms: O_23  and  C_24
REMARK    8  A    between atoms: C_25  and  O_27
REMARK    9  A    between atoms: O_27  and  C_28
REMARK                            x       y       z     vdW  Elec       q    Type
REMARK                         _______ _______ _______ _____ _____    ______ ____
ROOT
ATOM      1  C   UNL     1       4.751   4.150   0.823  0.00  0.00    +0.061 C 
ATOM      2  C   UNL     1       3.564   3.324   0.400  0.00  0.00    +0.016 C 
ATOM      3  C   UNL     1       3.645   1.982   0.417  0.00  0.00    +0.065 C 
ATOM      4  C   UNL     1       2.485   1.127  -0.005  0.00  0.00    +0.092 C 
ATOM      5  C   UNL     1       1.201   1.918   0.001  0.00  0.00    +0.024 C 
ATOM      6  C   UNL     1       1.222   3.267  -0.005  0.00  0.00    +0.016 C 
ATOM      7  N   UNL     1       2.412   3.944   0.003  0.00  0.00    -0.321 N 
ATOM      8  C   UNL     1      -0.059   4.064  -0.017  0.00  0.00    +0.058 C 
ATOM      9  C   UNL     1      -1.155   3.287   0.716  0.00  0.00    -0.023 C 
ATOM     10  C   UNL     1      -1.335   1.931   0.019  0.00  0.00    +0.086 C 
ATOM     11  C   UNL     1      -0.014   1.211   0.009  0.00  0.00    +0.162 C 
ATOM     12  O   UNL     1       0.002  -0.004   0.002  0.00  0.00    -0.292 OA
ATOM     13  C   UNL     1      -0.743   3.070   2.174  0.00  0.00    +0.011 C 
ATOM     14  C   UNL     1      -2.466   4.074   0.664  0.00  0.00    +0.011 C 
ATOM     15  H   UNL     1       2.436   4.997  -0.315  0.00  0.00    +0.152 HD
ENDROOT
BRANCH   4  16
ATOM     16  C   UNL     1       2.737   0.601  -1.394  0.00  0.00    -0.034 A 
ATOM     17  C   UNL     1       2.828  -0.762  -1.610  0.00  0.00    +0.008 A 
ATOM     18  C   UNL     1       3.058  -1.247  -2.883  0.00  0.00    +0.047 A 
ATOM     19  C   UNL     1       3.197  -0.366  -3.945  0.00  0.00    +0.134 A 
ATOM     20  C   UNL     1       3.106   1.002  -3.726  0.00  0.00    +0.060 A 
ATOM     21  C   UNL     1       2.870   1.482  -2.452  0.00  0.00    +0.023 A 
ATOM     22 BR   UNL     1       3.295   2.206  -5.172  0.00  0.00    -0.047 Br
BRANCH  19  23
ATOM     23  O   UNL     1       3.423  -0.841  -5.199  0.00  0.00    -0.494 OA
ATOM     24  C   UNL     1       3.505  -2.260  -5.349  0.00  0.00    +0.277 C 
ENDBRANCH  19  23
ENDBRANCH   4  16
BRANCH   3  25
ATOM     25  C   UNL     1       4.845   1.365   0.839  0.00  0.00    +0.338 C 
ATOM     26  O   UNL     1       5.792   2.047   1.183  0.00  0.00    -0.245 OA
BRANCH  25  27
ATOM     27  O   UNL     1       4.940   0.019   0.861  0.00  0.00    -0.458 OA
BRANCH  27  28
ATOM     28  C   UNL     1       6.182  -0.537   1.298  0.00  0.00    +0.177 C 
ATOM     29  C   UNL     1       7.109  -0.723   0.095  0.00  0.00    +0.044 C 
ATOM     30  C   UNL     1       8.438  -1.318   0.564  0.00  0.00    +0.004 C 
ATOM     31  C   UNL     1       8.185  -2.674   1.227  0.00  0.00    +0.000 C 
ATOM     32  C   UNL     1       7.258  -2.488   2.429  0.00  0.00    +0.004 C 
ATOM     33  C   UNL     1       5.928  -1.893   1.961  0.00  0.00    +0.044 C 
ENDBRANCH  27  28
ENDBRANCH  25  27
ENDBRANCH   3  25
TORSDOF 5
