REMARK  Name = ZINC09728737
REMARK  4 active torsions:
REMARK  status: ('A' for Active; 'I' for Inactive)
REMARK    1  A    between atoms: C_9  and  C_13
REMARK    2  A    between atoms: N_15  and  C_16
REMARK    3  A    between atoms: C_16  and  C_17
REMARK    4  A    between atoms: C_17  and  C_18
REMARK                            x       y       z     vdW  Elec       q    Type
REMARK                         _______ _______ _______ _____ _____    ______ ____
ROOT
ATOM      1  C   UNL     1       0.922   9.456 -11.266  0.00  0.00    +0.001 A 
ATOM      2  C   UNL     1       2.277   9.226 -11.427  0.00  0.00    +0.004 A 
ATOM      3  C   UNL     1       2.959   8.390 -10.564  0.00  0.00    +0.046 A 
ATOM      4  C   UNL     1       2.290   7.769  -9.522  0.00  0.00    +0.130 A 
ATOM      5  C   UNL     1       0.915   8.019  -9.354  0.00  0.00    +0.042 A 
ATOM      6  C   UNL     1       0.236   8.854 -10.227  0.00  0.00    +0.013 A 
ATOM      7  C   UNL     1       0.262   7.352  -8.212  0.00  0.00    +0.076 A 
ATOM      8  C   UNL     1       1.049   6.760  -7.243  0.00  0.00    +0.047 A 
ATOM      9  C   UNL     1       0.161   6.212  -6.321  0.00  0.00    +0.154 A 
ATOM     10  N   UNL     1      -1.063   6.494  -6.745  0.00  0.00    -0.168 NA
ATOM     11  N   UNL     1      -1.017   7.161  -7.851  0.00  0.00    -0.276 N 
ATOM     12  H   UNL     1      -1.814   7.487  -8.360  0.00  0.00    +0.189 HD
ATOM     13  C   UNL     1       2.548   6.783  -7.328  0.00  0.00    +0.269 C 
ATOM     14  O   UNL     1       2.941   6.913  -8.697  0.00  0.00    -0.487 OA
ENDROOT
BRANCH   9  15
ATOM     15  C   UNL     1       0.515   5.464  -5.098  0.00  0.00    +0.265 C 
ATOM     16  O   UNL     1       1.683   5.272  -4.819  0.00  0.00    -0.268 OA
ATOM     17  N   UNL     1      -0.456   4.993  -4.290  0.00  0.00    -0.310 N 
ATOM     18  H   UNL     1      -1.388   5.146  -4.513  0.00  0.00    +0.149 HD
BRANCH  17  19
ATOM     19  C   UNL     1      -0.104   4.251  -3.077  0.00  0.00    +0.109 C 
BRANCH  19  20
ATOM     20  C   UNL     1      -1.382   3.833  -2.347  0.00  0.00    +0.049 C 
BRANCH  20  21
ATOM     21  C   UNL     1      -1.020   3.070  -1.099  0.00  0.00    -0.072 C 
ATOM     22  C   UNL     1      -0.952   3.725   0.015  0.00  0.00    -0.028 C 
ATOM     23  C   UNL     1      -0.595   3.106   1.335  0.00  0.00    +0.027 C 
ATOM     24  C   UNL     1      -0.739   1.585   1.264  0.00  0.00    +0.004 C 
ATOM     25  C   UNL     1      -0.013   1.086   0.008  0.00  0.00    +0.005 C 
ATOM     26  C   UNL     1      -0.761   1.597  -1.225  0.00  0.00    +0.030 C 
ENDBRANCH  20  21
ENDBRANCH  19  20
ENDBRANCH  17  19
ENDBRANCH   9  15
TORSDOF 4
