REMARK  Name = ZINC22058322
REMARK  14 active torsions:
REMARK  status: ('A' for Active; 'I' for Inactive)
REMARK    1  A    between atoms: C_1  and  C_2
REMARK    2  A    between atoms: C_2  and  N_3
REMARK    3  A    between atoms: N_3  and  C_4
REMARK    4  A    between atoms: C_4  and  C_5
REMARK    5  A    between atoms: C_6  and  C_8
REMARK    6  A    between atoms: C_8  and  C_38
REMARK    7  A    between atoms: C_9  and  C_10
REMARK    8  A    between atoms: C_12  and  N_35
REMARK    9  A    between atoms: C_14  and  O_16
REMARK   10  A    between atoms: O_16  and  C_17
REMARK   11  A    between atoms: C_19  and  O_33
REMARK   12  A    between atoms: C_21  and  O_32
REMARK   13  A    between atoms: C_23  and  O_31
REMARK   14  A    between atoms: C_25  and  C_28
REMARK                            x       y       z     vdW  Elec       q    Type
REMARK                         _______ _______ _______ _____ _____    ______ ____
ROOT
ATOM      1  C   UNL     1       0.332  -0.522  -4.742  0.00  0.00    -0.018 A 
ATOM      2  C   UNL     1       0.390   0.865  -4.942  0.00  0.00    +0.044 A 
ATOM      3  C   UNL     1       0.487   1.372  -6.218  0.00  0.00    +0.177 A 
ATOM      4  C   UNL     1       0.528   0.513  -7.310  0.00  0.00    +0.250 A 
ATOM      5  C   UNL     1       0.471  -0.868  -7.120  0.00  0.00    +0.173 A 
ATOM      6  C   UNL     1       0.380  -1.387  -5.845  0.00  0.00    +0.057 A 
ATOM      7  O   UNL     1       0.624   1.020  -8.566  0.00  0.00    -0.282 OA
ENDROOT
BRANCH   3   8
ATOM      8  N   UNL     1       0.549   2.836  -6.428  0.00  0.00    +0.060 N 
ATOM      9  O   UNL     1       0.513   3.590  -5.472  0.00  0.00    -0.126 OA
ATOM     10  O   UNL     1       0.635   3.286  -7.556  0.00  0.00    -0.126 OA
ENDBRANCH   3   8
BRANCH   1  12
ATOM     11  C   UNL     1       0.822  -0.405  -2.333  0.00  0.00    +0.114 C 
ATOM     12  C   UNL     1       0.229  -1.065  -3.386  0.00  0.00    +0.032 C 
BRANCH  11  14
ATOM     13  N   UNL     1       1.035  -0.118   0.083  0.00  0.00    -0.297 N 
ATOM     14  C   UNL     1       0.562  -0.841  -0.952  0.00  0.00    +0.257 C 
ATOM     15  O   UNL     1      -0.080  -1.853  -0.744  0.00  0.00    -0.269 OA
BRANCH  13  17
ATOM     16  C   UNL     1      -0.387  -0.010   2.070  0.00  0.00    +0.024 C 
ATOM     17  C   UNL     1       0.877  -0.611   1.454  0.00  0.00    +0.105 C 
ENDBRANCH  13  17
BRANCH  13  18
ATOM     18  C   UNL     1       1.706   1.161  -0.162  0.00  0.00    +0.105 C 
ATOM     19  C   UNL     1       3.189   0.912  -0.445  0.00  0.00    +0.024 C 
ENDBRANCH  13  18
ENDBRANCH  11  14
BRANCH  11  20
ATOM     20  C   UNL     1       1.691   0.706  -2.582  0.00  0.00    +0.104 C 
ATOM     21  N   UNL     1       2.381   1.586  -2.779  0.00  0.00    -0.191 NA
ENDBRANCH  11  20
ENDBRANCH   1  12
BRANCH   5  22
ATOM     22  O   UNL     1       0.511  -1.703  -8.193  0.00  0.00    -0.457 OA
BRANCH  22  23
ATOM     23  C   UNL     1       0.448  -3.106  -7.926  0.00  0.00    +0.340 C 
ATOM     24  C   UNL     1       0.381  -3.875  -9.247  0.00  0.00    +0.214 C 
ATOM     25  C   UNL     1       0.374  -5.378  -8.954  0.00  0.00    +0.180 C 
ATOM     26  C   UNL     1       1.620  -5.734  -8.137  0.00  0.00    +0.186 C 
ATOM     27  C   UNL     1       1.639  -4.893  -6.858  0.00  0.00    +0.266 C 
ATOM     28  O   UNL     1       1.613  -3.506  -7.201  0.00  0.00    -0.322 OA
BRANCH  27  29
ATOM     29  C   UNL     1       2.892  -5.194  -6.077  0.00  0.00    +0.387 C 
ATOM     30  O   UNL     1       3.725  -4.333  -5.916  0.00  0.00    -0.243 OA
ATOM     31  O   UNL     1       3.083  -6.418  -5.561  0.00  0.00    -0.243 OA
ENDBRANCH  27  29
BRANCH  26  32
ATOM     32  O   UNL     1       1.588  -7.121  -7.796  0.00  0.00    -0.386 OA
ATOM     33  H   UNL     1       2.405  -7.562  -7.206  0.00  0.00    +0.210 HD
ENDBRANCH  26  32
BRANCH  25  34
ATOM     34  O   UNL     1       0.386  -6.105 -10.185  0.00  0.00    -0.386 OA
ATOM     35  H   UNL     1       0.384  -7.205 -10.174  0.00  0.00    +0.210 HD
ENDBRANCH  25  34
BRANCH  24  36
ATOM     36  O   UNL     1      -0.813  -3.519  -9.947  0.00  0.00    -0.383 OA
ATOM     37  H   UNL     1      -1.035  -3.974 -10.924  0.00  0.00    +0.210 HD
ENDBRANCH  24  36
ENDBRANCH  22  23
ENDBRANCH   5  22
TORSDOF 12
