REMARK  Name = ZINC22839491
REMARK  6 active torsions:
REMARK  status: ('A' for Active; 'I' for Inactive)
REMARK    1  A    between atoms: C_4  and  O_7
REMARK    2  A    between atoms: O_7  and  C_8
REMARK    3  A    between atoms: C_12  and  C_14
REMARK    4  A    between atoms: C_27  and  S_29
REMARK    5  A    between atoms: S_29  and  C_30
REMARK    6  A    between atoms: C_30  and  C_31
REMARK                            x       y       z     vdW  Elec       q    Type
REMARK                         _______ _______ _______ _____ _____    ______ ____
ROOT
ATOM      1  C   UNL     1       6.303  -4.682   0.145  0.00  0.00    +0.176 C 
ATOM      2  C   UNL     1       6.376  -5.521   1.402  0.00  0.00    +0.041 C 
ATOM      3  C   UNL     1       6.292  -6.868   1.372  0.00  0.00    +0.020 C 
ATOM      4  C   UNL     1       6.350  -7.678   2.646  0.00  0.00    +0.052 C 
ATOM      5  C   UNL     1       7.231  -6.961   3.671  0.00  0.00    +0.014 C 
ATOM      6  C   UNL     1       6.640  -5.571   3.927  0.00  0.00    +0.080 C 
ATOM      7  C   UNL     1       6.538  -4.835   2.620  0.00  0.00    +0.163 C 
ATOM      8  O   UNL     1       6.597  -3.621   2.615  0.00  0.00    -0.292 OA
ATOM      9  N   UNL     1       6.156  -7.559   0.192  0.00  0.00    -0.287 N 
ATOM     10  C   UNL     1       6.397  -6.881  -0.992  0.00  0.00    +0.219 A 
ATOM     11  N   UNL     1       6.473  -5.530  -1.028  0.00  0.00    -0.220 N 
ATOM     12  N   UNL     1       6.730  -5.184  -2.354  0.00  0.00    -0.141 NA
ATOM     13  C   UNL     1       6.789  -6.308  -3.034  0.00  0.00    +0.211 A 
ATOM     14  N   UNL     1       6.586  -7.332  -2.202  0.00  0.00    -0.187 NA
ATOM     15  H   UNL     1       5.898  -8.494   0.188  0.00  0.00    +0.155 HD
ENDROOT
BRANCH   1  20
ATOM     16  C   UNL     1       3.657  -1.988  -0.010  0.00  0.00    +0.129 A 
ATOM     17  C   UNL     1       2.495  -2.747  -0.046  0.00  0.00    +0.046 A 
ATOM     18  C   UNL     1       2.571  -4.125  -0.020  0.00  0.00    +0.004 A 
ATOM     19  C   UNL     1       3.803  -4.750   0.042  0.00  0.00    +0.006 A 
ATOM     20  C   UNL     1       4.962  -3.997   0.077  0.00  0.00    -0.015 A 
ATOM     21  C   UNL     1       4.892  -2.618   0.046  0.00  0.00    +0.052 A 
BRANCH  16  22
ATOM     22  O   UNL     1       3.586  -0.632  -0.036  0.00  0.00    -0.456 OA
BRANCH  22  26
ATOM     23  C   UNL     1       3.332   1.363   3.566  0.00  0.00    +0.000 A 
ATOM     24  C   UNL     1       3.413  -0.017   3.546  0.00  0.00    +0.004 A 
ATOM     25  C   UNL     1       3.498  -0.688   2.341  0.00  0.00    +0.046 A 
ATOM     26  C   UNL     1       3.502   0.025   1.150  0.00  0.00    +0.128 A 
ATOM     27  C   UNL     1       3.419   1.410   1.174  0.00  0.00    +0.046 A 
ATOM     28  C   UNL     1       3.334   2.076   2.381  0.00  0.00    +0.004 A 
ENDBRANCH  22  26
ENDBRANCH  16  22
ENDBRANCH   1  20
BRANCH  13  29
ATOM     29  S   UNL     1       7.089  -6.442  -4.765  0.00  0.00    -0.080 S 
BRANCH  29  30
ATOM     30  C   UNL     1       7.047  -8.228  -5.081  0.00  0.00    +0.114 C 
BRANCH  30  31
ATOM     31  C   UNL     1       7.293  -8.485  -6.545  0.00  0.00    -0.019 A 
ATOM     32  C   UNL     1       6.229  -8.533  -7.427  0.00  0.00    +0.006 A 
ATOM     33  C   UNL     1       6.455  -8.769  -8.770  0.00  0.00    +0.000 A 
ATOM     34  C   UNL     1       7.744  -8.957  -9.233  0.00  0.00    +0.001 A 
ATOM     35  C   UNL     1       8.808  -8.910  -8.352  0.00  0.00    +0.020 A 
ATOM     36  C   UNL     1       8.584  -8.668  -7.009  0.00  0.00    +0.045 A 
ATOM     37 CL   UNL     1       9.921  -8.601  -5.903  0.00  0.00    -0.083 Cl
ENDBRANCH  30  31
ENDBRANCH  29  30
ENDBRANCH  13  29
TORSDOF 6
