REMARK  Name = ZINC06910545
REMARK  5 active torsions:
REMARK  status: ('A' for Active; 'I' for Inactive)
REMARK    1  A    between atoms: C_1  and  C_2
REMARK    2  A    between atoms: C_3  and  O_21
REMARK    3  A    between atoms: C_12  and  C_13
REMARK    4  A    between atoms: C_13  and  S_14
REMARK    5  A    between atoms: S_14  and  C_15
REMARK                            x       y       z     vdW  Elec       q    Type
REMARK                         _______ _______ _______ _____ _____    ______ ____
ROOT
ATOM      1  C   UNL     1       5.529   3.833   2.331  0.00  0.00    +0.051 C 
ATOM      2  C   UNL     1       4.116   3.312   2.374  0.00  0.00    +0.034 A 
ATOM      3  C   UNL     1       3.494   3.091   3.592  0.00  0.00    +0.123 A 
ATOM      4  C   UNL     1       2.187   2.609   3.643  0.00  0.00    +0.046 A 
ATOM      5  C   UNL     1       1.498   2.358   2.491  0.00  0.00    +0.015 A 
ATOM      6  C   UNL     1       2.107   2.587   1.252  0.00  0.00    +0.022 A 
ATOM      7  C   UNL     1       3.428   3.068   1.195  0.00  0.00    +0.146 A 
ATOM      8  O   UNL     1       4.010   3.293  -0.003  0.00  0.00    -0.422 OA
ATOM      9  C   UNL     1       3.358   3.063  -1.153  0.00  0.00    +0.338 A 
ATOM     10  O   UNL     1       3.923   3.281  -2.209  0.00  0.00    -0.245 OA
ATOM     11  C   UNL     1       2.035   2.575  -1.169  0.00  0.00    +0.097 A 
ATOM     12  C   UNL     1       1.391   2.327   0.001  0.00  0.00    -0.020 A 
ENDROOT
BRANCH   3  13
ATOM     13  O   UNL     1       4.166   3.336   4.746  0.00  0.00    -0.506 OA
ATOM     14  H   UNL     1       4.667   2.579   5.078  0.00  0.00    +0.292 HD
ENDBRANCH   3  13
BRANCH  12  15
ATOM     15  C   UNL     1      -0.022   1.806   0.012  0.00  0.00    +0.113 C 
BRANCH  15  16
ATOM     16  S   UNL     1       0.002  -0.004   0.002  0.00  0.00    -0.081 S 
BRANCH  16  17
ATOM     17  C   UNL     1      -1.729  -0.334   0.017  0.00  0.00    +0.188 A 
ATOM     18  N   UNL     1      -2.581   0.682   0.036  0.00  0.00    -0.230 NA
ATOM     19  C   UNL     1      -3.886   0.469   0.042  0.00  0.00    +0.115 A 
ATOM     20  C   UNL     1      -4.359  -0.834   0.039  0.00  0.00    +0.039 A 
ATOM     21  C   UNL     1      -3.440  -1.873   0.025  0.00  0.00    +0.115 A 
ATOM     22  N   UNL     1      -2.148  -1.591   0.014  0.00  0.00    -0.230 NA
ENDBRANCH  16  17
ENDBRANCH  15  16
ENDBRANCH  12  15
TORSDOF 4
