REMARK  Name = ZINC49127976
REMARK  5 active torsions:
REMARK  status: ('A' for Active; 'I' for Inactive)
REMARK    1  A    between atoms: C_1  and  C_2
REMARK    2  A    between atoms: C_2  and  C_4
REMARK    3  A    between atoms: C_2  and  N_10
REMARK    4  A    between atoms: N_10  and  C_11
REMARK    5  A    between atoms: C_16  and  N_17
REMARK                            x       y       z     vdW  Elec       q    Type
REMARK                         _______ _______ _______ _____ _____    ______ ____
ROOT
ATOM      1  C   UNL     1       2.077  -0.591  -1.215  0.00  0.00    +0.051 A 
ATOM      2  C   UNL     1       2.801  -0.262  -0.084  0.00  0.00    +0.053 A 
ATOM      3  C   UNL     1       4.191  -0.376  -0.095  0.00  0.00    +0.080 A 
ATOM      4  C   UNL     1       4.844  -0.828  -1.265  0.00  0.00    +0.067 A 
ATOM      5  C   UNL     1       4.102  -1.157  -2.401  0.00  0.00    +0.040 A 
ATOM      6  C   UNL     1       2.727  -1.044  -2.372  0.00  0.00    +0.047 A 
ATOM      7  C   UNL     1       6.308  -0.935  -1.240  0.00  0.00    +0.259 A 
ATOM      8  O   UNL     1       6.930  -1.317  -2.214  0.00  0.00    -0.267 OA
ATOM      9  N   UNL     1       6.939  -0.593  -0.093  0.00  0.00    -0.313 N 
ATOM     10  H   UNL     1       7.905  -0.652  -0.040  0.00  0.00    +0.170 HD
ATOM     11  C   UNL     1       6.231  -0.167   0.987  0.00  0.00    +0.199 A 
ATOM     12  N   UNL     1       4.937  -0.062   0.995  0.00  0.00    -0.237 NA
ENDROOT
BRANCH   6  13
ATOM     13  N   UNL     1       1.977  -1.378  -3.506  0.00  0.00    -0.357 N 
ATOM     14  H   UNL     1       1.011  -1.296  -3.491  0.00  0.00    +0.142 HD
ATOM     15  H   UNL     1       2.424  -1.691  -4.308  0.00  0.00    +0.142 HD
ENDBRANCH   6  13
BRANCH   1  16
ATOM     16  N   UNL     1       0.688  -0.476  -1.203  0.00  0.00    -0.335 N 
ATOM     17  H   UNL     1       0.175  -0.710  -1.993  0.00  0.00    +0.147 HD
BRANCH  16  19
ATOM     18  C   UNL     1      -0.019   1.526   0.010  0.00  0.00    +0.033 C 
ATOM     19  C   UNL     1       0.002  -0.004   0.002  0.00  0.00    +0.104 C 
BRANCH  19  20
ATOM     20  C   UNL     1      -1.412  -0.526   0.013  0.00  0.00    +0.011 A 
ATOM     21  C   UNL     1      -2.141  -0.993   1.055  0.00  0.00    +0.014 A 
ATOM     22  C   UNL     1      -3.435  -1.425   0.828  0.00  0.00    +0.028 A 
ATOM     23  C   UNL     1      -3.935  -1.368  -0.431  0.00  0.00    +0.078 A 
ATOM     24  S   UNL     1      -2.563  -0.681  -1.343  0.00  0.00    -0.080 S 
ATOM     25 CL   UNL     1      -5.505  -1.836  -1.006  0.00  0.00    -0.076 Cl
ENDBRANCH  19  20
ENDBRANCH  16  19
ENDBRANCH   1  16
TORSDOF 4
