REMARK  Name = ZINC04569364
REMARK  10 active torsions:
REMARK  status: ('A' for Active; 'I' for Inactive)
REMARK    1  A    between atoms: C_1  and  C_2
REMARK    2  A    between atoms: C_5  and  S_8
REMARK    3  A    between atoms: S_8  and  N_11
REMARK    4  A    between atoms: C_15  and  C_17
REMARK    5  A    between atoms: C_17  and  N_18
REMARK    6  A    between atoms: C_19  and  C_21
REMARK    7  A    between atoms: C_24  and  C_27
REMARK    8  A    between atoms: C_27  and  C_28
REMARK    9  A    between atoms: C_27  and  C_29
REMARK   10  A    between atoms: C_27  and  C_30
REMARK                            x       y       z     vdW  Elec       q    Type
REMARK                         _______ _______ _______ _____ _____    ______ ____
ROOT
ATOM      1  N   UNL     1       1.332   1.927   0.071  0.00  0.00    -0.172 NA
ATOM      2  C   UNL     1       1.703   2.763  -1.085  0.00  0.00    +0.110 C 
ATOM      3  C   UNL     1       0.698   2.371  -2.196  0.00  0.00    +0.019 C 
ATOM      4  C   UNL     1      -0.602   2.151  -1.378  0.00  0.00    +0.023 C 
ATOM      5  C   UNL     1      -0.081   1.542  -0.059  0.00  0.00    +0.097 C 
ENDROOT
BRANCH   1   6
ATOM      6  S   UNL     1       2.340   1.494   1.312  0.00  0.00    +0.061 S 
ATOM      7  O   UNL     1       3.288   2.543   1.450  0.00  0.00    -0.153 OA
ATOM      8  O   UNL     1       1.507   1.074   2.384  0.00  0.00    -0.153 OA
BRANCH   6  13
ATOM      9  C   UNL     1       5.409  -3.376  -0.496  0.00  0.00    +0.044 C 
ATOM     10  C   UNL     1       4.642  -2.160  -0.045  0.00  0.00    -0.050 A 
ATOM     11  C   UNL     1       5.146  -0.896  -0.287  0.00  0.00    +0.005 A 
ATOM     12  C   UNL     1       4.443   0.220   0.127  0.00  0.00    +0.029 A 
ATOM     13  C   UNL     1       3.236   0.072   0.784  0.00  0.00    +0.106 A 
ATOM     14  C   UNL     1       2.734  -1.192   1.030  0.00  0.00    +0.029 A 
ATOM     15  C   UNL     1       3.434  -2.308   0.611  0.00  0.00    +0.005 A 
ENDBRANCH   6  13
ENDBRANCH   1   6
BRANCH   5  16
ATOM     16  C   UNL     1      -0.882   2.094   1.122  0.00  0.00    +0.125 C 
BRANCH  16  17
ATOM     17  N   UNL     1      -2.268   1.626   1.033  0.00  0.00    -0.310 N 
ATOM     18  C   UNL     1      -3.186   2.071   1.914  0.00  0.00    +0.244 C 
ATOM     19  O   UNL     1      -2.848   2.788   2.835  0.00  0.00    -0.270 OA
ATOM     20  H   UNL     1      -2.524   0.997   0.341  0.00  0.00    +0.149 HD
BRANCH  18  21
ATOM     21  C   UNL     1      -4.605   1.686   1.759  0.00  0.00    +0.037 A 
ATOM     22  C   UNL     1      -4.982   0.781   0.764  0.00  0.00    +0.013 A 
ATOM     23  C   UNL     1      -6.307   0.423   0.628  0.00  0.00    +0.005 A 
ATOM     24  C   UNL     1      -7.263   0.966   1.467  0.00  0.00    -0.042 A 
ATOM     25  C   UNL     1      -6.898   1.867   2.452  0.00  0.00    +0.005 A 
ATOM     26  C   UNL     1      -5.575   2.230   2.602  0.00  0.00    +0.013 A 
BRANCH  24  27
ATOM     27  C   UNL     1      -8.710   0.575   1.309  0.00  0.00    -0.013 C 
ATOM     28  C   UNL     1      -9.545   1.819   1.002  0.00  0.00    +0.015 C 
ATOM     29  C   UNL     1      -8.845  -0.426   0.159  0.00  0.00    +0.015 C 
ATOM     30  C   UNL     1      -9.209  -0.068   2.605  0.00  0.00    +0.015 C 
ENDBRANCH  24  27
ENDBRANCH  18  21
ENDBRANCH  16  17
ENDBRANCH   5  16
TORSDOF 6
