REMARK  Name = ZINC47152387
REMARK  6 active torsions:
REMARK  status: ('A' for Active; 'I' for Inactive)
REMARK    1  A    between atoms: C_1  and  C_2
REMARK    2  A    between atoms: C_2  and  C_4
REMARK    3  A    between atoms: C_2  and  N_16
REMARK    4  A    between atoms: N_6  and  C_7
REMARK    5  A    between atoms: C_10  and  N_13
REMARK    6  A    between atoms: C_20  and  C_21
REMARK                            x       y       z     vdW  Elec       q    Type
REMARK                         _______ _______ _______ _____ _____    ______ ____
ROOT
ATOM      1  C   UNL     1      -0.603   0.786  -1.198  0.00  0.00    +0.038 C 
ATOM      2  C   UNL     1      -0.826  -0.715  -1.003  0.00  0.00    +0.166 C 
ENDROOT
BRANCH   2   3
ATOM      3  N   UNL     1      -2.201  -0.951  -0.555  0.00  0.00    -0.244 N 
ATOM      4  C   UNL     1      -2.408  -1.538   0.612  0.00  0.00    +0.259 C 
ATOM      5  O   UNL     1      -1.486  -1.889   1.324  0.00  0.00    -0.269 OA
ATOM      6  C   UNL     1      -3.818  -1.746   1.006  0.00  0.00    +0.077 C 
ATOM      7  C   UNL     1      -4.328  -2.313   2.127  0.00  0.00    +0.028 C 
ATOM      8  S   UNL     1      -4.666  -1.045  -0.403  0.00  0.00    -0.061 S 
ATOM      9  C   UNL     1      -3.225  -0.558  -1.339  0.00  0.00    +0.121 C 
ATOM     10  S   UNL     1      -3.161   0.217  -2.864  0.00  0.00    -0.027 S 
BRANCH   7  11
ATOM     11  C   UNL     1      -5.769  -2.584   2.224  0.00  0.00    -0.023 A 
ATOM     12  C   UNL     1      -6.589  -2.440   1.099  0.00  0.00    +0.008 A 
ATOM     13  C   UNL     1      -7.940  -2.696   1.198  0.00  0.00    +0.002 A 
ATOM     14  C   UNL     1      -8.487  -3.095   2.406  0.00  0.00    +0.015 A 
ATOM     15  C   UNL     1      -7.683  -3.240   3.524  0.00  0.00    +0.018 A 
ATOM     16  C   UNL     1      -6.327  -2.994   3.440  0.00  0.00    +0.023 A 
ATOM     17 BR   UNL     1      -8.442  -3.785   5.167  0.00  0.00    -0.050 Br
ENDBRANCH   7  11
ENDBRANCH   2   3
BRANCH   2  18
ATOM     18  C   UNL     1      -0.594  -1.432  -2.309  0.00  0.00    +0.238 C 
ATOM     19  O   UNL     1      -1.489  -2.075  -2.815  0.00  0.00    -0.273 OA
ATOM     20  N   UNL     1       0.608  -1.357  -2.914  0.00  0.00    -0.284 N 
ATOM     21  H   UNL     1       1.298  -0.778  -2.553  0.00  0.00    +0.155 HD
BRANCH  20  22
ATOM     22  C   UNL     1       0.861  -2.115  -4.063  0.00  0.00    +0.034 A 
ATOM     23  C   UNL     1       1.764  -1.657  -5.013  0.00  0.00    +0.025 A 
ATOM     24  C   UNL     1       2.012  -2.407  -6.146  0.00  0.00    +0.034 A 
ATOM     25  C   UNL     1       1.361  -3.612  -6.335  0.00  0.00    +0.126 A 
ATOM     26  C   UNL     1       0.461  -4.071  -5.391  0.00  0.00    +0.034 A 
ATOM     27  C   UNL     1       0.214  -3.328  -4.252  0.00  0.00    +0.025 A 
BRANCH  25  28
ATOM     28  N   UNL     1       1.629  -4.414  -7.550  0.00  0.00    +0.056 N 
ATOM     29  O   UNL     1       2.416  -4.014  -8.377  0.00  0.00    -0.126 OA
ATOM     30  O   UNL     1       1.061  -5.468  -7.716  0.00  0.00    -0.126 OA
ENDBRANCH  25  28
ENDBRANCH  20  22
ENDBRANCH   2  18
TORSDOF 5
