REMARK  Name = ZINC59181353
REMARK  6 active torsions:
REMARK  status: ('A' for Active; 'I' for Inactive)
REMARK    1  A    between atoms: C_4  and  C_7
REMARK    2  A    between atoms: C_7  and  C_8
REMARK    3  A    between atoms: C_8  and  N_9
REMARK    4  A    between atoms: N_17  and  N_18
REMARK    5  A    between atoms: C_19  and  C_21
REMARK    6  A    between atoms: C_21  and  N_22
REMARK                            x       y       z     vdW  Elec       q    Type
REMARK                         _______ _______ _______ _____ _____    ______ ____
ROOT
ATOM      1  N   UNL     1       5.449  -1.688   1.290  0.00  0.00    -0.265 N 
ATOM      2  C   UNL     1       5.573  -3.046   1.564  0.00  0.00    +0.046 A 
ATOM      3  C   UNL     1       4.620  -4.038   1.765  0.00  0.00    +0.024 A 
ATOM      4  C   UNL     1       5.015  -5.335   2.027  0.00  0.00    +0.002 A 
ATOM      5  C   UNL     1       6.358  -5.663   2.094  0.00  0.00    +0.001 A 
ATOM      6  C   UNL     1       7.319  -4.691   1.897  0.00  0.00    +0.012 A 
ATOM      7  C   UNL     1       6.931  -3.383   1.633  0.00  0.00    +0.028 A 
ATOM      8  C   UNL     1       7.686  -2.133   1.381  0.00  0.00    +0.153 C 
ATOM      9  N   UNL     1       8.987  -1.978   1.350  0.00  0.00    -0.174 NA
ATOM     10  C   UNL     1       6.651  -1.100   1.166  0.00  0.00    +0.271 C 
ATOM     11  O   UNL     1       6.852   0.075   0.923  0.00  0.00    -0.268 OA
ENDROOT
BRANCH   9  12
ATOM     12  N   UNL     1       9.827  -3.095   1.438  0.00  0.00    -0.205 N 
ATOM     13  C   UNL     1      11.162  -2.929   1.529  0.00  0.00    +0.254 C 
ATOM     14  O   UNL     1      11.635  -1.813   1.535  0.00  0.00    -0.272 OA
ATOM     15  H   UNL     1       9.449  -3.989   1.433  0.00  0.00    +0.177 HD
BRANCH  13  16
ATOM     16  C   UNL     1      12.066  -4.131   1.624  0.00  0.00    +0.243 C 
BRANCH  16  17
ATOM     17  N   UNL     1      13.459  -3.688   1.713  0.00  0.00    -0.235 N 
ATOM     18  C   UNL     1      14.319  -3.462   0.664  0.00  0.00    +0.090 A 
ATOM     19  C   UNL     1      14.203  -3.557  -0.719  0.00  0.00    +0.029 A 
ATOM     20  C   UNL     1      15.273  -3.253  -1.513  0.00  0.00    +0.002 A 
ATOM     21  C   UNL     1      16.478  -2.850  -0.951  0.00  0.00    +0.002 A 
ATOM     22  C   UNL     1      16.617  -2.749   0.402  0.00  0.00    +0.032 A 
ATOM     23  C   UNL     1      15.535  -3.054   1.239  0.00  0.00    +0.113 A 
ATOM     24  N   UNL     1      15.374  -3.049   2.577  0.00  0.00    -0.129 NA
ATOM     25  N   UNL     1      14.177  -3.406   2.884  0.00  0.00    -0.064 NA
ENDBRANCH  16  17
ENDBRANCH  13  16
ENDBRANCH   9  12
BRANCH   1  26
ATOM     26  C   UNL     1       4.170  -0.988   1.149  0.00  0.00    +0.118 C 
BRANCH  26  27
ATOM     27  C   UNL     1       3.722  -1.036  -0.313  0.00  0.00    +0.054 C 
BRANCH  27  31
ATOM     28  C   UNL     1      -0.008   1.004  -0.729  0.00  0.00    +0.000 A 
ATOM     29  C   UNL     1       1.179   1.698  -0.873  0.00  0.00    +0.000 A 
ATOM     30  C   UNL     1       2.386   1.038  -0.738  0.00  0.00    +0.004 A 
ATOM     31  C   UNL     1       2.406  -0.316  -0.459  0.00  0.00    -0.046 A 
ATOM     32  C   UNL     1       1.219  -1.010  -0.314  0.00  0.00    +0.004 A 
ATOM     33  C   UNL     1       0.012  -0.350  -0.450  0.00  0.00    +0.000 A 
ENDBRANCH  27  31
ENDBRANCH  26  27
ENDBRANCH   1  26
TORSDOF 6
