REMARK  Name = ZINC23220838
REMARK  7 active torsions:
REMARK  status: ('A' for Active; 'I' for Inactive)
REMARK    1  A    between atoms: C_9  and  C_12
REMARK    2  A    between atoms: C_12  and  N_13
REMARK    3  A    between atoms: C_14  and  C_16
REMARK    4  A    between atoms: C_16  and  S_17
REMARK    5  A    between atoms: S_17  and  C_18
REMARK    6  A    between atoms: C_21  and  C_29
REMARK    7  A    between atoms: N_22  and  C_23
REMARK                            x       y       z     vdW  Elec       q    Type
REMARK                         _______ _______ _______ _____ _____    ______ ____
ROOT
ATOM      1  S   UNL     1      -6.131   6.511   0.867  0.00  0.00    -0.077 S 
ENDROOT
BRANCH   1   2
ATOM      2  C   UNL     1      -5.885   7.957   1.843  0.00  0.00    +0.193 A 
ATOM      3  N   UNL     1      -4.867   8.196   2.639  0.00  0.00    -0.122 NA
ATOM      4  N   UNL     1      -5.003   9.345   3.198  0.00  0.00    -0.125 NA
ATOM      5  C   UNL     1      -6.117   9.913   2.792  0.00  0.00    +0.201 A 
ATOM      6  N   UNL     1      -6.714   9.042   1.907  0.00  0.00    -0.297 N 
BRANCH   6   7
ATOM      7  C   UNL     1      -7.974   9.237   1.186  0.00  0.00    +0.091 C 
ATOM      8  C   UNL     1      -8.957   8.129   1.569  0.00  0.00    +0.025 C 
ATOM      9  C   UNL     1     -10.274   8.332   0.817  0.00  0.00    +0.002 C 
ATOM     10  C   UNL     1     -10.013   8.284  -0.690  0.00  0.00    +0.000 C 
ATOM     11  C   UNL     1      -9.030   9.393  -1.073  0.00  0.00    +0.002 C 
ATOM     12  C   UNL     1      -7.713   9.189  -0.320  0.00  0.00    +0.025 C 
ENDBRANCH   6   7
BRANCH   5  13
ATOM     13  C   UNL     1      -6.628  11.230   3.202  0.00  0.00    +0.172 A 
ATOM     14  C   UNL     1      -5.916  12.201   3.842  0.00  0.00    +0.053 A 
ATOM     15  C   UNL     1      -6.793  13.286   4.034  0.00  0.00    +0.042 A 
ATOM     16  C   UNL     1      -7.985  12.928   3.516  0.00  0.00    +0.196 A 
ATOM     17  O   UNL     1      -7.882  11.687   3.014  0.00  0.00    -0.460 OA
ENDBRANCH   5  13
ENDBRANCH   1   2
BRANCH   1  18
ATOM     18  C   UNL     1      -4.645   5.577   1.309  0.00  0.00    +0.173 C 
BRANCH  18  20
ATOM     19  N   UNL     1      -3.622   3.396   0.747  0.00  0.00    -0.311 N 
ATOM     20  C   UNL     1      -4.640   4.262   0.572  0.00  0.00    +0.223 C 
ATOM     21  O   UNL     1      -5.551   3.984  -0.178  0.00  0.00    -0.275 OA
ATOM     22  H   UNL     1      -2.796   3.648   1.427  0.00  0.00    +0.149 HD
BRANCH  19  23
ATOM     23  C   UNL     1      -3.617   2.118   0.030  0.00  0.00    +0.152 C 
BRANCH  23  32
ATOM     24  C   UNL     1       2.400   0.032  -0.027  0.00  0.00    +0.004 A 
ATOM     25  C   UNL     1       2.382   1.415  -0.017  0.00  0.00    +0.004 A 
ATOM     26  C   UNL     1       1.177   2.091   0.002  0.00  0.00    +0.049 A 
ATOM     27  C   UNL     1      -0.017   1.385   0.010  0.00  0.00    +0.163 A 
ATOM     28  C   UNL     1       0.002  -0.004   0.002  0.00  0.00    +0.162 A 
ATOM     29  C   UNL     1       1.214  -0.677  -0.017  0.00  0.00    +0.049 A 
ATOM     30  O   UNL     1      -1.158  -0.717   0.017  0.00  0.00    -0.485 OA
ATOM     31  C   UNL     1      -2.350  -0.011  -0.344  0.00  0.00    +0.275 C 
ATOM     32  C   UNL     1      -2.361   1.329   0.404  0.00  0.00    +0.228 C 
ATOM     33  O   UNL     1      -1.195   2.066   0.019  0.00  0.00    -0.480 OA
ENDBRANCH  23  32
ENDBRANCH  19  23
ENDBRANCH  18  20
ENDBRANCH   1  18
TORSDOF 7
