REMARK  Name = ZINC37161919
REMARK  12 active torsions:
REMARK  status: ('A' for Active; 'I' for Inactive)
REMARK    1  A    between atoms: C_1  and  C_2
REMARK    2  A    between atoms: C_2  and  C_3
REMARK    3  A    between atoms: C_3  and  C_5
REMARK    4  A    between atoms: C_3  and  N_13
REMARK    5  A    between atoms: C_10  and  O_11
REMARK    6  A    between atoms: N_13  and  C_14
REMARK    7  A    between atoms: C_14  and  C_16
REMARK    8  A    between atoms: C_14  and  C_20
REMARK    9  A    between atoms: C_16  and  C_17
REMARK   10  A    between atoms: C_17  and  C_18
REMARK   11  A    between atoms: C_17  and  C_19
REMARK   12  A    between atoms: N_22  and  C_23
REMARK                            x       y       z     vdW  Elec       q    Type
REMARK                         _______ _______ _______ _____ _____    ______ ____
ROOT
ATOM      1  N   UNL     1       1.677  -0.242   1.438  0.00  0.00    +0.391 N 
ATOM      2  H   UNL     1       2.230  -0.970   1.865  0.00  0.00    -0.084 HD
ATOM      3  H   UNL     1       1.518  -0.466   0.468  0.00  0.00    -0.084 HD
ENDROOT
BRANCH   1   4
ATOM      4  C   UNL     1       0.388  -0.135   2.134  0.00  0.00    -0.037 C 
BRANCH   4   5
ATOM      5  C   UNL     1       0.628   0.044   3.611  0.00  0.00    -0.019 A 
ATOM      6  C   UNL     1       1.843  -0.315   4.163  0.00  0.00    +0.020 A 
ATOM      7  C   UNL     1       2.063  -0.151   5.519  0.00  0.00    +0.018 A 
ATOM      8  C   UNL     1       1.068   0.372   6.325  0.00  0.00    +0.019 A 
ATOM      9  C   UNL     1      -0.147   0.732   5.778  0.00  0.00    +0.047 A 
ATOM     10  C   UNL     1      -0.369   0.574   4.417  0.00  0.00    +0.119 A 
ATOM     11 BR   UNL     1       3.727  -0.643   6.271  0.00  0.00    -0.050 Br
BRANCH  10  12
ATOM     12  O   UNL     1      -1.563   0.932   3.876  0.00  0.00    -0.507 OA
ATOM     13  H   UNL     1      -2.220   0.223   3.869  0.00  0.00    +0.292 HD
ENDBRANCH  10  12
ENDBRANCH   4   5
BRANCH   4  15
ATOM     14  C   UNL     1      -0.796  -1.513   0.419  0.00  0.00    +0.002 C 
ATOM     15  C   UNL     1      -0.425  -1.409   1.900  0.00  0.00    -0.014 C 
ENDBRANCH   4  15
ENDBRANCH   1   4
BRANCH   1  16
ATOM     16  C   UNL     1       2.394   1.037   1.535  0.00  0.00    +0.017 C 
BRANCH  16  17
ATOM     17  C   UNL     1       1.639   2.094   0.771  0.00  0.00    +0.199 C 
ATOM     18  O   UNL     1       0.875   1.773  -0.114  0.00  0.00    -0.278 OA
ATOM     19  N   UNL     1       1.815   3.397   1.070  0.00  0.00    -0.320 N 
ATOM     20  C   UNL     1       0.998   4.417   0.408  0.00  0.00    +0.128 C 
ATOM     21  H   UNL     1       2.481   3.658   1.724  0.00  0.00    +0.148 HD
ENDBRANCH  16  17
BRANCH  16  22
ATOM     22  C   UNL     1       3.796   0.882   0.943  0.00  0.00    -0.004 C 
BRANCH  22  23
ATOM     23  C   UNL     1       4.553   2.205   1.073  0.00  0.00    -0.018 C 
ATOM     24  C   UNL     1       4.789   2.514   2.553  0.00  0.00    +0.007 C 
ATOM     25  C   UNL     1       5.899   2.095   0.354  0.00  0.00    +0.007 C 
ENDBRANCH  22  23
ENDBRANCH  16  22
ENDBRANCH   1  16
TORSDOF 8
