REMARK  Name = ZINC40322873
REMARK  8 active torsions:
REMARK  status: ('A' for Active; 'I' for Inactive)
REMARK    1  A    between atoms: C_1  and  C_2
REMARK    2  A    between atoms: C_5  and  S_8
REMARK    3  A    between atoms: S_8  and  C_11
REMARK    4  A    between atoms: C_14  and  C_16
REMARK    5  A    between atoms: N_18  and  C_19
REMARK    6  A    between atoms: C_19  and  C_20
REMARK    7  A    between atoms: C_20  and  C_22
REMARK    8  A    between atoms: C_20  and  N_27
REMARK                            x       y       z     vdW  Elec       q    Type
REMARK                         _______ _______ _______ _____ _____    ______ ____
ROOT
ATOM      1  C   UNL     1       4.513  -5.227  -1.835  0.00  0.00    +0.279 C 
ATOM      2  O   UNL     1       5.502  -5.565  -1.211  0.00  0.00    -0.267 OA
ATOM      3  N   UNL     1       4.475  -5.385  -3.173  0.00  0.00    -0.310 N 
ATOM      4  H   UNL     1       3.688  -5.116  -3.671  0.00  0.00    +0.149 HD
ENDROOT
BRANCH   1   8
ATOM      5  C   UNL     1       1.393  -3.761  -0.753  0.00  0.00    +0.246 A 
ATOM      6  C   UNL     1       2.008  -3.867   0.445  0.00  0.00    +0.070 A 
ATOM      7  C   UNL     1       3.271  -4.434   0.213  0.00  0.00    +0.056 A 
ATOM      8  C   UNL     1       3.364  -4.648  -1.132  0.00  0.00    +0.192 A 
ATOM      9  O   UNL     1       2.211  -4.238  -1.701  0.00  0.00    -0.433 OA
BRANCH   5  10
ATOM     10  S   UNL     1      -0.222  -3.111  -1.024  0.00  0.00    +0.058 S 
ATOM     11  O   UNL     1      -0.926  -3.249   0.202  0.00  0.00    -0.161 OA
ATOM     12  O   UNL     1      -0.690  -3.680  -2.240  0.00  0.00    -0.161 OA
BRANCH  10  17
ATOM     13  C   UNL     1       0.378   2.811  -2.010  0.00  0.00    +0.044 C 
ATOM     14  C   UNL     1       0.228   1.332  -1.764  0.00  0.00    -0.050 A 
ATOM     15  C   UNL     1       0.274   0.446  -2.825  0.00  0.00    +0.005 A 
ATOM     16  C   UNL     1       0.137  -0.911  -2.599  0.00  0.00    +0.028 A 
ATOM     17  C   UNL     1      -0.046  -1.382  -1.312  0.00  0.00    +0.097 A 
ATOM     18  C   UNL     1      -0.091  -0.497  -0.252  0.00  0.00    +0.028 A 
ATOM     19  C   UNL     1       0.051   0.860  -0.477  0.00  0.00    +0.005 A 
ENDBRANCH  10  17
ENDBRANCH   5  10
ENDBRANCH   1   8
BRANCH   3  20
ATOM     20  C   UNL     1       5.623  -5.964  -3.876  0.00  0.00    +0.097 C 
BRANCH  20  21
ATOM     21  C   UNL     1       5.274  -6.156  -5.353  0.00  0.00    +0.016 C 
BRANCH  21  22
ATOM     22  N   UNL     1       4.053  -6.966  -5.465  0.00  0.00    +0.387 N 
ATOM     23  C   UNL     1       4.309  -8.293  -4.873  0.00  0.00    -0.078 C 
ATOM     24  C   UNL     1       2.990  -8.879  -4.437  0.00  0.00    -0.019 C 
ATOM     25  C   UNL     1       2.411  -9.823  -5.508  0.00  0.00    -0.002 C 
ATOM     26  C   UNL     1       2.606  -9.261  -6.930  0.00  0.00    -0.002 C 
ATOM     27  C   UNL     1       2.345  -7.778  -7.003  0.00  0.00    -0.019 C 
ATOM     28  C   UNL     1       3.676  -7.022  -6.808  0.00  0.00    -0.078 C 
ATOM     29  H   UNL     1       3.318  -6.516  -4.941  0.00  0.00    -0.081 HD
ENDBRANCH  21  22
BRANCH  21  30
ATOM     30  C   UNL     1       6.409  -6.860  -6.050  0.00  0.00    +0.093 A 
ATOM     31  C   UNL     1       7.356  -6.271  -6.803  0.00  0.00    +0.043 A 
ATOM     32  C   UNL     1       8.215  -7.298  -7.258  0.00  0.00    +0.041 A 
ATOM     33  C   UNL     1       7.741  -8.453  -6.757  0.00  0.00    +0.195 A 
ATOM     34  O   UNL     1       6.651  -8.181  -6.021  0.00  0.00    -0.469 OA
ENDBRANCH  21  30
ENDBRANCH  20  21
ENDBRANCH   3  20
TORSDOF 7
