REMARK  Name = ZINC08832981
REMARK  8 active torsions:
REMARK  status: ('A' for Active; 'I' for Inactive)
REMARK    1  A    between atoms: C_1  and  C_2
REMARK    2  A    between atoms: C_3  and  N_11
REMARK    3  A    between atoms: C_7  and  N_8
REMARK    4  A    between atoms: N_11  and  C_12
REMARK    5  A    between atoms: C_12  and  N_14
REMARK    6  A    between atoms: C_15  and  C_17
REMARK    7  A    between atoms: C_22  and  O_23
REMARK    8  A    between atoms: O_23  and  C_24
REMARK                            x       y       z     vdW  Elec       q    Type
REMARK                         _______ _______ _______ _____ _____    ______ ____
ROOT
ATOM      1  C   UNL     1       0.265   0.170  -1.109  0.00  0.00    +0.141 C 
ATOM      2  S   UNL     1       1.794  -0.340  -1.683  0.00  0.00    -0.018 S 
ENDROOT
BRANCH   1   3
ATOM      3  N   UNL     1      -0.806  -0.639  -1.234  0.00  0.00    -0.263 N 
ATOM      4  C   UNL     1      -0.672  -1.850  -1.811  0.00  0.00    +0.253 C 
ATOM      5  O   UNL     1       0.414  -2.212  -2.218  0.00  0.00    -0.270 OA
ATOM      6  H   UNL     1      -1.673  -0.350  -0.908  0.00  0.00    +0.157 HD
BRANCH   4   7
ATOM      7  C   UNL     1      -1.844  -2.735  -1.948  0.00  0.00    +0.081 A 
ATOM      8  C   UNL     1      -3.095  -2.322  -1.480  0.00  0.00    +0.032 A 
ATOM      9  C   UNL     1      -4.186  -3.154  -1.611  0.00  0.00    +0.020 A 
ATOM     10  C   UNL     1      -4.049  -4.399  -2.205  0.00  0.00    +0.034 A 
ATOM     11  C   UNL     1      -2.818  -4.819  -2.671  0.00  0.00    +0.061 A 
ATOM     12  C   UNL     1      -1.710  -3.992  -2.552  0.00  0.00    +0.146 A 
ATOM     13 BR   UNL     1      -2.645  -6.520  -3.479  0.00  0.00    -0.046 Br
ATOM     14 BR   UNL     1      -5.878  -2.594  -0.979  0.00  0.00    -0.050 Br
BRANCH  12  15
ATOM     15  O   UNL     1      -0.502  -4.401  -3.014  0.00  0.00    -0.493 OA
ATOM     16  C   UNL     1       0.334  -5.114  -2.101  0.00  0.00    +0.277 C 
ENDBRANCH  12  15
ENDBRANCH   4   7
ENDBRANCH   1   3
BRANCH   1  17
ATOM     17  N   UNL     1       0.131   1.381  -0.531  0.00  0.00    -0.296 N 
ATOM     18  H   UNL     1      -0.743   1.685  -0.239  0.00  0.00    +0.154 HD
BRANCH  17  21
ATOM     19  C   UNL     1      -0.150   4.165  -1.050  0.00  0.00    +0.048 C 
ATOM     20  C   UNL     1       1.158   3.565  -0.601  0.00  0.00    +0.001 A 
ATOM     21  C   UNL     1       1.251   2.201  -0.359  0.00  0.00    +0.038 A 
ATOM     22  C   UNL     1       2.459   1.651   0.049  0.00  0.00    +0.024 A 
ATOM     23  C   UNL     1       3.563   2.464   0.218  0.00  0.00    +0.004 A 
ATOM     24  C   UNL     1       3.466   3.823  -0.018  0.00  0.00    +0.033 A 
ATOM     25  C   UNL     1       2.264   4.373  -0.425  0.00  0.00    +0.131 A 
BRANCH  25  26
ATOM     26  N   UNL     1       2.164   5.828  -0.677  0.00  0.00    +0.057 N 
ATOM     27  O   UNL     1       3.158   6.529  -0.602  0.00  0.00    -0.126 OA
ATOM     28  O   UNL     1       1.089   6.325  -0.958  0.00  0.00    -0.126 OA
ENDBRANCH  25  26
ENDBRANCH  17  21
ENDBRANCH   1  17
TORSDOF 6
