REMARK  Name = ZINC02694973
REMARK  8 active torsions:
REMARK  status: ('A' for Active; 'I' for Inactive)
REMARK    1  A    between atoms: C_1  and  C_2
REMARK    2  A    between atoms: C_2  and  O_3
REMARK    3  A    between atoms: O_3  and  C_4
REMARK    4  A    between atoms: C_4  and  C_6
REMARK    5  A    between atoms: C_10  and  N_11
REMARK    6  A    between atoms: C_12  and  C_14
REMARK    7  A    between atoms: C_14  and  S_15
REMARK    8  A    between atoms: S_15  and  C_16
REMARK                            x       y       z     vdW  Elec       q    Type
REMARK                         _______ _______ _______ _____ _____    ______ ____
ROOT
ATOM      1  N   UNL     1      -2.405   5.808  -0.903  0.00  0.00    -0.279 N 
ATOM      2  C   UNL     1      -1.121   5.422  -0.764  0.00  0.00    +0.228 C 
ATOM      3  O   UNL     1      -0.232   6.247  -0.806  0.00  0.00    -0.275 OA
ATOM      4  H   UNL     1      -3.115   5.148  -0.870  0.00  0.00    +0.155 HD
ENDROOT
BRANCH   1   9
ATOM      5  C   UNL     1      -3.958   7.731  -1.262  0.00  0.00    +0.091 A 
ATOM      6  C   UNL     1      -4.004   9.173  -1.442  0.00  0.00    -0.021 A 
ATOM      7  C   UNL     1      -2.804   9.792  -1.437  0.00  0.00    -0.004 A 
ATOM      8  S   UNL     1      -1.626   8.495  -1.190  0.00  0.00    -0.077 S 
ATOM      9  C   UNL     1      -2.710   7.146  -1.095  0.00  0.00    +0.086 A 
ATOM     10  C   UNL     1      -2.543  11.257  -1.605  0.00  0.00    +0.043 C 
ATOM     11  C   UNL     1      -3.816  11.915  -2.160  0.00  0.00    +0.005 C 
ATOM     12  C   UNL     1      -5.016  11.437  -1.338  0.00  0.00    +0.005 C 
ATOM     13  C   UNL     1      -5.294   9.962  -1.631  0.00  0.00    +0.037 C 
BRANCH   5  14
ATOM     14  C   UNL     1      -5.181   6.927  -1.253  0.00  0.00    +0.342 C 
ATOM     15  O   UNL     1      -5.769   6.724  -0.208  0.00  0.00    -0.245 OA
BRANCH  14  16
ATOM     16  O   UNL     1      -5.657   6.411  -2.405  0.00  0.00    -0.461 OA
BRANCH  16  18
ATOM     17  C   UNL     1      -7.258   5.127  -3.717  0.00  0.00    +0.048 C 
ATOM     18  C   UNL     1      -6.875   5.624  -2.321  0.00  0.00    +0.229 C 
ENDBRANCH  16  18
ENDBRANCH  14  16
ENDBRANCH   5  14
ENDBRANCH   1   9
BRANCH   2  19
ATOM     19  C   UNL     1      -0.789   3.967  -0.557  0.00  0.00    +0.173 C 
BRANCH  19  20
ATOM     20  S   UNL     1       1.004   3.772  -0.406  0.00  0.00    -0.077 S 
BRANCH  20  21
ATOM     21  C   UNL     1       1.105   2.028  -0.178  0.00  0.00    +0.191 A 
ATOM     22  N   UNL     1      -0.011   1.307  -0.165  0.00  0.00    -0.207 NA
ATOM     23  C   UNL     1       0.002  -0.004   0.002  0.00  0.00    +0.129 A 
ATOM     24  C   UNL     1       1.247  -0.671   0.174  0.00  0.00    +0.051 A 
ATOM     25  C   UNL     1       1.500  -2.100   0.374  0.00  0.00    -0.025 A 
ATOM     26  C   UNL     1       2.786  -2.481   0.512  0.00  0.00    -0.004 A 
ATOM     27  S   UNL     1       3.727  -0.983   0.388  0.00  0.00    -0.073 S 
ATOM     28  C   UNL     1       2.388   0.155   0.149  0.00  0.00    +0.115 A 
ATOM     29  N   UNL     1       2.293   1.460  -0.022  0.00  0.00    -0.214 NA
ATOM     30  C   UNL     1       3.304  -3.870   0.726  0.00  0.00    +0.043 C 
ATOM     31  C   UNL     1       2.128  -4.768   1.137  0.00  0.00    +0.005 C 
ATOM     32  C   UNL     1       0.961  -4.518   0.178  0.00  0.00    +0.005 C 
ATOM     33  C   UNL     1       0.373  -3.129   0.425  0.00  0.00    +0.037 C 
ATOM     34  N   UNL     1      -1.181  -0.720   0.009  0.00  0.00    -0.343 N 
ATOM     35  H   UNL     1      -1.994  -0.317  -0.337  0.00  0.00    +0.144 HD
ATOM     36  H   UNL     1      -1.200  -1.624   0.359  0.00  0.00    +0.144 HD
ENDBRANCH  20  21
ENDBRANCH  19  20
ENDBRANCH   2  19
TORSDOF 7
