REMARK  Name = ZINC40036930
REMARK  5 active torsions:
REMARK  status: ('A' for Active; 'I' for Inactive)
REMARK    1  A    between atoms: C_2  and  C_3
REMARK    2  A    between atoms: C_3  and  N_4
REMARK    3  A    between atoms: N_11  and  N_12
REMARK    4  A    between atoms: C_13  and  C_14
REMARK    5  A    between atoms: C_15  and  C_16
REMARK                            x       y       z     vdW  Elec       q    Type
REMARK                         _______ _______ _______ _____ _____    ______ ____
ROOT
ATOM      1  N   UNL     1      -1.318  -1.700  -1.126  0.00  0.00    -0.276 N 
ATOM      2  C   UNL     1      -1.821  -1.295  -2.312  0.00  0.00    +0.260 A 
ATOM      3  O   UNL     1      -2.280  -0.172  -2.444  0.00  0.00    -0.267 OA
ATOM      4  C   UNL     1      -1.805  -2.193  -3.388  0.00  0.00    +0.050 A 
ATOM      5  C   UNL     1      -1.272  -3.457  -3.197  0.00  0.00    +0.084 A 
ATOM      6  N   UNL     1      -0.816  -3.813  -1.990  0.00  0.00    -0.214 NA
ATOM      7  C   UNL     1      -0.828  -2.963  -0.984  0.00  0.00    +0.219 A 
ATOM      8  N   UNL     1      -0.341  -3.360   0.234  0.00  0.00    -0.206 N 
ATOM      9  C   UNL     1      -1.189  -4.386  -4.346  0.00  0.00    +0.004 A 
ATOM     10  C   UNL     1      -0.954  -5.744  -4.149  0.00  0.00    +0.010 A 
ATOM     11  C   UNL     1      -0.901  -6.595  -5.235  0.00  0.00    +0.001 A 
ATOM     12  C   UNL     1      -1.084  -6.098  -6.514  0.00  0.00    +0.000 A 
ATOM     13  C   UNL     1      -1.311  -4.748  -6.715  0.00  0.00    +0.004 A 
ATOM     14  C   UNL     1      -1.354  -3.886  -5.638  0.00  0.00    -0.037 A 
ATOM     15  C   UNL     1      -1.547  -2.410  -5.856  0.00  0.00    +0.047 C 
ATOM     16  C   UNL     1      -2.372  -1.798  -4.725  0.00  0.00    +0.007 C 
ATOM     17  C   UNL     1      -3.818  -2.291  -4.828  0.00  0.00    +0.012 C 
ATOM     18  C   UNL     1      -4.399  -1.885  -6.183  0.00  0.00    +0.001 C 
ATOM     19  C   UNL     1      -4.373  -0.361  -6.315  0.00  0.00    +0.000 C 
ATOM     20  C   UNL     1      -2.930   0.135  -6.207  0.00  0.00    +0.001 C 
ATOM     21  C   UNL     1      -2.350  -0.272  -4.851  0.00  0.00    +0.012 C 
ATOM     22  H   UNL     1      -0.348  -2.744   0.983  0.00  0.00    +0.177 HD
ENDROOT
BRANCH   8  23
ATOM     23  N   UNL     1       0.167  -4.655   0.397  0.00  0.00    -0.188 NA
ATOM     24  C   UNL     1       0.629  -5.033   1.555  0.00  0.00    +0.130 C 
BRANCH  24  25
ATOM     25  C   UNL     1       1.143  -6.344   1.720  0.00  0.00    +0.022 C 
ATOM     26  C   UNL     1       1.621  -6.734   2.919  0.00  0.00    +0.009 C 
BRANCH  26  27
ATOM     27  C   UNL     1       2.155  -8.096   3.091  0.00  0.00    -0.025 A 
ATOM     28  C   UNL     1       2.172  -8.985   2.011  0.00  0.00    +0.008 A 
ATOM     29  C   UNL     1       2.673 -10.258   2.180  0.00  0.00    +0.001 A 
ATOM     30  C   UNL     1       3.158 -10.657   3.413  0.00  0.00    +0.000 A 
ATOM     31  C   UNL     1       3.144  -9.783   4.486  0.00  0.00    +0.001 A 
ATOM     32  C   UNL     1       2.652  -8.504   4.332  0.00  0.00    +0.008 A 
ENDBRANCH  26  27
ENDBRANCH  24  25
ENDBRANCH   8  23
BRANCH   1  33
ATOM     33  C   UNL     1      -1.293  -0.775   0.010  0.00  0.00    +0.155 C 
BRANCH  33  35
ATOM     34  C   UNL     1      -0.016   1.306   0.009  0.00  0.00    +0.005 C 
ATOM     35  C   UNL     1       0.002  -0.004   0.002  0.00  0.00    -0.013 C 
ENDBRANCH  33  35
ENDBRANCH   1  33
TORSDOF 5
