REMARK  Name = ZINC39413780
REMARK  7 active torsions:
REMARK  status: ('A' for Active; 'I' for Inactive)
REMARK    1  A    between atoms: C_1  and  O_2
REMARK    2  A    between atoms: O_2  and  C_3
REMARK    3  A    between atoms: C_3  and  C_5
REMARK    4  A    between atoms: C_7  and  N_16
REMARK    5  A    between atoms: C_17  and  C_19
REMARK    6  A    between atoms: C_19  and  S_20
REMARK    7  A    between atoms: S_20  and  C_21
REMARK                            x       y       z     vdW  Elec       q    Type
REMARK                         _______ _______ _______ _____ _____    ______ ____
ROOT
ATOM      1  N   UNL     1       0.888  -3.942   0.546  0.00  0.00    -0.301 N 
ATOM      2  C   UNL     1       1.735  -4.941   0.861  0.00  0.00    +0.224 C 
ATOM      3  O   UNL     1       2.933  -4.767   0.789  0.00  0.00    -0.275 OA
ATOM      4  H   UNL     1      -0.070  -4.081   0.603  0.00  0.00    +0.150 HD
ENDROOT
BRANCH   1   6
ATOM      5  C   UNL     1       0.657  -2.104  -1.120  0.00  0.00    +0.155 C 
ATOM      6  C   UNL     1       1.415  -2.643   0.117  0.00  0.00    +0.153 C 
ATOM      7  S   UNL     1       3.091  -2.805  -0.630  0.00  0.00    -0.106 S 
ATOM      8  C   UNL     1       2.606  -2.886  -2.338  0.00  0.00    -0.013 C 
ATOM      9  C   UNL     1       1.338  -2.505  -2.404  0.00  0.00    -0.044 C 
ATOM     10  C   UNL     1       0.598  -2.475  -3.740  0.00  0.00    +0.032 C 
ATOM     11  C   UNL     1       1.617  -2.460  -4.878  0.00  0.00    +0.005 C 
ATOM     12  C   UNL     1       2.607  -3.615  -4.693  0.00  0.00    +0.005 C 
ATOM     13  C   UNL     1       3.484  -3.311  -3.482  0.00  0.00    +0.042 C 
BRANCH   5  14
ATOM     14  C   UNL     1       0.598  -0.600  -1.043  0.00  0.00    +0.317 C 
ATOM     15  O   UNL     1       1.088   0.070  -1.921  0.00  0.00    -0.250 OA
BRANCH  14  17
ATOM     16  C   UNL     1      -0.017   1.425   0.010  0.00  0.00    +0.280 C 
ATOM     17  O   UNL     1       0.002  -0.004   0.002  0.00  0.00    -0.467 OA
ENDBRANCH  14  17
ENDBRANCH   5  14
ENDBRANCH   1   6
BRANCH   2  18
ATOM     18  C   UNL     1       1.194  -6.277   1.302  0.00  0.00    +0.168 C 
BRANCH  18  19
ATOM     19  S   UNL     1       2.572  -7.403   1.652  0.00  0.00    -0.102 S 
BRANCH  19  20
ATOM     20  C   UNL     1       1.762  -8.943   2.163  0.00  0.00    +0.290 C 
ATOM     21  N   UNL     1       1.935  -9.164   3.607  0.00  0.00    -0.147 NA
ATOM     22  N   UNL     1       2.557 -10.215   3.771  0.00  0.00    -0.112 NA
ATOM     23  C   UNL     1       2.890 -10.844   2.606  0.00  0.00    +0.253 A 
ATOM     24  N   UNL     1       2.420 -10.101   1.546  0.00  0.00    -0.274 N 
ATOM     25  C   UNL     1       2.762 -10.750   0.388  0.00  0.00    +0.073 A 
ATOM     26  C   UNL     1       2.567 -10.492  -0.964  0.00  0.00    +0.028 A 
ATOM     27  C   UNL     1       3.053 -11.372  -1.906  0.00  0.00    +0.002 A 
ATOM     28  C   UNL     1       3.736 -12.516  -1.516  0.00  0.00    +0.002 A 
ATOM     29  C   UNL     1       3.938 -12.790  -0.194  0.00  0.00    +0.030 A 
ATOM     30  C   UNL     1       3.455 -11.911   0.783  0.00  0.00    +0.091 A 
ATOM     31  N   UNL     1       3.501 -11.911   2.136  0.00  0.00    -0.209 NA
ENDBRANCH  19  20
ENDBRANCH  18  19
ENDBRANCH   2  18
TORSDOF 6
