REMARK  Name = ZINC62993134
REMARK  10 active torsions:
REMARK  status: ('A' for Active; 'I' for Inactive)
REMARK    1  A    between atoms: C_1  and  C_2
REMARK    2  A    between atoms: C_2  and  N_3
REMARK    3  A    between atoms: N_3  and  C_4
REMARK    4  A    between atoms: N_3  and  C_6
REMARK    5  A    between atoms: C_4  and  C_5
REMARK    6  A    between atoms: C_9  and  C_12
REMARK    7  A    between atoms: N_24  and  C_27
REMARK    8  A    between atoms: C_27  and  C_28
REMARK    9  A    between atoms: C_28  and  C_29
REMARK   10  A    between atoms: C_28  and  C_30
REMARK                            x       y       z     vdW  Elec       q    Type
REMARK                         _______ _______ _______ _____ _____    ______ ____
ROOT
ATOM      1  C   UNL     1       0.924  -6.777  -1.130  0.00  0.00    +0.058 C 
ATOM      2  C   UNL     1       0.387  -7.339  -2.242  0.00  0.00    +0.176 C 
ATOM      3  C   UNL     1       0.128  -8.772  -2.453  0.00  0.00    +0.231 C 
ATOM      4  O   UNL     1       0.345  -9.691  -1.683  0.00  0.00    -0.283 OA
ATOM      5  C   UNL     1      -0.455  -8.846  -3.805  0.00  0.00    +0.068 A 
ATOM      6  C   UNL     1      -0.913  -9.904  -4.591  0.00  0.00    +0.019 A 
ATOM      7  C   UNL     1      -1.412  -9.658  -5.838  0.00  0.00    +0.047 A 
ATOM      8  C   UNL     1      -1.466  -8.354  -6.330  0.00  0.00    +0.130 A 
ATOM      9  C   UNL     1      -1.017  -7.295  -5.560  0.00  0.00    +0.051 A 
ATOM     10  C   UNL     1      -0.504  -7.529  -4.288  0.00  0.00    +0.147 A 
ATOM     11  O   UNL     1      -0.013  -6.683  -3.356  0.00  0.00    -0.451 OA
ATOM     12  C   UNL     1      -1.077  -5.881  -6.077  0.00  0.00    +0.130 C 
ATOM     13  N   UNL     1      -1.250  -5.897  -7.537  0.00  0.00    -0.266 NA
ATOM     14  C   UNL     1      -2.348  -6.805  -7.907  0.00  0.00    +0.318 C 
ATOM     15  O   UNL     1      -1.965  -8.142  -7.577  0.00  0.00    -0.476 OA
ENDROOT
BRANCH   1  19
ATOM     16  C   UNL     1       1.065  -2.556  -0.746  0.00  0.00    +0.013 A 
ATOM     17  C   UNL     1       0.394  -3.128  -1.813  0.00  0.00    +0.022 A 
ATOM     18  C   UNL     1       0.344  -4.499  -1.946  0.00  0.00    +0.010 A 
ATOM     19  C   UNL     1       0.973  -5.314  -0.997  0.00  0.00    -0.021 A 
ATOM     20  C   UNL     1       1.649  -4.727   0.079  0.00  0.00    +0.010 A 
ATOM     21  C   UNL     1       1.695  -3.354   0.193  0.00  0.00    +0.022 A 
BRANCH  16  22
ATOM     22  N   UNL     1       1.111  -1.165  -0.619  0.00  0.00    -0.394 NA
ATOM     23  H   UNL     1       1.640  -0.919   0.205  0.00  0.00    +0.126 HD
BRANCH  22  25
ATOM     24  C   UNL     1       3.220  -1.031  -1.858  0.00  0.00    +0.022 C 
ATOM     25  C   UNL     1       1.757  -0.586  -1.805  0.00  0.00    +0.081 C 
ENDBRANCH  22  25
BRANCH  22  26
ATOM     26  C   UNL     1      -0.255  -0.638  -0.499  0.00  0.00    +0.081 C 
ATOM     27  C   UNL     1      -0.883  -1.141   0.802  0.00  0.00    +0.022 C 
ENDBRANCH  22  26
ENDBRANCH  16  22
ENDBRANCH   1  19
BRANCH  13  28
ATOM     28  C   UNL     1      -1.490  -4.543  -8.053  0.00  0.00    +0.091 C 
BRANCH  28  29
ATOM     29  C   UNL     1      -0.174  -3.761  -8.064  0.00  0.00    -0.003 C 
ATOM     30  C   UNL     1       0.810  -4.433  -9.024  0.00  0.00    +0.008 C 
ATOM     31  C   UNL     1      -0.438  -2.326  -8.525  0.00  0.00    +0.008 C 
ENDBRANCH  28  29
ENDBRANCH  13  28
TORSDOF 6
