REMARK  Name = ZINC12887652
REMARK  7 active torsions:
REMARK  status: ('A' for Active; 'I' for Inactive)
REMARK    1  A    between atoms: C_1  and  C_2
REMARK    2  A    between atoms: C_2  and  C_4
REMARK    3  A    between atoms: C_2  and  N_15
REMARK    4  A    between atoms: N_6  and  C_7
REMARK    5  A    between atoms: C_7  and  C_8
REMARK    6  A    between atoms: C_8  and  C_9
REMARK    7  A    between atoms: C_16  and  C_18
REMARK                            x       y       z     vdW  Elec       q    Type
REMARK                         _______ _______ _______ _____ _____    ______ ____
ROOT
ATOM      1  C   UNL     1      -0.013   1.086   0.008  0.00  0.00    +0.167 C 
ATOM      2  C   UNL     1      -0.772   1.603  -1.223  0.00  0.00    +0.069 C 
ATOM      3  C   UNL     1      -1.241   3.016  -0.991  0.00  0.00    -0.015 A 
ATOM      4  C   UNL     1      -1.718   3.958  -1.987  0.00  0.00    +0.003 A 
ATOM      5  C   UNL     1      -1.875   3.866  -3.373  0.00  0.00    +0.010 A 
ATOM      6  C   UNL     1      -2.366   4.976  -4.017  0.00  0.00    +0.001 A 
ATOM      7  C   UNL     1      -2.692   6.137  -3.336  0.00  0.00    +0.002 A 
ATOM      8  C   UNL     1      -2.546   6.255  -1.964  0.00  0.00    +0.026 A 
ATOM      9  C   UNL     1      -2.050   5.144  -1.285  0.00  0.00    +0.047 A 
ATOM     10  N   UNL     1      -1.789   4.920   0.036  0.00  0.00    -0.356 N 
ATOM     11  H   UNL     1      -1.927   5.563   0.749  0.00  0.00    +0.166 HD
ATOM     12  C   UNL     1      -1.300   3.652   0.201  0.00  0.00    +0.046 A 
ATOM     13  C   UNL     1      -0.873   3.010   1.498  0.00  0.00    +0.155 C 
ATOM     14  N   UNL     1      -0.715   1.567   1.202  0.00  0.00    -0.273 N 
ATOM     15  C   UNL     1      -1.370   0.877   2.172  0.00  0.00    +0.248 C 
ATOM     16  O   UNL     1      -1.280  -0.322   2.351  0.00  0.00    -0.270 OA
ATOM     17  C   UNL     1      -2.182   1.793   2.979  0.00  0.00    +0.042 A 
ATOM     18  C   UNL     1      -1.916   3.112   2.558  0.00  0.00    -0.009 A 
ATOM     19  C   UNL     1      -2.570   4.190   3.110  0.00  0.00    +0.006 A 
ATOM     20  C   UNL     1      -3.498   3.923   4.113  0.00  0.00    +0.000 A 
ATOM     21  C   UNL     1      -3.755   2.636   4.541  0.00  0.00    +0.001 A 
ATOM     22  C   UNL     1      -3.110   1.538   3.991  0.00  0.00    +0.013 A 
ENDROOT
BRANCH   1  24
ATOM     23  N   UNL     1       2.224   1.311  -1.023  0.00  0.00    -0.303 N 
ATOM     24  C   UNL     1       1.398   1.615  -0.003  0.00  0.00    +0.235 C 
ATOM     25  O   UNL     1       1.790   2.315   0.907  0.00  0.00    -0.274 OA
ATOM     26  H   UNL     1       1.911   0.752  -1.751  0.00  0.00    +0.149 HD
BRANCH  23  28
ATOM     27  C   UNL     1       4.497   0.895  -0.220  0.00  0.00    +0.038 C 
ATOM     28  C   UNL     1       3.596   1.826  -1.033  0.00  0.00    +0.156 C 
BRANCH  28  29
ATOM     29  C   UNL     1       4.096   1.894  -2.453  0.00  0.00    +0.233 C 
ATOM     30  O   UNL     1       3.378   1.547  -3.367  0.00  0.00    -0.274 OA
ATOM     31  N   UNL     1       5.342   2.341  -2.708  0.00  0.00    -0.313 N 
ATOM     32  H   UNL     1       5.917   2.619  -1.978  0.00  0.00    +0.149 HD
BRANCH  31  33
ATOM     33  C   UNL     1       5.828   2.408  -4.088  0.00  0.00    +0.108 C 
BRANCH  33  34
ATOM     34  C   UNL     1       7.261   2.945  -4.099  0.00  0.00    +0.049 C 
BRANCH  34  35
ATOM     35  C   UNL     1       7.761   3.014  -5.519  0.00  0.00    -0.072 C 
ATOM     36  C   UNL     1       7.650   4.139  -6.148  0.00  0.00    -0.028 C 
ATOM     37  C   UNL     1       8.093   4.358  -7.565  0.00  0.00    +0.027 C 
ATOM     38  C   UNL     1       9.048   3.243  -7.997  0.00  0.00    +0.004 C 
ATOM     39  C   UNL     1       8.411   1.893  -7.640  0.00  0.00    +0.005 C 
ATOM     40  C   UNL     1       8.362   1.774  -6.114  0.00  0.00    +0.030 C 
ENDBRANCH  34  35
ENDBRANCH  33  34
ENDBRANCH  31  33
ENDBRANCH  28  29
ENDBRANCH  23  28
ENDBRANCH   1  24
TORSDOF 6
