REMARK  Name = ZINC10065110
REMARK  9 active torsions:
REMARK  status: ('A' for Active; 'I' for Inactive)
REMARK    1  A    between atoms: C_1  and  C_2
REMARK    2  A    between atoms: C_2  and  C_3
REMARK    3  A    between atoms: C_2  and  C_4
REMARK    4  A    between atoms: N_12  and  C_13
REMARK    5  A    between atoms: C_13  and  C_15
REMARK    6  A    between atoms: N_20  and  S_22
REMARK    7  A    between atoms: S_22  and  C_25
REMARK    8  A    between atoms: N_31  and  C_32
REMARK    9  A    between atoms: C_32  and  C_33
REMARK                            x       y       z     vdW  Elec       q    Type
REMARK                         _______ _______ _______ _____ _____    ______ ____
ROOT
ATOM      1  C   UNL     1      -1.444  -0.515   0.102  0.00  0.00    +0.243 C 
ATOM      2  O   UNL     1      -1.682  -0.038  -0.991  0.00  0.00    -0.273 OA
ENDROOT
BRANCH   1  11
ATOM      3  C   UNL     1      -7.994  -2.889   0.702  0.00  0.00    -0.044 A 
ATOM      4  C   UNL     1      -7.308  -3.415  -0.380  0.00  0.00    +0.006 A 
ATOM      5  C   UNL     1      -5.997  -3.078  -0.624  0.00  0.00    +0.027 A 
ATOM      6  C   UNL     1      -5.316  -2.186   0.219  0.00  0.00    +0.058 A 
ATOM      7  C   UNL     1      -6.037  -1.670   1.306  0.00  0.00    +0.039 A 
ATOM      8  C   UNL     1      -7.347  -2.008   1.550  0.00  0.00    +0.021 A 
ATOM      9  S   UNL     1      -4.859  -0.612   2.109  0.00  0.00    -0.052 S 
ATOM     10  C   UNL     1      -3.518  -0.869   1.041  0.00  0.00    +0.167 A 
ATOM     11  N   UNL     1      -2.298  -0.339   1.105  0.00  0.00    -0.156 NA
ATOM     12  N   UNL     1      -4.013  -1.737   0.119  0.00  0.00    -0.317 N 
BRANCH   3  14
ATOM     13  C   UNL     1     -10.283  -2.868  -0.253  0.00  0.00    +0.012 C 
ATOM     14  C   UNL     1      -9.430  -3.271   0.952  0.00  0.00    +0.013 C 
ATOM     15  C   UNL     1      -9.526  -4.784   1.161  0.00  0.00    +0.012 C 
ENDBRANCH   3  14
BRANCH  12  16
ATOM     16  C   UNL     1      -3.162  -2.200  -0.980  0.00  0.00    +0.151 C 
BRANCH  16  17
ATOM     17  C   UNL     1      -3.478  -3.642  -1.286  0.00  0.00    -0.013 C 
ATOM     18  C   UNL     1      -3.761  -4.003  -2.513  0.00  0.00    +0.005 C 
ENDBRANCH  16  17
ENDBRANCH  12  16
ENDBRANCH   1  11
BRANCH   1  19
ATOM     19  C   UNL     1      -0.180  -1.307   0.320  0.00  0.00    +0.093 C 
ATOM     20  C   UNL     1       0.723  -0.566   1.309  0.00  0.00    +0.015 C 
ATOM     21  C   UNL     1       1.992  -1.385   1.556  0.00  0.00    +0.018 C 
ATOM     22  C   UNL     1       2.753  -1.550   0.237  0.00  0.00    +0.109 C 
ATOM     23  N   UNL     1       1.846  -2.130  -0.763  0.00  0.00    -0.175 NA
ATOM     24  C   UNL     1       0.557  -1.471  -1.014  0.00  0.00    +0.122 C 
BRANCH  23  25
ATOM     25  S   UNL     1       2.269  -3.499  -1.593  0.00  0.00    +0.067 S 
ATOM     26  O   UNL     1       3.220  -4.184  -0.789  0.00  0.00    -0.152 OA
ATOM     27  O   UNL     1       1.057  -4.105  -2.021  0.00  0.00    -0.152 OA
BRANCH  25  28
ATOM     28  C   UNL     1       3.117  -2.985  -3.049  0.00  0.00    +0.144 A 
ATOM     29  C   UNL     1       4.441  -2.764  -3.232  0.00  0.00    +0.038 A 
ATOM     30  C   UNL     1       4.889  -2.365  -4.478  0.00  0.00    +0.030 A 
ATOM     31  C   UNL     1       3.987  -2.195  -5.477  0.00  0.00    +0.080 A 
ATOM     32  S   UNL     1       2.453  -2.613  -4.664  0.00  0.00    -0.057 S 
ATOM     33 CL   UNL     1       4.254  -1.700  -7.119  0.00  0.00    -0.076 Cl
ENDBRANCH  25  28
ENDBRANCH  23  25
ENDBRANCH   1  19
TORSDOF 7
