REMARK  Name = ZINC28917038
REMARK  11 active torsions:
REMARK  status: ('A' for Active; 'I' for Inactive)
REMARK    1  A    between atoms: C_1  and  C_2
REMARK    2  A    between atoms: C_6  and  N_8
REMARK    3  A    between atoms: C_9  and  C_32
REMARK    4  A    between atoms: C_10  and  C_25
REMARK    5  A    between atoms: C_11  and  C_16
REMARK    6  A    between atoms: C_20  and  N_22
REMARK    7  A    between atoms: C_25  and  O_27
REMARK    8  A    between atoms: O_27  and  C_28
REMARK    9  A    between atoms: C_28  and  C_29
REMARK   10  A    between atoms: C_29  and  O_30
REMARK   11  A    between atoms: O_30  and  C_31
REMARK                            x       y       z     vdW  Elec       q    Type
REMARK                         _______ _______ _______ _____ _____    ______ ____
ROOT
ATOM      1  N   UNL     1      -3.483   2.640   0.109  0.00  0.00    -0.255 N 
ATOM      2  C   UNL     1      -2.501   1.771  -0.274  0.00  0.00    +0.027 C 
ATOM      3  C   UNL     1      -1.208   2.160  -0.324  0.00  0.00    +0.078 C 
ATOM      4  C   UNL     1      -0.885   3.588   0.066  0.00  0.00    +0.141 C 
ATOM      5  N   UNL     1      -2.017   4.444   0.459  0.00  0.00    -0.315 N 
ATOM      6  C   UNL     1      -3.255   3.912   0.458  0.00  0.00    +0.142 C 
ATOM      7  S   UNL     1      -4.579   4.895   0.918  0.00  0.00    -0.018 S 
ATOM      8  C   UNL     1      -2.865   0.357  -0.648  0.00  0.00    +0.062 C 
ATOM      9  H   UNL     1      -1.841   5.492   0.744  0.00  0.00    +0.149 HD
ENDROOT
BRANCH   1  15
ATOM     10  C   UNL     1      -7.847   2.138  -2.102  0.00  0.00    +0.044 C 
ATOM     11  C   UNL     1      -6.940   1.916  -0.919  0.00  0.00    -0.049 A 
ATOM     12  C   UNL     1      -7.412   1.252   0.198  0.00  0.00    +0.003 A 
ATOM     13  C   UNL     1      -6.583   1.047   1.286  0.00  0.00    +0.002 A 
ATOM     14  C   UNL     1      -5.280   1.506   1.259  0.00  0.00    +0.024 A 
ATOM     15  C   UNL     1      -4.803   2.173   0.139  0.00  0.00    +0.040 A 
ATOM     16  C   UNL     1      -5.640   2.381  -0.950  0.00  0.00    +0.027 A 
ENDBRANCH   1  15
BRANCH   4  17
ATOM     17  C   UNL     1       0.092   3.548   1.212  0.00  0.00    -0.020 A 
ATOM     18  C   UNL     1      -0.341   3.199   2.478  0.00  0.00    +0.006 A 
ATOM     19  C   UNL     1       0.556   3.159   3.528  0.00  0.00    +0.003 A 
ATOM     20  C   UNL     1       1.885   3.474   3.315  0.00  0.00    +0.033 A 
ATOM     21  C   UNL     1       2.317   3.827   2.050  0.00  0.00    +0.127 A 
ATOM     22  C   UNL     1       1.421   3.864   0.999  0.00  0.00    +0.038 A 
BRANCH  21  23
ATOM     23  N   UNL     1       3.740   4.165   1.822  0.00  0.00    +0.056 N 
ATOM     24  O   UNL     1       4.104   4.564   0.730  0.00  0.00    -0.126 OA
ATOM     25  O   UNL     1       4.548   4.043   2.726  0.00  0.00    -0.126 OA
ENDBRANCH  21  23
ENDBRANCH   4  17
BRANCH   3  26
ATOM     26  C   UNL     1      -0.189   1.262  -0.720  0.00  0.00    +0.339 C 
ATOM     27  O   UNL     1       0.214   1.268  -1.868  0.00  0.00    -0.245 OA
BRANCH  26  28
ATOM     28  O   UNL     1       0.339   0.403   0.176  0.00  0.00    -0.459 OA
BRANCH  28  29
ATOM     29  C   UNL     1       1.310  -0.526  -0.310  0.00  0.00    +0.260 C 
BRANCH  29  30
ATOM     30  C   UNL     1       1.706  -1.486   0.815  0.00  0.00    +0.200 C 
BRANCH  30  31
ATOM     31  O   UNL     1       0.580  -2.291   1.171  0.00  0.00    -0.380 OA
ATOM     32  C   UNL     1       0.811  -3.149   2.290  0.00  0.00    +0.194 C 
ENDBRANCH  30  31
ENDBRANCH  29  30
ENDBRANCH  28  29
ENDBRANCH  26  28
ENDBRANCH   3  26
TORSDOF 8
