REMARK  Name = ZINC13024841
REMARK  12 active torsions:
REMARK  status: ('A' for Active; 'I' for Inactive)
REMARK    1  A    between atoms: C_1  and  C_2
REMARK    2  A    between atoms: C_2  and  C_3
REMARK    3  A    between atoms: C_3  and  C_4
REMARK    4  A    between atoms: C_3  and  C_5
REMARK    5  A    between atoms: C_3  and  N_6
REMARK    6  A    between atoms: C_7  and  C_9
REMARK    7  A    between atoms: C_9  and  C_11
REMARK    8  A    between atoms: C_9  and  N_17
REMARK    9  A    between atoms: N_17  and  C_18
REMARK   10  A    between atoms: C_18  and  C_19
REMARK   11  A    between atoms: C_28  and  C_30
REMARK   12  A    between atoms: C_30  and  N_31
REMARK                            x       y       z     vdW  Elec       q    Type
REMARK                         _______ _______ _______ _____ _____    ______ ____
ROOT
ATOM      1  N   UNL     1       1.388  -0.473  -0.307  0.00  0.00    -0.280 N 
ATOM      2  C   UNL     1       1.720  -1.214  -1.383  0.00  0.00    +0.238 C 
ATOM      3  O   UNL     1       0.882  -1.479  -2.219  0.00  0.00    -0.274 OA
ENDROOT
BRANCH   1   4
ATOM      4  C   UNL     1      -0.007  -0.080  -0.091  0.00  0.00    +0.193 C 
BRANCH   4   5
ATOM      5  C   UNL     1      -0.864  -1.314   0.029  0.00  0.00    -0.018 A 
ATOM      6  C   UNL     1      -0.442  -2.375   0.807  0.00  0.00    +0.006 A 
ATOM      7  C   UNL     1      -1.229  -3.505   0.921  0.00  0.00    +0.000 A 
ATOM      8  C   UNL     1      -2.435  -3.578   0.248  0.00  0.00    +0.000 A 
ATOM      9  C   UNL     1      -2.855  -2.518  -0.534  0.00  0.00    +0.000 A 
ATOM     10  C   UNL     1      -2.069  -1.386  -0.644  0.00  0.00    +0.006 A 
ENDBRANCH   4   5
BRANCH   4  12
ATOM     11  N   UNL     1      -1.284   1.294   1.522  0.00  0.00    -0.308 N 
ATOM     12  C   UNL     1      -0.110   0.729   1.177  0.00  0.00    +0.239 C 
ATOM     13  O   UNL     1       0.864   0.874   1.884  0.00  0.00    -0.273 OA
ATOM     14  H   UNL     1      -2.079   1.123   0.993  0.00  0.00    +0.149 HD
BRANCH  11  15
ATOM     15  C   UNL     1      -1.359   2.169   2.695  0.00  0.00    +0.029 C 
ATOM     16  C   UNL     1      -0.824   1.425   3.920  0.00  0.00    +0.031 C 
ATOM     17  C   UNL     1      -0.516   3.422   2.451  0.00  0.00    +0.031 C 
BRANCH  15  19
ATOM     18  C   UNL     1      -2.893   3.485   4.163  0.00  0.00    +0.006 C 
ATOM     19  C   UNL     1      -2.815   2.572   2.938  0.00  0.00    +0.022 C 
ENDBRANCH  15  19
ENDBRANCH  11  15
ENDBRANCH   4  12
ENDBRANCH   1   4
BRANCH   1  20
ATOM     20  C   UNL     1       2.421  -0.059   0.645  0.00  0.00    +0.144 C 
BRANCH  20  21
ATOM     21  C   UNL     1       2.915   1.318   0.284  0.00  0.00    -0.026 A 
ATOM     22  C   UNL     1       3.911   1.468  -0.663  0.00  0.00    +0.009 A 
ATOM     23  C   UNL     1       4.364   2.729  -1.001  0.00  0.00    +0.050 A 
ATOM     24  C   UNL     1       3.828   3.847  -0.383  0.00  0.00    +0.166 A 
ATOM     25  C   UNL     1       2.828   3.696   0.575  0.00  0.00    +0.167 A 
ATOM     26  C   UNL     1       2.375   2.429   0.905  0.00  0.00    +0.054 A 
ATOM     27  O   UNL     1       2.470   4.932   1.031  0.00  0.00    -0.453 OA
ATOM     28  C   UNL     1       3.542   5.811   0.642  0.00  0.00    +0.466 C 
ATOM     29  O   UNL     1       4.096   5.178  -0.527  0.00  0.00    -0.453 OA
ENDBRANCH  20  21
ENDBRANCH   1  20
BRANCH   2  30
ATOM     30  C   UNL     1       3.132  -1.715  -1.546  0.00  0.00    +0.241 C 
BRANCH  30  31
ATOM     31  N   UNL     1       3.265  -2.387  -2.841  0.00  0.00    -0.235 N 
ATOM     32  C   UNL     1       3.060  -3.722  -3.099  0.00  0.00    +0.090 A 
ATOM     33  C   UNL     1       2.679  -4.810  -2.321  0.00  0.00    +0.029 A 
ATOM     34  C   UNL     1       2.552  -6.044  -2.894  0.00  0.00    +0.002 A 
ATOM     35  C   UNL     1       2.796  -6.222  -4.250  0.00  0.00    +0.002 A 
ATOM     36  C   UNL     1       3.166  -5.170  -5.036  0.00  0.00    +0.032 A 
ATOM     37  C   UNL     1       3.303  -3.894  -4.473  0.00  0.00    +0.113 A 
ATOM     38  N   UNL     1       3.645  -2.694  -4.982  0.00  0.00    -0.129 NA
ATOM     39  N   UNL     1       3.632  -1.797  -4.059  0.00  0.00    -0.064 NA
ENDBRANCH  30  31
ENDBRANCH   2  30
TORSDOF 9
