REMARK  Name = ZINC20103472
REMARK  5 active torsions:
REMARK  status: ('A' for Active; 'I' for Inactive)
REMARK    1  A    between atoms: C_10  and  N_11
REMARK    2  A    between atoms: C_12  and  C_14
REMARK    3  A    between atoms: C_14  and  N_15
REMARK    4  A    between atoms: N_19  and  S_22
REMARK    5  A    between atoms: S_22  and  C_25
REMARK                            x       y       z     vdW  Elec       q    Type
REMARK                         _______ _______ _______ _____ _____    ______ ____
ROOT
ATOM      1  N   UNL     1      -0.119   3.783   0.448  0.00  0.00    +0.386 N 
ATOM      2  C   UNL     1      -1.062   3.023   1.228  0.00  0.00    -0.077 C 
ATOM      3  C   UNL     1      -0.610   1.547   1.332  0.00  0.00    -0.001 C 
ATOM      4  C   UNL     1       0.007   1.092  -0.014  0.00  0.00    +0.107 C 
ATOM      5  N   UNL     1      -0.674   1.530  -1.200  0.00  0.00    -0.178 NA
ATOM      6  C   UNL     1      -0.281   2.840  -1.821  0.00  0.00    +0.091 C 
ATOM      7  C   UNL     1      -0.697   3.896  -0.889  0.00  0.00    -0.061 C 
ATOM      8  H   UNL     1       0.856   3.273   0.424  0.00  0.00    -0.081 HD
ENDROOT
BRANCH   5   9
ATOM      9  S   UNL     1      -1.873   0.607  -1.873  0.00  0.00    +0.067 S 
ATOM     10  O   UNL     1      -1.946   0.972  -3.244  0.00  0.00    -0.152 OA
ATOM     11  O   UNL     1      -1.639  -0.731  -1.452  0.00  0.00    -0.152 OA
BRANCH   9  12
ATOM     12  C   UNL     1      -3.393   1.108  -1.136  0.00  0.00    +0.144 A 
ATOM     13  C   UNL     1      -4.256   2.074  -1.533  0.00  0.00    +0.037 A 
ATOM     14  C   UNL     1      -5.403   2.294  -0.793  0.00  0.00    +0.025 A 
ATOM     15  C   UNL     1      -5.625   1.543   0.314  0.00  0.00    +0.057 A 
ATOM     16  S   UNL     1      -4.191   0.480   0.333  0.00  0.00    -0.062 S 
ATOM     17 BR   UNL     1      -7.077   1.605   1.524  0.00  0.00    -0.043 Br
ENDBRANCH   9  12
ENDBRANCH   5   9
BRANCH   1  18
ATOM     18  C   UNL     1       0.105   5.109   1.039  0.00  0.00    +0.019 C 
BRANCH  18  20
ATOM     19  N   UNL     1      -1.252   7.081   1.661  0.00  0.00    -0.287 N 
ATOM     20  C   UNL     1      -1.218   5.809   1.219  0.00  0.00    +0.201 C 
ATOM     21  O   UNL     1      -2.251   5.226   0.967  0.00  0.00    -0.278 OA
ATOM     22  H   UNL     1      -0.315   7.634   1.821  0.00  0.00    +0.155 HD
BRANCH  19  32
ATOM     23  C   UNL     1      -2.900  10.446   5.044  0.00  0.00    +0.001 A 
ATOM     24  C   UNL     1      -1.667   9.841   4.807  0.00  0.00    +0.001 A 
ATOM     25  C   UNL     1      -1.510   8.944   3.794  0.00  0.00    +0.010 A 
ATOM     26  C   UNL     1      -2.605   8.618   2.978  0.00  0.00    +0.003 A 
ATOM     27  C   UNL     1      -3.858   9.237   3.215  0.00  0.00    -0.016 A 
ATOM     28  C   UNL     1      -3.982  10.158   4.270  0.00  0.00    +0.008 A 
ATOM     29  C   UNL     1      -4.953   8.916   2.396  0.00  0.00    +0.008 A 
ATOM     30  C   UNL     1      -4.804   8.021   1.381  0.00  0.00    +0.002 A 
ATOM     31  C   UNL     1      -3.577   7.410   1.136  0.00  0.00    +0.024 A 
ATOM     32  C   UNL     1      -2.478   7.699   1.916  0.00  0.00    +0.041 A 
ENDBRANCH  19  32
ENDBRANCH  18  20
ENDBRANCH   1  18
TORSDOF 5
