REMARK  Name = ZINC14797196
REMARK  8 active torsions:
REMARK  status: ('A' for Active; 'I' for Inactive)
REMARK    1  A    between atoms: C_3  and  S_29
REMARK    2  A    between atoms: C_6  and  C_7
REMARK    3  A    between atoms: C_7  and  C_8
REMARK    4  A    between atoms: C_8  and  N_9
REMARK    5  A    between atoms: C_10  and  C_12
REMARK    6  A    between atoms: N_15  and  S_18
REMARK    7  A    between atoms: S_18  and  C_21
REMARK    8  A    between atoms: S_29  and  N_32
REMARK                            x       y       z     vdW  Elec       q    Type
REMARK                         _______ _______ _______ _____ _____    ______ ____
ROOT
ATOM      1  N   UNL     1       1.137   5.560   1.463  0.00  0.00    -0.315 N 
ATOM      2  C   UNL     1       1.139   6.228   2.633  0.00  0.00    +0.216 C 
ATOM      3  O   UNL     1       1.157   5.616   3.680  0.00  0.00    -0.276 OA
ATOM      4  H   UNL     1       1.123   6.049   0.625  0.00  0.00    +0.149 HD
ENDROOT
BRANCH   2   5
ATOM      5  C   UNL     1       1.119   7.735   2.641  0.00  0.00    +0.077 C 
ATOM      6  C   UNL     1       2.353   8.265   1.909  0.00  0.00    +0.030 C 
ATOM      7  C   UNL     1       2.312   9.796   1.889  0.00  0.00    +0.110 C 
ATOM      8  N   UNL     1       2.172  10.284   3.268  0.00  0.00    -0.176 NA
ATOM      9  C   UNL     1       1.069   9.768   4.091  0.00  0.00    +0.110 C 
ATOM     10  C   UNL     1       1.125   8.237   4.087  0.00  0.00    +0.030 C 
BRANCH   8  11
ATOM     11  S   UNL     1       3.236  11.394   3.882  0.00  0.00    +0.064 S 
ATOM     12  O   UNL     1       3.785  12.088   2.771  0.00  0.00    -0.153 OA
ATOM     13  O   UNL     1       2.561  12.061   4.940  0.00  0.00    -0.153 OA
BRANCH  11  14
ATOM     14  C   UNL     1       4.560  10.494   4.618  0.00  0.00    +0.143 A 
ATOM     15  C   UNL     1       5.834  10.584   4.090  0.00  0.00    +0.069 A 
ATOM     16  C   UNL     1       6.875   9.880   4.670  0.00  0.00    +0.125 A 
ATOM     17  C   UNL     1       6.639   9.079   5.775  0.00  0.00    +0.041 A 
ATOM     18  C   UNL     1       5.364   8.986   6.300  0.00  0.00    +0.043 A 
ATOM     19  C   UNL     1       4.324   9.693   5.722  0.00  0.00    +0.150 A 
ATOM     20  F   UNL     1       3.077   9.602   6.236  0.00  0.00    -0.203 F 
ATOM     21  F   UNL     1       8.121   9.971   4.157  0.00  0.00    -0.205 F 
ENDBRANCH  11  14
ENDBRANCH   8  11
ENDBRANCH   2   5
BRANCH   1  22
ATOM     22  C   UNL     1       1.157   4.095   1.455  0.00  0.00    +0.109 C 
BRANCH  22  23
ATOM     23  C   UNL     1       1.151   3.592   0.010  0.00  0.00    +0.054 C 
BRANCH  23  29
ATOM     24  C   UNL     1      -0.017   1.378   0.010  0.00  0.00    +0.005 A 
ATOM     25  C   UNL     1       0.002  -0.004   0.002  0.00  0.00    +0.029 A 
ATOM     26  C   UNL     1       1.208  -0.679  -0.013  0.00  0.00    +0.105 A 
ATOM     27  C   UNL     1       2.396   0.029  -0.021  0.00  0.00    +0.029 A 
ATOM     28  C   UNL     1       2.377   1.411  -0.015  0.00  0.00    +0.005 A 
ATOM     29  C   UNL     1       1.171   2.086   0.002  0.00  0.00    -0.046 A 
BRANCH  26  30
ATOM     30  S   UNL     1       1.232  -2.441  -0.022  0.00  0.00    +0.056 S 
ATOM     31  O   UNL     1       2.489  -2.832   0.515  0.00  0.00    -0.153 OA
ATOM     32  O   UNL     1      -0.002  -2.866   0.539  0.00  0.00    -0.153 OA
BRANCH  30  33
ATOM     33  N   UNL     1       1.223  -2.923  -1.606  0.00  0.00    -0.204 NA
ATOM     34  H   UNL     1       1.652  -3.754  -1.862  0.00  0.00    +0.144 HD
ATOM     35  H   UNL     1       0.789  -2.374  -2.277  0.00  0.00    +0.144 HD
ENDBRANCH  30  33
ENDBRANCH  26  30
ENDBRANCH  23  29
ENDBRANCH  22  23
ENDBRANCH   1  22
TORSDOF 8
