REMARK  Name = ZINC15545982
REMARK  5 active torsions:
REMARK  status: ('A' for Active; 'I' for Inactive)
REMARK    1  A    between atoms: C_4  and  N_11
REMARK    2  A    between atoms: C_5  and  C_7
REMARK    3  A    between atoms: C_12  and  C_14
REMARK    4  A    between atoms: C_14  and  N_15
REMARK    5  A    between atoms: C_17  and  C_26
REMARK                            x       y       z     vdW  Elec       q    Type
REMARK                         _______ _______ _______ _____ _____    ______ ____
ROOT
ATOM      1  N   UNL     1       5.814   2.930   0.041  0.00  0.00    -0.314 N 
ATOM      2  C   UNL     1       5.811   2.031   1.201  0.00  0.00    +0.160 C 
ATOM      3  C   UNL     1       7.087   1.179   1.164  0.00  0.00    +0.276 C 
ATOM      4  O   UNL     1       7.043   0.372  -0.018  0.00  0.00    -0.476 OA
ATOM      5  C   UNL     1       6.673   0.996  -1.170  0.00  0.00    +0.143 A 
ATOM      6  C   UNL     1       6.067   2.247  -1.153  0.00  0.00    +0.073 A 
ATOM      7  C   UNL     1       5.698   2.846  -2.353  0.00  0.00    +0.027 A 
ATOM      8  C   UNL     1       5.935   2.205  -3.553  0.00  0.00    +0.002 A 
ATOM      9  C   UNL     1       6.541   0.963  -3.567  0.00  0.00    +0.004 A 
ATOM     10  C   UNL     1       6.910   0.359  -2.379  0.00  0.00    +0.047 A 
ENDROOT
BRANCH   3  11
ATOM     11  C   UNL     1       7.148   0.296   2.383  0.00  0.00    +0.258 C 
ATOM     12  O   UNL     1       6.966  -0.899   2.276  0.00  0.00    -0.271 OA
ATOM     13  N   UNL     1       7.404   0.832   3.592  0.00  0.00    -0.298 N 
ATOM     14  C   UNL     1       7.523   2.288   3.756  0.00  0.00    +0.108 C 
ATOM     15  C   UNL     1       6.560   2.735   4.867  0.00  0.00    +0.019 C 
ATOM     16  C   UNL     1       6.851   1.934   6.138  0.00  0.00    +0.003 C 
ATOM     17  C   UNL     1       6.619   0.446   5.870  0.00  0.00    +0.019 C 
ATOM     18  C   UNL     1       7.576  -0.027   4.772  0.00  0.00    +0.108 C 
ENDBRANCH   3  11
BRANCH   1  19
ATOM     19  C   UNL     1       4.558   3.687  -0.041  0.00  0.00    +0.201 C 
BRANCH  19  21
ATOM     20  N   UNL     1       2.139   3.191  -0.189  0.00  0.00    -0.284 N 
ATOM     21  C   UNL     1       3.406   2.732  -0.218  0.00  0.00    +0.235 C 
ATOM     22  O   UNL     1       3.619   1.550  -0.388  0.00  0.00    -0.274 OA
ATOM     23  H   UNL     1       1.970   4.144  -0.118  0.00  0.00    +0.155 HD
BRANCH  20  27
ATOM     24  C   UNL     1      -1.052   0.522  -0.403  0.00  0.00    +0.001 A 
ATOM     25  C   UNL     1       0.146   0.216  -1.022  0.00  0.00    +0.002 A 
ATOM     26  C   UNL     1       1.206   1.099  -0.955  0.00  0.00    +0.024 A 
ATOM     27  C   UNL     1       1.068   2.294  -0.260  0.00  0.00    +0.045 A 
ATOM     28  C   UNL     1      -0.135   2.596   0.365  0.00  0.00    +0.076 A 
ATOM     29  C   UNL     1      -1.190   1.708   0.294  0.00  0.00    +0.014 A 
BRANCH  28  30
ATOM     30  C   UNL     1      -0.288   3.891   1.121  0.00  0.00    +0.419 C 
ATOM     31  F   UNL     1      -1.578   3.967   1.658  0.00  0.00    -0.166 F 
ATOM     32  F   UNL     1       0.652   3.941   2.156  0.00  0.00    -0.166 F 
ATOM     33  F   UNL     1      -0.081   4.966   0.250  0.00  0.00    -0.166 F 
ENDBRANCH  28  30
ENDBRANCH  20  27
ENDBRANCH  19  21
ENDBRANCH   1  19
TORSDOF 5
