REMARK  Name = ZINC13123610
REMARK  5 active torsions:
REMARK  status: ('A' for Active; 'I' for Inactive)
REMARK    1  A    between atoms: C_1  and  C_2
REMARK    2  A    between atoms: C_7  and  C_8
REMARK    3  A    between atoms: C_11  and  C_19
REMARK    4  A    between atoms: C_24  and  O_25
REMARK    5  A    between atoms: O_25  and  C_26
REMARK                            x       y       z     vdW  Elec       q    Type
REMARK                         _______ _______ _______ _____ _____    ______ ____
ROOT
ATOM      1  C   UNL     1       0.243   0.048   2.493  0.00  0.00    +0.143 C 
ATOM      2  C   UNL     1      -0.841  -0.438   3.462  0.00  0.00    +0.059 C 
ATOM      3  C   UNL     1      -0.563   0.110   4.867  0.00  0.00    +0.109 C 
ATOM      4  N   UNL     1       0.730  -0.426   5.334  0.00  0.00    -0.307 N 
ATOM      5  C   UNL     1       1.765  -0.425   4.408  0.00  0.00    +0.215 A 
ATOM      6  N   UNL     1       1.556  -0.202   3.086  0.00  0.00    -0.226 N 
ATOM      7  N   UNL     1       2.806  -0.267   2.468  0.00  0.00    -0.156 NA
ATOM      8  C   UNL     1       3.681  -0.517   3.410  0.00  0.00    +0.247 A 
ATOM      9  N   UNL     1       3.044  -0.616   4.588  0.00  0.00    -0.202 NA
ATOM     10  H   UNL     1       0.851  -0.760   6.237  0.00  0.00    +0.150 HD
ENDROOT
BRANCH   1  17
ATOM     11  C   UNL     1      -0.474   1.459   0.076  0.00  0.00    +0.044 C 
ATOM     12  C   UNL     1      -0.216  -0.025   0.033  0.00  0.00    -0.045 A 
ATOM     13  C   UNL     1      -0.317  -0.710  -1.163  0.00  0.00    +0.004 A 
ATOM     14  C   UNL     1      -0.080  -2.071  -1.202  0.00  0.00    +0.000 A 
ATOM     15  C   UNL     1       0.258  -2.748  -0.045  0.00  0.00    +0.000 A 
ATOM     16  C   UNL     1       0.359  -2.062   1.151  0.00  0.00    +0.006 A 
ATOM     17  C   UNL     1       0.127  -0.700   1.190  0.00  0.00    -0.020 A 
ENDBRANCH   1  17
BRANCH   3  18
ATOM     18  C   UNL     1      -0.504   1.615   4.820  0.00  0.00    +0.015 A 
ATOM     19  C   UNL     1       0.713   2.255   4.684  0.00  0.00    +0.009 A 
ATOM     20  C   UNL     1       0.767   3.636   4.642  0.00  0.00    +0.001 A 
ATOM     21  C   UNL     1      -0.395   4.380   4.735  0.00  0.00    +0.004 A 
ATOM     22  C   UNL     1      -1.613   3.744   4.871  0.00  0.00    +0.046 A 
ATOM     23  C   UNL     1      -1.672   2.358   4.908  0.00  0.00    +0.132 A 
BRANCH  23  24
ATOM     24  O   UNL     1      -2.870   1.731   5.036  0.00  0.00    -0.434 OA
BRANCH  24  25
ATOM     25  C   UNL     1      -4.031   2.560   5.121  0.00  0.00    +0.541 C 
ATOM     26  F   UNL     1      -3.925   3.398   6.236  0.00  0.00    -0.166 F 
ATOM     27  F   UNL     1      -4.135   3.337   3.962  0.00  0.00    -0.166 F 
ENDBRANCH  24  25
ENDBRANCH  23  24
ENDBRANCH   3  18
TORSDOF 4
