REMARK  Name = ZINC08924529
REMARK  5 active torsions:
REMARK  status: ('A' for Active; 'I' for Inactive)
REMARK    1  A    between atoms: N_13  and  C_17
REMARK    2  A    between atoms: C_17  and  C_18
REMARK    3  A    between atoms: N_20  and  C_21
REMARK    4  A    between atoms: N_20  and  C_27
REMARK    5  A    between atoms: C_21  and  C_22
REMARK                            x       y       z     vdW  Elec       q    Type
REMARK                         _______ _______ _______ _____ _____    ______ ____
ROOT
ATOM      1  C   UNL     1       0.777   2.310   1.220  0.00  0.00    +0.000 A 
ATOM      2  C   UNL     1       2.006   2.881   0.947  0.00  0.00    +0.000 A 
ATOM      3  C   UNL     1       3.111   2.076   0.764  0.00  0.00    +0.006 A 
ATOM      4  C   UNL     1       2.999   0.694   0.851  0.00  0.00    -0.012 A 
ATOM      5  C   UNL     1       1.775   0.125   1.127  0.00  0.00    -0.042 A 
ATOM      6  C   UNL     1       0.664   0.938   1.308  0.00  0.00    +0.004 A 
ATOM      7  C   UNL     1       1.586  -1.364   1.251  0.00  0.00    +0.035 C 
ATOM      8  C   UNL     1       2.748  -2.113   0.603  0.00  0.00    +0.008 C 
ATOM      9  C   UNL     1       4.062  -1.549   1.159  0.00  0.00    +0.040 C 
ATOM     10  C   UNL     1       4.237  -0.130   0.633  0.00  0.00    +0.138 C 
ATOM     11  C   UNL     1       4.595  -0.157  -0.836  0.00  0.00    +0.251 C 
ATOM     12  O   UNL     1       3.927  -0.600  -1.746  0.00  0.00    -0.272 OA
ATOM     13  N   UNL     1       5.813   0.416  -0.922  0.00  0.00    -0.215 N 
ATOM     14  C   UNL     1       6.265   0.796   0.280  0.00  0.00    +0.310 C 
ATOM     15  O   UNL     1       7.339   1.336   0.458  0.00  0.00    -0.252 OA
ATOM     16  N   UNL     1       5.396   0.512   1.268  0.00  0.00    -0.281 N 
ATOM     17  H   UNL     1       5.512   0.696   2.214  0.00  0.00    +0.152 HD
ENDROOT
BRANCH  13  18
ATOM     18  C   UNL     1       6.550   0.601  -2.174  0.00  0.00    +0.214 C 
BRANCH  18  19
ATOM     19  C   UNL     1       6.192   1.936  -2.775  0.00  0.00    +0.238 C 
ATOM     20  O   UNL     1       5.400   2.662  -2.213  0.00  0.00    -0.274 OA
ATOM     21  N   UNL     1       6.753   2.324  -3.938  0.00  0.00    -0.267 N 
BRANCH  21  22
ATOM     22  C   UNL     1       6.348   3.509  -4.545  0.00  0.00    +0.010 C 
ATOM     23  C   UNL     1       5.108   3.603  -4.939  0.00  0.00    -0.008 C 
ATOM     24  C   UNL     1       4.532   4.815  -5.611  0.00  0.00    +0.029 C 
ATOM     25  C   UNL     1       5.445   6.024  -5.394  0.00  0.00    +0.004 C 
ATOM     26  C   UNL     1       6.881   5.617  -5.748  0.00  0.00    +0.006 C 
ATOM     27  C   UNL     1       7.366   4.599  -4.713  0.00  0.00    +0.051 C 
ENDBRANCH  21  22
BRANCH  21  28
ATOM     28  C   UNL     1       7.789   1.497  -4.563  0.00  0.00    +0.187 C 
BRANCH  28  29
ATOM     29  C   UNL     1       7.157   0.581  -5.579  0.00  0.00    +0.122 A 
ATOM     30  C   UNL     1       6.962   0.864  -6.879  0.00  0.00    +0.046 A 
ATOM     31  C   UNL     1       6.346  -0.270  -7.457  0.00  0.00    +0.041 A 
ATOM     32  C   UNL     1       6.194  -1.174  -6.473  0.00  0.00    +0.195 A 
ATOM     33  O   UNL     1       6.686  -0.653  -5.338  0.00  0.00    -0.466 OA
ENDBRANCH  28  29
ENDBRANCH  21  28
ENDBRANCH  18  19
ENDBRANCH  13  18
TORSDOF 5
