REMARK  Name = ZINC01573367
REMARK  7 active torsions:
REMARK  status: ('A' for Active; 'I' for Inactive)
REMARK    1  A    between atoms: C_1  and  C_2
REMARK    2  A    between atoms: C_4  and  C_13
REMARK    3  A    between atoms: N_6  and  C_7
REMARK    4  A    between atoms: C_15  and  C_34
REMARK    5  A    between atoms: C_18  and  C_22
REMARK    6  A    between atoms: C_31  and  O_32
REMARK    7  A    between atoms: O_32  and  C_33
REMARK                            x       y       z     vdW  Elec       q    Type
REMARK                         _______ _______ _______ _____ _____    ______ ____
ROOT
ATOM      1  C   UNL     1       1.617   8.283   0.535  0.00  0.00    +0.137 C 
ATOM      2  C   UNL     1       2.641   7.758   1.543  0.00  0.00    +0.061 C 
ATOM      3  C   UNL     1       2.729   6.258   1.434  0.00  0.00    +0.006 C 
ATOM      4  C   UNL     1       2.587   5.657   0.253  0.00  0.00    +0.041 C 
ATOM      5  N   UNL     1       2.342   6.403  -0.902  0.00  0.00    -0.285 N 
ATOM      6  C   UNL     1       1.878   7.665  -0.814  0.00  0.00    +0.227 C 
ATOM      7  O   UNL     1       1.671   8.304  -1.823  0.00  0.00    -0.275 OA
ATOM      8  H   UNL     1       2.507   6.010  -1.773  0.00  0.00    +0.155 HD
ENDROOT
BRANCH   4   9
ATOM      9  C   UNL     1       2.682   4.185   0.166  0.00  0.00    +0.045 A 
ATOM     10  C   UNL     1       3.771   3.577  -0.505  0.00  0.00    -0.005 A 
ATOM     11  C   UNL     1       4.781   4.348  -1.099  0.00  0.00    +0.009 A 
ATOM     12  C   UNL     1       5.814   3.731  -1.736  0.00  0.00    +0.001 A 
ATOM     13  C   UNL     1       5.887   2.341  -1.803  0.00  0.00    +0.001 A 
ATOM     14  C   UNL     1       4.922   1.562  -1.242  0.00  0.00    +0.008 A 
ATOM     15  C   UNL     1       3.841   2.165  -0.576  0.00  0.00    -0.017 A 
ATOM     16  C   UNL     1       2.830   1.388   0.019  0.00  0.00    +0.012 A 
ATOM     17  C   UNL     1       1.792   1.991   0.659  0.00  0.00    +0.047 A 
ATOM     18  C   UNL     1       1.705   3.382   0.741  0.00  0.00    +0.130 A 
BRANCH  18  19
ATOM     19  O   UNL     1       0.657   3.954   1.387  0.00  0.00    -0.494 OA
ATOM     20  C   UNL     1      -0.314   3.074   1.956  0.00  0.00    +0.277 C 
ENDBRANCH  18  19
ENDBRANCH   4   9
BRANCH   1  24
ATOM     21  C   UNL     1      -2.697   5.685   1.300  0.00  0.00    +0.066 C 
ATOM     22  C   UNL     1      -1.650   6.769   1.319  0.00  0.00    +0.042 A 
ATOM     23  C   UNL     1      -0.427   6.708   0.742  0.00  0.00    +0.049 A 
ATOM     24  C   UNL     1       0.229   7.918   0.994  0.00  0.00    +0.076 A 
ATOM     25  N   UNL     1      -0.569   8.677   1.701  0.00  0.00    -0.170 NA
ATOM     26  N   UNL     1      -1.764   7.977   1.916  0.00  0.00    -0.237 N 
BRANCH  26  27
ATOM     27  C   UNL     1      -2.877   8.444   2.627  0.00  0.00    +0.066 A 
ATOM     28  C   UNL     1      -3.311   9.752   2.459  0.00  0.00    +0.028 A 
ATOM     29  C   UNL     1      -4.413  10.208   3.158  0.00  0.00    +0.002 A 
ATOM     30  C   UNL     1      -5.076   9.366   4.032  0.00  0.00    +0.000 A 
ATOM     31  C   UNL     1      -4.642   8.065   4.205  0.00  0.00    +0.002 A 
ATOM     32  C   UNL     1      -3.545   7.602   3.506  0.00  0.00    +0.028 A 
ENDBRANCH  26  27
ENDBRANCH   1  24
BRANCH   2  33
ATOM     33  C   UNL     1       3.989   8.367   1.252  0.00  0.00    -0.039 A 
ATOM     34  C   UNL     1       4.593   8.156   0.028  0.00  0.00    +0.004 A 
ATOM     35  C   UNL     1       5.827   8.718  -0.240  0.00  0.00    +0.000 A 
ATOM     36  C   UNL     1       6.461   9.485   0.720  0.00  0.00    +0.000 A 
ATOM     37  C   UNL     1       5.858   9.693   1.947  0.00  0.00    +0.000 A 
ATOM     38  C   UNL     1       4.622   9.133   2.213  0.00  0.00    +0.004 A 
ENDBRANCH   2  33
TORSDOF 5
