REMARK  Name = ZINC34787395
REMARK  5 active torsions:
REMARK  status: ('A' for Active; 'I' for Inactive)
REMARK    1  A    between atoms: C_4  and  C_7
REMARK    2  A    between atoms: N_16  and  C_17
REMARK    3  A    between atoms: C_17  and  C_18
REMARK    4  A    between atoms: C_27  and  C_29
REMARK    5  A    between atoms: C_32  and  C_35
REMARK                            x       y       z     vdW  Elec       q    Type
REMARK                         _______ _______ _______ _____ _____    ______ ____
ROOT
ATOM      1  C   UNL     1       3.537  -2.529  -3.116  0.00  0.00    +0.199 C 
ATOM      2  O   UNL     1       3.652  -3.634  -2.631  0.00  0.00    -0.278 OA
ATOM      3  N   UNL     1       3.212  -2.394  -4.417  0.00  0.00    -0.301 N 
ATOM      4  C   UNL     1       2.991  -3.526  -5.247  0.00  0.00    +0.109 C 
ATOM      5  C   UNL     1       4.289  -4.151  -5.855  0.00  0.00    +0.038 C 
ATOM      6  C   UNL     1       5.247  -2.970  -6.219  0.00  0.00    +0.109 C 
ATOM      7  N   UNL     1       4.596  -1.819  -6.741  0.00  0.00    -0.296 N 
ATOM      8  C   UNL     1       4.283  -0.728  -5.783  0.00  0.00    +0.127 C 
ATOM      9  C   UNL     1       3.063  -1.056  -5.045  0.00  0.00    +0.126 C 
ATOM     10  C   UNL     1       4.278  -1.722  -8.047  0.00  0.00    +0.247 C 
ATOM     11  O   UNL     1       4.549  -2.631  -8.808  0.00  0.00    -0.270 OA
ENDROOT
BRANCH  10  12
ATOM     12  C   UNL     1       3.600  -0.511  -8.555  0.00  0.00    +0.037 A 
ATOM     13  C   UNL     1       3.807  -0.091  -9.870  0.00  0.00    +0.013 A 
ATOM     14  C   UNL     1       3.171   1.040 -10.338  0.00  0.00    +0.013 A 
ATOM     15  C   UNL     1       2.330   1.759  -9.506  0.00  0.00    +0.055 A 
ATOM     16  C   UNL     1       2.122   1.349  -8.201  0.00  0.00    +0.013 A 
ATOM     17  C   UNL     1       2.747   0.215  -7.723  0.00  0.00    +0.013 A 
BRANCH  15  18
ATOM     18  C   UNL     1       1.639   2.994 -10.024  0.00  0.00    +0.417 C 
ATOM     19  F   UNL     1       0.405   2.640 -10.579  0.00  0.00    -0.166 F 
ATOM     20  F   UNL     1       1.436   3.891  -8.970  0.00  0.00    -0.166 F 
ATOM     21  F   UNL     1       2.435   3.598 -11.003  0.00  0.00    -0.166 F 
ENDBRANCH  15  18
ENDBRANCH  10  12
BRANCH   1  22
ATOM     22  C   UNL     1       3.758  -1.305  -2.264  0.00  0.00    +0.020 C 
BRANCH  22  31
ATOM     23  C   UNL     1       4.195  -0.525  -0.043  0.00  0.00    -0.005 C 
ATOM     24  C   UNL     1       4.649  -0.951   1.350  0.00  0.00    -0.047 A 
ATOM     25  C   UNL     1       4.479  -0.177   2.495  0.00  0.00    +0.010 A 
ATOM     26  C   UNL     1       4.912  -0.637   3.693  0.00  0.00    +0.045 A 
ATOM     27  S   UNL     1       5.600  -2.227   3.251  0.00  0.00    -0.101 S 
ATOM     28  C   UNL     1       5.262  -2.157   1.516  0.00  0.00    -0.010 A 
ATOM     29  C   UNL     1       5.559  -3.155   0.445  0.00  0.00    +0.024 C 
ATOM     30  C   UNL     1       5.371  -2.451  -0.910  0.00  0.00    -0.072 C 
ATOM     31  N   UNL     1       4.098  -1.717  -0.895  0.00  0.00    +0.393 N 
ATOM     32  H   UNL     1       3.372  -2.321  -0.541  0.00  0.00    -0.080 HD
BRANCH  23  36
ATOM     33  C   UNL     1       0.372   1.365   0.210  0.00  0.00    +0.000 A 
ATOM     34  C   UNL     1       1.518   2.132   0.105  0.00  0.00    +0.000 A 
ATOM     35  C   UNL     1       2.754   1.521   0.024  0.00  0.00    +0.002 A 
ATOM     36  C   UNL     1       2.846   0.141   0.047  0.00  0.00    -0.057 A 
ATOM     37  C   UNL     1       1.701  -0.626   0.153  0.00  0.00    +0.002 A 
ATOM     38  C   UNL     1       0.464  -0.014   0.233  0.00  0.00    +0.000 A 
ENDBRANCH  23  36
ENDBRANCH  22  31
ENDBRANCH   1  22
TORSDOF 5
