REMARK  Name = ZINC09421627
REMARK  11 active torsions:
REMARK  status: ('A' for Active; 'I' for Inactive)
REMARK    1  A    between atoms: C_1  and  C_2
REMARK    2  A    between atoms: C_2  and  C_3
REMARK    3  A    between atoms: C_4  and  C_17
REMARK    4  A    between atoms: N_6  and  C_9
REMARK    5  A    between atoms: C_12  and  O_15
REMARK    6  A    between atoms: O_15  and  C_16
REMARK    7  A    between atoms: N_23  and  C_24
REMARK    8  A    between atoms: C_26  and  C_31
REMARK    9  A    between atoms: C_26  and  C_32
REMARK   10  A    between atoms: C_27  and  C_29
REMARK   11  A    between atoms: C_27  and  C_30
REMARK                            x       y       z     vdW  Elec       q    Type
REMARK                         _______ _______ _______ _____ _____    ______ ____
ROOT
ATOM      1  C   UNL     1      -1.309   6.208   0.159  0.00  0.00    +0.171 C 
ATOM      2  C   UNL     1      -0.216   5.403   0.740  0.00  0.00    +0.084 C 
ATOM      3  N   UNL     1       0.813   6.197   0.888  0.00  0.00    -0.175 NA
ATOM      4  N   UNL     1       0.497   7.481   0.439  0.00  0.00    -0.160 N 
ATOM      5  C   UNL     1      -0.775   7.517  -0.002  0.00  0.00    +0.254 C 
ATOM      6  O   UNL     1      -1.359   8.488  -0.453  0.00  0.00    -0.272 OA
ENDROOT
BRANCH   4   7
ATOM      7  C   UNL     1       1.375   8.574   0.451  0.00  0.00    +0.060 A 
ATOM      8  C   UNL     1       0.952   9.810  -0.021  0.00  0.00    +0.029 A 
ATOM      9  C   UNL     1       1.814  10.887  -0.004  0.00  0.00    +0.047 A 
ATOM     10  C   UNL     1       3.107  10.733   0.475  0.00  0.00    +0.120 A 
ATOM     11  C   UNL     1       3.533   9.498   0.942  0.00  0.00    +0.047 A 
ATOM     12  C   UNL     1       2.669   8.421   0.930  0.00  0.00    +0.029 A 
BRANCH  10  13
ATOM     13  O   UNL     1       3.958  11.794   0.486  0.00  0.00    -0.495 OA
ATOM     14  C   UNL     1       3.454  13.036  -0.009  0.00  0.00    +0.277 C 
ENDBRANCH  10  13
ENDBRANCH   4   7
BRANCH   2  15
ATOM     15  C   UNL     1      -0.275   3.966   1.095  0.00  0.00    -0.001 A 
ATOM     16  C   UNL     1      -1.150   3.525   2.088  0.00  0.00    +0.010 A 
ATOM     17  C   UNL     1      -1.202   2.185   2.414  0.00  0.00    +0.001 A 
ATOM     18  C   UNL     1      -0.387   1.280   1.758  0.00  0.00    +0.000 A 
ATOM     19  C   UNL     1       0.487   1.711   0.777  0.00  0.00    +0.001 A 
ATOM     20  C   UNL     1       0.543   3.047   0.438  0.00  0.00    +0.010 A 
ENDBRANCH   2  15
BRANCH   1  22
ATOM     21  C   UNL     1      -2.928   4.316  -0.084  0.00  0.00    +0.061 C 
ATOM     22  C   UNL     1      -2.583   5.780  -0.161  0.00  0.00    +0.029 C 
ATOM     23  N   UNL     1      -3.519   6.675  -0.543  0.00  0.00    -0.288 NA
BRANCH  23  24
ATOM     24  C   UNL     1      -4.873   6.220  -0.884  0.00  0.00    +0.103 C 
ATOM     25  C   UNL     1      -4.907   5.796  -2.352  0.00  0.00    +0.014 C 
ATOM     26  C   UNL     1      -6.311   5.337  -2.739  0.00  0.00    -0.071 C 
ATOM     27  C   UNL     1      -7.271   6.937  -1.058  0.00  0.00    -0.071 C 
ATOM     28  C   UNL     1      -5.855   7.374  -0.688  0.00  0.00    +0.014 C 
ATOM     29  C   UNL     1      -7.839   6.048   0.055  0.00  0.00    -0.010 C 
ATOM     30  C   UNL     1      -8.148   8.207  -1.121  0.00  0.00    -0.010 C 
ATOM     31  C   UNL     1      -6.575   3.945  -2.153  0.00  0.00    -0.010 C 
ATOM     32  C   UNL     1      -6.348   5.200  -4.277  0.00  0.00    -0.010 C 
ATOM     33  N   UNL     1      -7.399   6.290  -2.391  0.00  0.00    +0.386 N 
ATOM     34  H   UNL     1      -8.289   5.777  -2.411  0.00  0.00    -0.084 HD
ATOM     35  H   UNL     1      -7.415   7.029  -3.103  0.00  0.00    -0.084 HD
ENDBRANCH  23  24
ENDBRANCH   1  22
TORSDOF 5
