REMARK  Name = ZINC08650864
REMARK  10 active torsions:
REMARK  status: ('A' for Active; 'I' for Inactive)
REMARK    1  A    between atoms: C_1  and  C_2
REMARK    2  A    between atoms: C_5  and  S_8
REMARK    3  A    between atoms: S_8  and  N_11
REMARK    4  A    between atoms: N_11  and  C_12
REMARK    5  A    between atoms: N_11  and  C_13
REMARK    6  A    between atoms: C_13  and  C_14
REMARK    7  A    between atoms: C_14  and  O_16
REMARK    8  A    between atoms: O_16  and  C_17
REMARK    9  A    between atoms: C_17  and  C_18
REMARK   10  A    between atoms: N_20  and  C_21
REMARK                            x       y       z     vdW  Elec       q    Type
REMARK                         _______ _______ _______ _____ _____    ______ ____
ROOT
ATOM      1  C   UNL     1      -3.240   1.249  -1.305  0.00  0.00    +0.323 C 
ATOM      2  O   UNL     1      -3.373   2.133  -0.492  0.00  0.00    -0.249 OA
ENDROOT
BRANCH   1   3
ATOM      3  C   UNL     1      -1.875   0.942  -1.866  0.00  0.00    +0.229 C 
BRANCH   3   4
ATOM      4  N   UNL     1      -0.888   1.846  -1.273  0.00  0.00    -0.169 NA
ATOM      5  C   UNL     1      -0.671   3.175  -1.850  0.00  0.00    +0.132 C 
BRANCH   4   6
ATOM      6  S   UNL     1      -0.016   1.367   0.051  0.00  0.00    +0.061 S 
ATOM      7  O   UNL     1      -0.005  -0.054   0.037  0.00  0.00    -0.153 OA
ATOM      8  O   UNL     1       1.177   2.138   0.053  0.00  0.00    -0.153 OA
BRANCH   6  13
ATOM      9  C   UNL     1      -3.143   3.017   4.940  0.00  0.00    +0.044 C 
ATOM     10  C   UNL     1      -2.362   2.605   3.719  0.00  0.00    -0.050 A 
ATOM     11  C   UNL     1      -2.572   1.363   3.151  0.00  0.00    +0.005 A 
ATOM     12  C   UNL     1      -1.856   0.984   2.031  0.00  0.00    +0.029 A 
ATOM     13  C   UNL     1      -0.929   1.849   1.479  0.00  0.00    +0.105 A 
ATOM     14  C   UNL     1      -0.716   3.090   2.050  0.00  0.00    +0.029 A 
ATOM     15  C   UNL     1      -1.435   3.470   3.167  0.00  0.00    +0.005 A 
ENDBRANCH   6  13
ENDBRANCH   4   6
ENDBRANCH   3   4
ENDBRANCH   1   3
BRANCH   1  16
ATOM     16  O   UNL     1      -4.306   0.541  -1.708  0.00  0.00    -0.454 OA
BRANCH  16  17
ATOM     17  C   UNL     1      -5.589   0.892  -1.125  0.00  0.00    +0.328 C 
BRANCH  17  18
ATOM     18  C   UNL     1      -6.661  -0.003  -1.692  0.00  0.00    +0.255 C 
ATOM     19  O   UNL     1      -6.372  -0.853  -2.507  0.00  0.00    -0.272 OA
ATOM     20  N   UNL     1      -7.940   0.141  -1.294  0.00  0.00    -0.280 N 
ATOM     21  H   UNL     1      -8.162   0.777  -0.595  0.00  0.00    +0.155 HD
BRANCH  20  22
ATOM     22  C   UNL     1      -8.950  -0.626  -1.888  0.00  0.00    +0.069 A 
ATOM     23  C   UNL     1      -8.687  -1.928  -2.292  0.00  0.00    +0.027 A 
ATOM     24  C   UNL     1      -9.684  -2.683  -2.879  0.00  0.00    +0.017 A 
ATOM     25  C   UNL     1     -10.945  -2.143  -3.063  0.00  0.00    +0.021 A 
ATOM     26  C   UNL     1     -11.212  -0.847  -2.662  0.00  0.00    +0.055 A 
ATOM     27  C   UNL     1     -10.219  -0.087  -2.070  0.00  0.00    +0.146 A 
ATOM     28  F   UNL     1     -10.480   1.177  -1.672  0.00  0.00    -0.204 F 
ATOM     29 BR   UNL     1     -12.307  -3.181  -3.867  0.00  0.00    -0.050 Br
ENDBRANCH  20  22
ENDBRANCH  17  18
ENDBRANCH  16  17
ENDBRANCH   1  16
TORSDOF 8
