REMARK  Name = ZINC14382894
REMARK  7 active torsions:
REMARK  status: ('A' for Active; 'I' for Inactive)
REMARK    1  A    between atoms: C_4  and  C_7
REMARK    2  A    between atoms: C_7  and  N_8
REMARK    3  A    between atoms: C_9  and  N_39
REMARK    4  A    between atoms: C_10  and  N_17
REMARK    5  A    between atoms: N_17  and  C_18
REMARK    6  A    between atoms: C_18  and  C_19
REMARK    7  A    between atoms: C_25  and  C_27
REMARK                            x       y       z     vdW  Elec       q    Type
REMARK                         _______ _______ _______ _____ _____    ______ ____
ROOT
ATOM      1  N   UNL     1       5.831   0.798   4.125  0.00  0.00    -0.260 N 
ATOM      2  C   UNL     1       6.285   0.372   5.322  0.00  0.00    +0.223 C 
ATOM      3  O   UNL     1       6.176  -0.796   5.632  0.00  0.00    -0.275 OA
ENDROOT
BRANCH   2   4
ATOM      4  C   UNL     1       6.934   1.355   6.284  0.00  0.00    +0.077 C 
ATOM      5  C   UNL     1       8.291   1.738   5.715  0.00  0.00    +0.023 C 
ATOM      6  C   UNL     1       9.172   2.489   6.709  0.00  0.00    +0.056 C 
ATOM      7  C   UNL     1       8.587   3.860   7.038  0.00  0.00    +0.011 C 
ATOM      8  C   UNL     1       7.280   3.787   7.806  0.00  0.00    +0.001 C 
ATOM      9  C   UNL     1       7.278   2.821   8.975  0.00  0.00    +0.011 C 
ATOM     10  C   UNL     1       7.877   1.458   8.642  0.00  0.00    +0.056 C 
ATOM     11  C   UNL     1       7.000   0.697   7.652  0.00  0.00    +0.023 C 
ATOM     12  C   UNL     1       9.231   1.682   7.993  0.00  0.00    +0.139 C 
ATOM     13  O   UNL     1      10.260   1.258   8.456  0.00  0.00    -0.297 OA
ENDBRANCH   2   4
BRANCH   1  16
ATOM     14  N   UNL     1       3.600  -1.674   2.573  0.00  0.00    -0.276 N 
ATOM     15  C   UNL     1       4.105  -0.780   3.488  0.00  0.00    +0.128 A 
ATOM     16  C   UNL     1       5.287  -0.125   3.208  0.00  0.00    +0.140 A 
ATOM     17  C   UNL     1       5.940  -0.394   1.990  0.00  0.00    +0.277 A 
ATOM     18  O   UNL     1       6.986   0.171   1.718  0.00  0.00    -0.266 OA
ATOM     19  N   UNL     1       5.403  -1.279   1.129  0.00  0.00    -0.273 N 
ATOM     20  H   UNL     1       5.852  -1.465   0.289  0.00  0.00    +0.173 HD
ATOM     21  C   UNL     1       4.253  -1.912   1.421  0.00  0.00    +0.331 A 
ATOM     22  O   UNL     1       3.792  -2.710   0.627  0.00  0.00    -0.246 OA
BRANCH  15  23
ATOM     23  N   UNL     1       3.441  -0.541   4.667  0.00  0.00    -0.343 N 
ATOM     24  H   UNL     1       2.575  -0.949   4.827  0.00  0.00    +0.144 HD
ATOM     25  H   UNL     1       3.837   0.035   5.339  0.00  0.00    +0.144 HD
ENDBRANCH  15  23
BRANCH  14  26
ATOM     26  C   UNL     1       2.346  -2.377   2.858  0.00  0.00    +0.163 C 
BRANCH  26  30
ATOM     27  C   UNL     1       3.190  -6.024   4.915  0.00  0.00    +0.000 A 
ATOM     28  C   UNL     1       2.971  -4.861   5.631  0.00  0.00    +0.000 A 
ATOM     29  C   UNL     1       2.699  -3.681   4.965  0.00  0.00    +0.005 A 
ATOM     30  C   UNL     1       2.644  -3.663   3.584  0.00  0.00    -0.028 A 
ATOM     31  C   UNL     1       2.864  -4.826   2.868  0.00  0.00    +0.005 A 
ATOM     32  C   UNL     1       3.135  -6.006   3.534  0.00  0.00    +0.000 A 
ENDBRANCH  26  30
ENDBRANCH  14  26
ENDBRANCH   1  16
BRANCH   1  33
ATOM     33  C   UNL     1       5.902   2.220   3.779  0.00  0.00    +0.149 C 
BRANCH  33  34
ATOM     34  C   UNL     1       4.580   2.877   4.079  0.00  0.00    -0.030 A 
ATOM     35  C   UNL     1       3.552   2.815   3.157  0.00  0.00    +0.005 A 
ATOM     36  C   UNL     1       2.339   3.418   3.432  0.00  0.00    +0.000 A 
ATOM     37  C   UNL     1       2.153   4.082   4.630  0.00  0.00    +0.000 A 
ATOM     38  C   UNL     1       3.180   4.143   5.553  0.00  0.00    +0.000 A 
ATOM     39  C   UNL     1       4.392   3.537   5.279  0.00  0.00    +0.005 A 
ENDBRANCH  33  34
ENDBRANCH   1  33
TORSDOF 7
