REMARK  Name = ZINC00183493
REMARK  5 active torsions:
REMARK  status: ('A' for Active; 'I' for Inactive)
REMARK    1  A    between atoms: C_1  and  O_2
REMARK    2  A    between atoms: O_2  and  C_3
REMARK    3  A    between atoms: C_6  and  N_9
REMARK    4  A    between atoms: C_10  and  C_21
REMARK    5  A    between atoms: C_26  and  O_27
REMARK                            x       y       z     vdW  Elec       q    Type
REMARK                         _______ _______ _______ _____ _____    ______ ____
ROOT
ATOM      1  N   UNL     1      -4.889  -2.581   0.036  0.00  0.00    -0.244 N 
ATOM      2  C   UNL     1      -4.934  -4.040  -0.070  0.00  0.00    +0.201 C 
ATOM      3  N   UNL     1      -6.141  -4.461  -0.791  0.00  0.00    -0.321 N 
ATOM      4  C   UNL     1      -7.350  -3.844  -0.490  0.00  0.00    +0.041 A 
ATOM      5  C   UNL     1      -8.560  -4.502  -0.636  0.00  0.00    +0.024 A 
ATOM      6  C   UNL     1      -9.737  -3.844  -0.335  0.00  0.00    +0.002 A 
ATOM      7  C   UNL     1      -9.716  -2.532   0.111  0.00  0.00    +0.001 A 
ATOM      8  C   UNL     1      -8.520  -1.863   0.266  0.00  0.00    +0.015 A 
ATOM      9  C   UNL     1      -7.325  -2.517  -0.029  0.00  0.00    +0.058 A 
ATOM     10  C   UNL     1      -6.020  -1.855   0.149  0.00  0.00    +0.254 C 
ATOM     11  O   UNL     1      -5.962  -0.664   0.390  0.00  0.00    -0.270 OA
ATOM     12  H   UNL     1      -6.096  -5.157  -1.465  0.00  0.00    +0.148 HD
ENDROOT
BRANCH   1  16
ATOM     13  C   UNL     1      -1.200  -0.639   0.009  0.00  0.00    +0.120 A 
ATOM     14  C   UNL     1      -2.063  -0.473   1.083  0.00  0.00    +0.047 A 
ATOM     15  C   UNL     1      -3.285  -1.116   1.092  0.00  0.00    +0.027 A 
ATOM     16  C   UNL     1      -3.651  -1.928   0.027  0.00  0.00    +0.039 A 
ATOM     17  C   UNL     1      -2.786  -2.094  -1.047  0.00  0.00    +0.027 A 
ATOM     18  C   UNL     1      -1.567  -1.446  -1.058  0.00  0.00    +0.047 A 
BRANCH  13  20
ATOM     19  C   UNL     1       0.315   0.809   1.132  0.00  0.00    +0.277 C 
ATOM     20  O   UNL     1       0.003  -0.006   0.001  0.00  0.00    -0.495 OA
ENDBRANCH  13  20
ENDBRANCH   1  16
BRANCH   2  21
ATOM     21  C   UNL     1      -4.948  -4.640   1.312  0.00  0.00    +0.032 A 
ATOM     22  C   UNL     1      -4.422  -3.935   2.377  0.00  0.00    +0.011 A 
ATOM     23  C   UNL     1      -4.433  -4.486   3.645  0.00  0.00    +0.001 A 
ATOM     24  C   UNL     1      -4.971  -5.743   3.851  0.00  0.00    +0.004 A 
ATOM     25  C   UNL     1      -5.498  -6.452   2.789  0.00  0.00    +0.046 A 
ATOM     26  C   UNL     1      -5.493  -5.899   1.516  0.00  0.00    +0.123 A 
BRANCH  26  27
ATOM     27  O   UNL     1      -6.016  -6.592   0.471  0.00  0.00    -0.506 OA
ATOM     28  H   UNL     1      -5.378  -7.159   0.016  0.00  0.00    +0.292 HD
ENDBRANCH  26  27
ENDBRANCH   2  21
TORSDOF 4
