REMARK  Name = ZINC36861417
REMARK  5 active torsions:
REMARK  status: ('A' for Active; 'I' for Inactive)
REMARK    1  A    between atoms: C_1  and  C_2
REMARK    2  A    between atoms: C_5  and  C_19
REMARK    3  A    between atoms: C_10  and  C_12
REMARK    4  A    between atoms: C_14  and  N_18
REMARK    5  A    between atoms: N_16  and  C_17
REMARK                            x       y       z     vdW  Elec       q    Type
REMARK                         _______ _______ _______ _____ _____    ______ ____
ROOT
ATOM      1  C   UNL     1       0.577   3.429   0.239  0.00  0.00    +0.009 C 
ATOM      2  C   UNL     1       0.065   2.066  -0.233  0.00  0.00    +0.004 C 
ATOM      3  C   UNL     1       0.688   1.729  -1.590  0.00  0.00    +0.009 C 
ATOM      4  C   UNL     1       2.213   1.716  -1.464  0.00  0.00    +0.004 C 
ATOM      5  C   UNL     1       2.630   0.638  -0.460  0.00  0.00    +0.111 C 
ATOM      6  N   UNL     1       1.922   0.872   0.806  0.00  0.00    -0.296 N 
ATOM      7  C   UNL     1       0.457   0.992   0.786  0.00  0.00    +0.111 C 
ATOM      8  C   UNL     1       2.603   0.975   1.965  0.00  0.00    +0.263 C 
ATOM      9  O   UNL     1       3.817   0.891   1.967  0.00  0.00    -0.268 OA
ATOM     10  C   UNL     1       2.835   1.412  -2.829  0.00  0.00    +0.009 C 
ENDROOT
BRANCH   8  11
ATOM     11  C   UNL     1       1.881   1.187   3.223  0.00  0.00    +0.106 A 
ATOM     12  C   UNL     1       0.577   0.820   3.486  0.00  0.00    +0.055 A 
ATOM     13  C   UNL     1       0.295   1.210   4.803  0.00  0.00    +0.043 A 
ATOM     14  C   UNL     1       1.411   1.797   5.309  0.00  0.00    +0.108 A 
ATOM     15  N   UNL     1       2.383   1.783   4.357  0.00  0.00    -0.344 N 
ATOM     16  C   UNL     1       3.738   2.317   4.513  0.00  0.00    +0.149 C 
BRANCH  13  17
ATOM     17  N   UNL     1      -0.925   1.027   5.479  0.00  0.00    -0.357 N 
ATOM     18  H   UNL     1      -1.668   0.594   5.030  0.00  0.00    +0.142 HD
ATOM     19  H   UNL     1      -1.023   1.333   6.394  0.00  0.00    +0.142 HD
ENDBRANCH  13  17
ENDBRANCH   8  11
TORSDOF 2
