REMARK  Name = ZINC10209214
REMARK  16 active torsions:
REMARK  status: ('A' for Active; 'I' for Inactive)
REMARK    1  A    between atoms: C_1  and  C_2
REMARK    2  A    between atoms: C_2  and  C_3
REMARK    3  A    between atoms: C_2  and  C_4
REMARK    4  A    between atoms: C_8  and  C_32
REMARK    5  A    between atoms: C_9  and  N_10
REMARK    6  A    between atoms: C_11  and  C_13
REMARK    7  A    between atoms: C_13  and  O_14
REMARK    8  A    between atoms: O_14  and  C_15
REMARK    9  A    between atoms: C_15  and  C_17
REMARK   10  A    between atoms: C_19  and  O_30
REMARK   11  A    between atoms: C_20  and  O_26
REMARK   12  A    between atoms: C_22  and  N_23
REMARK   13  A    between atoms: O_26  and  C_27
REMARK   14  A    between atoms: O_30  and  C_31
REMARK   15  A    between atoms: C_32  and  C_33
REMARK   16  A    between atoms: C_32  and  C_34
REMARK                            x       y       z     vdW  Elec       q    Type
REMARK                         _______ _______ _______ _____ _____    ______ ____
ROOT
ATOM      1  O   UNL     1      -1.617  -0.697   7.152  0.00  0.00    -0.452 OA
ENDROOT
BRANCH   1   2
ATOM      2  C   UNL     1      -1.046  -1.367   8.172  0.00  0.00    +0.342 C 
ATOM      3  O   UNL     1       0.158  -1.321   8.329  0.00  0.00    -0.245 OA
BRANCH   2   4
ATOM      4  C   UNL     1      -1.881  -2.156   9.097  0.00  0.00    +0.093 A 
ATOM      5  C   UNL     1      -2.972  -1.560   9.737  0.00  0.00    +0.066 A 
ATOM      6  C   UNL     1      -3.751  -2.303  10.601  0.00  0.00    +0.163 A 
ATOM      7  C   UNL     1      -3.450  -3.644  10.834  0.00  0.00    +0.170 A 
ATOM      8  C   UNL     1      -2.367  -4.236  10.198  0.00  0.00    +0.083 A 
ATOM      9  C   UNL     1      -1.588  -3.502   9.330  0.00  0.00    +0.144 A 
BRANCH   9  10
ATOM     10  N   UNL     1      -0.438  -4.138   8.649  0.00  0.00    +0.057 N 
ATOM     11  O   UNL     1      -0.106  -5.272   8.945  0.00  0.00    -0.126 OA
ATOM     12  O   UNL     1       0.178  -3.527   7.794  0.00  0.00    -0.126 OA
ENDBRANCH   9  10
BRANCH   6  13
ATOM     13  O   UNL     1      -4.813  -1.726  11.226  0.00  0.00    -0.491 OA
ATOM     14  C   UNL     1      -5.063  -0.348  10.942  0.00  0.00    +0.277 C 
ENDBRANCH   6  13
BRANCH   7  15
ATOM     15  O   UNL     1      -4.217  -4.374  11.685  0.00  0.00    -0.430 OA
BRANCH  15  16
ATOM     16  C   UNL     1      -3.851  -5.742  11.877  0.00  0.00    +0.541 C 
ATOM     17  F   UNL     1      -3.904  -6.415  10.652  0.00  0.00    -0.166 F 
ATOM     18  F   UNL     1      -2.552  -5.809  12.391  0.00  0.00    -0.166 F 
ENDBRANCH  15  16
ENDBRANCH   7  15
ENDBRANCH   2   4
ENDBRANCH   1   2
BRANCH   1  19
ATOM     19  C   UNL     1      -0.734   0.058   6.282  0.00  0.00    +0.328 C 
BRANCH  19  21
ATOM     20  N   UNL     1      -0.933   1.497   4.279  0.00  0.00    -0.282 N 
ATOM     21  C   UNL     1      -1.546   0.735   5.208  0.00  0.00    +0.255 C 
ATOM     22  O   UNL     1      -2.750   0.595   5.179  0.00  0.00    -0.272 OA
ATOM     23  H   UNL     1       0.034   1.576   4.278  0.00  0.00    +0.155 HD
BRANCH  20  29
ATOM     24  C   UNL     1      -2.722   3.016   3.711  0.00  0.00    -0.023 A 
ATOM     25  C   UNL     1      -3.473   3.677   2.759  0.00  0.00    +0.006 A 
ATOM     26  C   UNL     1      -3.192   3.508   1.415  0.00  0.00    +0.001 A 
ATOM     27  C   UNL     1      -2.167   2.669   1.020  0.00  0.00    +0.006 A 
ATOM     28  C   UNL     1      -1.416   2.001   1.967  0.00  0.00    -0.023 A 
ATOM     29  C   UNL     1      -1.692   2.173   3.317  0.00  0.00    +0.040 A 
BRANCH  24  31
ATOM     30  C   UNL     1      -2.676   4.637   5.587  0.00  0.00    +0.012 C 
ATOM     31  C   UNL     1      -3.025   3.205   5.175  0.00  0.00    +0.015 C 
ATOM     32  C   UNL     1      -4.513   2.950   5.425  0.00  0.00    +0.012 C 
ENDBRANCH  24  31
BRANCH  28  33
ATOM     33  C   UNL     1      -0.298   1.086   1.536  0.00  0.00    +0.015 C 
ATOM     34  C   UNL     1      -0.849   0.023   0.583  0.00  0.00    +0.012 C 
ATOM     35  C   UNL     1       0.781   1.901   0.822  0.00  0.00    +0.012 C 
ENDBRANCH  28  33
ENDBRANCH  20  29
ENDBRANCH  19  21
ENDBRANCH   1  19
TORSDOF 11
