REMARK  Name = ZINC02520251
REMARK  10 active torsions:
REMARK  status: ('A' for Active; 'I' for Inactive)
REMARK    1  A    between atoms: C_1  and  C_2
REMARK    2  A    between atoms: C_2  and  O_3
REMARK    3  A    between atoms: O_3  and  C_4
REMARK    4  A    between atoms: C_4  and  C_6
REMARK    5  A    between atoms: C_10  and  N_11
REMARK    6  A    between atoms: C_12  and  C_14
REMARK    7  A    between atoms: N_16  and  N_17
REMARK    8  A    between atoms: C_18  and  C_19
REMARK    9  A    between atoms: C_24  and  O_25
REMARK   10  A    between atoms: C_28  and  C_32
REMARK                            x       y       z     vdW  Elec       q    Type
REMARK                         _______ _______ _______ _____ _____    ______ ____
ROOT
ATOM      1  N   UNL     1      -0.602  -2.455  -3.925  0.00  0.00    -0.271 N 
ATOM      2  C   UNL     1      -1.116  -2.783  -5.127  0.00  0.00    +0.305 C 
ATOM      3  O   UNL     1      -0.394  -3.226  -5.997  0.00  0.00    -0.265 OA
ATOM      4  H   UNL     1      -1.179  -2.101  -3.231  0.00  0.00    +0.156 HD
ENDROOT
BRANCH   1   9
ATOM      5  C   UNL     1       1.449  -2.344  -2.517  0.00  0.00    +0.091 A 
ATOM      6  C   UNL     1       2.875  -2.619  -2.516  0.00  0.00    -0.021 A 
ATOM      7  C   UNL     1       3.342  -3.119  -3.681  0.00  0.00    -0.004 A 
ATOM      8  S   UNL     1       1.922  -3.212  -4.731  0.00  0.00    -0.077 S 
ATOM      9  C   UNL     1       0.750  -2.624  -3.682  0.00  0.00    +0.087 A 
ATOM     10  C   UNL     1       4.756  -3.503  -3.992  0.00  0.00    +0.046 C 
ATOM     11  C   UNL     1       5.531  -3.600  -2.670  0.00  0.00    -0.009 C 
ATOM     12  C   UNL     1       5.244  -2.350  -1.834  0.00  0.00    +0.008 C 
ATOM     13  C   UNL     1       3.799  -2.381  -1.331  0.00  0.00    +0.037 C 
ATOM     14  C   UNL     1       7.031  -3.692  -2.961  0.00  0.00    +0.008 C 
BRANCH   5  15
ATOM     15  C   UNL     1       0.776  -1.800  -1.335  0.00  0.00    +0.342 C 
ATOM     16  O   UNL     1       0.312  -2.552  -0.499  0.00  0.00    -0.245 OA
BRANCH  15  17
ATOM     17  O   UNL     1       0.671  -0.465  -1.174  0.00  0.00    -0.461 OA
BRANCH  17  19
ATOM     18  C   UNL     1      -0.019   1.526   0.010  0.00  0.00    +0.048 C 
ATOM     19  C   UNL     1       0.002  -0.004   0.002  0.00  0.00    +0.229 C 
ENDBRANCH  17  19
ENDBRANCH  15  17
ENDBRANCH   5  15
ENDBRANCH   1   9
BRANCH   2  20
ATOM     20  C   UNL     1      -2.572  -2.601  -5.389  0.00  0.00    +0.318 C 
ATOM     21  O   UNL     1      -3.295  -2.158  -4.519  0.00  0.00    -0.263 OA
ATOM     22  N   UNL     1      -3.087  -2.929  -6.591  0.00  0.00    -0.199 N 
ATOM     23  H   UNL     1      -2.510  -3.283  -7.285  0.00  0.00    +0.178 HD
BRANCH  22  24
ATOM     24  N   UNL     1      -4.455  -2.757  -6.837  0.00  0.00    -0.187 NA
ATOM     25  C   UNL     1      -4.952  -3.073  -7.995  0.00  0.00    +0.142 C 
BRANCH  25  26
ATOM     26  C   UNL     1      -6.390  -2.893  -8.254  0.00  0.00    +0.037 A 
ATOM     27  C   UNL     1      -6.929  -3.237  -9.497  0.00  0.00    +0.028 A 
ATOM     28  C   UNL     1      -8.278  -3.066  -9.732  0.00  0.00    +0.019 A 
ATOM     29  C   UNL     1      -9.100  -2.555  -8.741  0.00  0.00    +0.019 A 
ATOM     30  C   UNL     1      -8.579  -2.212  -7.508  0.00  0.00    +0.047 A 
ATOM     31  C   UNL     1      -7.228  -2.382  -7.253  0.00  0.00    +0.126 A 
ATOM     32 BR   UNL     1      -9.006  -3.531 -11.414  0.00  0.00    -0.050 Br
BRANCH  31  33
ATOM     33  O   UNL     1      -6.716  -2.050  -6.040  0.00  0.00    -0.506 OA
ATOM     34  H   UNL     1      -6.414  -1.134  -5.978  0.00  0.00    +0.292 HD
ENDBRANCH  31  33
ENDBRANCH  25  26
ENDBRANCH  22  24
ENDBRANCH   2  20
TORSDOF 8
