REMARK  Name = ZINC03947335
REMARK  2 active torsions:
REMARK  status: ('A' for Active; 'I' for Inactive)
REMARK    1  A    between atoms: C_1  and  C_2
REMARK    2  A    between atoms: C_14  and  C_15
REMARK                            x       y       z     vdW  Elec       q    Type
REMARK                         _______ _______ _______ _____ _____    ______ ____
ROOT
ATOM      1  C   UNL     1      -2.470  -0.361   0.025  0.00  0.00    +0.046 C 
ATOM      2  C   UNL     1      -1.053  -0.872   0.007  0.00  0.00    -0.015 A 
ATOM      3  C   UNL     1      -0.787  -2.244  -0.003  0.00  0.00    +0.074 A 
ATOM      4  C   UNL     1      -1.746  -3.377  -0.000  0.00  0.00    +0.261 A 
ATOM      5  O   UNL     1      -2.945  -3.169   0.012  0.00  0.00    -0.267 OA
ATOM      6  N   UNL     1      -1.274  -4.636  -0.013  0.00  0.00    -0.302 N 
ATOM      7  H   UNL     1      -1.902  -5.375  -0.011  0.00  0.00    +0.171 HD
ATOM      8  C   UNL     1       0.043  -4.900  -0.027  0.00  0.00    +0.159 A 
ATOM      9  S   UNL     1       0.570  -6.529  -0.041  0.00  0.00    -0.013 S 
ATOM     10  N   UNL     1       0.958  -3.911  -0.030  0.00  0.00    -0.329 N 
ATOM     11  H   UNL     1       1.902  -4.132  -0.040  0.00  0.00    +0.168 HD
ATOM     12  C   UNL     1       0.571  -2.605  -0.018  0.00  0.00    +0.093 A 
ATOM     13  S   UNL     1       1.409  -1.099  -0.025  0.00  0.00    -0.064 S 
ATOM     14  C   UNL     1       0.002  -0.004   0.002  0.00  0.00    +0.106 A 
ENDROOT
BRANCH  14  15
ATOM     15  C   UNL     1      -0.018   1.458   0.010  0.00  0.00    +0.393 C 
ATOM     16  O   UNL     1      -1.079   2.052   0.018  0.00  0.00    -0.240 OA
ATOM     17  O   UNL     1       1.141   2.149   0.003  0.00  0.00    -0.240 OA
ENDBRANCH  14  15
TORSDOF 1
