REMARK  Name = ZINC22107311
REMARK  9 active torsions:
REMARK  status: ('A' for Active; 'I' for Inactive)
REMARK    1  A    between atoms: C_4  and  C_7
REMARK    2  A    between atoms: C_7  and  C_8
REMARK    3  A    between atoms: N_11  and  C_14
REMARK    4  A    between atoms: C_14  and  C_15
REMARK    5  A    between atoms: C_15  and  C_17
REMARK    6  A    between atoms: C_15  and  O_35
REMARK    7  A    between atoms: C_17  and  O_18
REMARK    8  A    between atoms: O_18  and  C_19
REMARK    9  A    between atoms: C_22  and  C_25
REMARK                            x       y       z     vdW  Elec       q    Type
REMARK                         _______ _______ _______ _____ _____    ______ ____
ROOT
ATOM      1  C   UNL     1      -2.570   4.090   0.312  0.00  0.00    +0.135 C 
ENDROOT
BRANCH   1   2
ATOM      2  O   UNL     1      -3.251   3.958   1.561  0.00  0.00    -0.390 OA
ATOM      3  H   UNL     1      -3.393   2.962   2.008  0.00  0.00    +0.210 HD
ENDBRANCH   1   2
BRANCH   1   4
ATOM      4  C   UNL     1      -2.508   5.567  -0.082  0.00  0.00    -0.044 C 
BRANCH   4   8
ATOM      5  C   UNL     1      -6.088   7.471  -1.439  0.00  0.00    -0.010 C 
ATOM      6  C   UNL     1      -6.050   5.947  -1.303  0.00  0.00    -0.015 C 
ATOM      7  C   UNL     1      -4.594   5.475  -1.307  0.00  0.00    -0.078 C 
ATOM      8  N   UNL     1      -3.872   6.102  -0.193  0.00  0.00    +0.381 N 
ATOM      9  C   UNL     1      -3.854   7.564  -0.326  0.00  0.00    -0.078 C 
ATOM     10  C   UNL     1      -5.288   8.098  -0.293  0.00  0.00    -0.015 C 
ATOM     11  H   UNL     1      -4.409   5.857   0.735  0.00  0.00    -0.082 HD
BRANCH   5  12
ATOM     12  C   UNL     1      -7.538   7.955  -1.376  0.00  0.00    +0.038 C 
BRANCH  12  16
ATOM     13  C   UNL     1      -7.671  12.162  -2.101  0.00  0.00    +0.000 A 
ATOM     14  C   UNL     1      -7.768  11.275  -3.157  0.00  0.00    +0.000 A 
ATOM     15  C   UNL     1      -7.726   9.914  -2.922  0.00  0.00    +0.003 A 
ATOM     16  C   UNL     1      -7.585   9.439  -1.632  0.00  0.00    -0.047 A 
ATOM     17  C   UNL     1      -7.492  10.326  -0.575  0.00  0.00    +0.003 A 
ATOM     18  C   UNL     1      -7.530  11.687  -0.810  0.00  0.00    +0.000 A 
ENDBRANCH  12  16
ENDBRANCH   5  12
ENDBRANCH   4   8
ENDBRANCH   1   4
BRANCH   1  19
ATOM     19  C   UNL     1      -1.150   3.537   0.444  0.00  0.00    +0.258 C 
BRANCH  19  20
ATOM     20  O   UNL     1      -1.207   2.131   0.696  0.00  0.00    -0.489 OA
BRANCH  20  21
ATOM     21  C   UNL     1      -0.022   1.481   0.840  0.00  0.00    +0.121 A 
ATOM     22  C   UNL     1       1.171   2.181   0.735  0.00  0.00    +0.046 A 
ATOM     23  C   UNL     1       2.374   1.517   0.875  0.00  0.00    +0.008 A 
ATOM     24  C   UNL     1       2.390   0.157   1.122  0.00  0.00    -0.041 A 
ATOM     25  C   UNL     1       1.202  -0.543   1.228  0.00  0.00    +0.008 A 
ATOM     26  C   UNL     1      -0.004   0.116   1.087  0.00  0.00    +0.046 A 
BRANCH  24  27
ATOM     27  C   UNL     1       3.704  -0.565   1.276  0.00  0.00    -0.003 C 
ATOM     28  C   UNL     1       3.817  -1.652   0.204  0.00  0.00    +0.015 C 
ATOM     29  C   UNL     1       5.151  -2.384   0.360  0.00  0.00    -0.010 C 
ATOM     30  C   UNL     1       6.302  -1.389   0.200  0.00  0.00    +0.007 C 
ATOM     31  C   UNL     1       6.188  -0.302   1.272  0.00  0.00    -0.010 C 
ATOM     32  C   UNL     1       4.854   0.431   1.116  0.00  0.00    +0.015 C 
ATOM     33  C   UNL     1       6.258  -0.944   2.659  0.00  0.00    +0.007 C 
ATOM     34  C   UNL     1       5.108  -1.940   2.818  0.00  0.00    -0.010 C 
ATOM     35  C   UNL     1       5.221  -3.026   1.747  0.00  0.00    +0.007 C 
ATOM     36  C   UNL     1       3.774  -1.207   2.663  0.00  0.00    +0.015 C 
ENDBRANCH  24  27
ENDBRANCH  20  21
ENDBRANCH  19  20
ENDBRANCH   1  19
TORSDOF 9
