REMARK  Name = ZINC01687790
REMARK  3 active torsions:
REMARK  status: ('A' for Active; 'I' for Inactive)
REMARK    1  A    between atoms: C_1  and  N_13
REMARK    2  A    between atoms: C_2  and  C_9
REMARK    3  A    between atoms: C_6  and  N_7
REMARK                            x       y       z     vdW  Elec       q    Type
REMARK                         _______ _______ _______ _____ _____    ______ ____
ROOT
ATOM      1  C   UNL     1      -1.498   1.594   0.720  0.00  0.00    +0.095 A 
ATOM      2  C   UNL     1      -2.434   0.963  -0.085  0.00  0.00    +0.171 A 
ATOM      3  N   UNL     1      -3.319   1.699  -0.744  0.00  0.00    -0.211 NA
ATOM      4  C   UNL     1      -3.319   3.013  -0.645  0.00  0.00    +0.225 A 
ATOM      5  N   UNL     1      -2.448   3.657   0.109  0.00  0.00    -0.201 NA
ATOM      6  C   UNL     1      -1.532   2.993   0.805  0.00  0.00    +0.142 A 
ATOM      7 CL   UNL     1      -4.502   3.925  -1.530  0.00  0.00    -0.041 Cl
ENDROOT
BRANCH   2   8
ATOM      8  C   UNL     1      -2.446  -0.539  -0.208  0.00  0.00    +0.436 C 
ATOM      9  F   UNL     1      -2.615  -1.109   1.058  0.00  0.00    -0.164 F 
ATOM     10  F   UNL     1      -3.501  -0.930  -1.040  0.00  0.00    -0.164 F 
ATOM     11  F   UNL     1      -1.235  -0.971  -0.757  0.00  0.00    -0.164 F 
ENDBRANCH   2   8
BRANCH   6  12
ATOM     12  N   UNL     1      -0.621   3.674   1.601  0.00  0.00    -0.342 N 
ATOM     13  H   UNL     1       0.047   3.181   2.104  0.00  0.00    +0.144 HD
ATOM     14  H   UNL     1      -0.652   4.642   1.655  0.00  0.00    +0.144 HD
ENDBRANCH   6  12
BRANCH   1  15
ATOM     15  N   UNL     1      -0.546   0.853   1.433  0.00  0.00    -0.354 N 
ATOM     16  H   UNL     1       0.047   1.299   2.057  0.00  0.00    +0.142 HD
ATOM     17  H   UNL     1      -0.484  -0.106   1.306  0.00  0.00    +0.142 HD
ENDBRANCH   1  15
TORSDOF 3
