REMARK  Name = ZINC32747526
REMARK  12 active torsions:
REMARK  status: ('A' for Active; 'I' for Inactive)
REMARK    1  A    between atoms: C_1  and  C_2
REMARK    2  A    between atoms: C_2  and  C_3
REMARK    3  A    between atoms: C_3  and  C_5
REMARK    4  A    between atoms: C_3  and  N_12
REMARK    5  A    between atoms: C_8  and  C_11
REMARK    6  A    between atoms: C_13  and  C_15
REMARK    7  A    between atoms: C_15  and  C_16
REMARK    8  A    between atoms: C_16  and  N_17
REMARK    9  A    between atoms: N_17  and  C_18
REMARK   10  A    between atoms: C_21  and  S_27
REMARK   11  A    between atoms: C_23  and  N_24
REMARK   12  A    between atoms: S_27  and  N_30
REMARK                            x       y       z     vdW  Elec       q    Type
REMARK                         _______ _______ _______ _____ _____    ______ ____
ROOT
ATOM      1  N   UNL     1      -6.971   1.409   0.422  0.00  0.00    -0.342 N 
ATOM      2  H   UNL     1      -7.154   0.499   1.013  0.00  0.00    +0.146 HD
ENDROOT
BRANCH   1   3
ATOM      3  C   UNL     1      -7.946   1.872  -0.465  0.00  0.00    +0.058 A 
ATOM      4  C   UNL     1      -7.770   3.084  -1.121  0.00  0.00    +0.027 A 
ATOM      5  C   UNL     1      -8.736   3.540  -1.997  0.00  0.00    +0.030 A 
ATOM      6  C   UNL     1      -9.877   2.791  -2.221  0.00  0.00    +0.107 A 
ATOM      7  C   UNL     1     -10.055   1.584  -1.570  0.00  0.00    +0.063 A 
ATOM      8  C   UNL     1      -9.090   1.120  -0.697  0.00  0.00    +0.149 A 
BRANCH   8   9
ATOM      9  N   UNL     1      -9.279  -0.175  -0.005  0.00  0.00    +0.058 N 
ATOM     10  O   UNL     1      -8.326  -0.910   0.181  0.00  0.00    -0.126 OA
ATOM     11  O   UNL     1     -10.387  -0.504   0.379  0.00  0.00    -0.126 OA
ENDBRANCH   8   9
BRANCH   6  12
ATOM     12  S   UNL     1     -11.106   3.376  -3.339  0.00  0.00    +0.056 S 
ATOM     13  O   UNL     1     -12.328   2.755  -2.961  0.00  0.00    -0.153 OA
ATOM     14  O   UNL     1     -10.957   4.788  -3.404  0.00  0.00    -0.153 OA
BRANCH  12  15
ATOM     15  N   UNL     1     -10.723   2.790  -4.840  0.00  0.00    -0.204 NA
ATOM     16  H   UNL     1     -11.470   3.134  -5.570  0.00  0.00    +0.144 HD
ATOM     17  H   UNL     1     -10.716   1.690  -4.813  0.00  0.00    +0.144 HD
ENDBRANCH  12  15
ENDBRANCH   6  12
ENDBRANCH   1   3
BRANCH   1  18
ATOM     18  C   UNL     1      -5.707   2.134   0.565  0.00  0.00    +0.111 C 
BRANCH  18  19
ATOM     19  C   UNL     1      -4.823   1.421   1.591  0.00  0.00    +0.114 C 
BRANCH  19  21
ATOM     20  N   UNL     1      -2.581   1.720   2.593  0.00  0.00    -0.308 N 
ATOM     21  C   UNL     1      -3.522   2.167   1.737  0.00  0.00    +0.215 C 
ATOM     22  O   UNL     1      -3.321   3.170   1.085  0.00  0.00    -0.276 OA
ATOM     23  H   UNL     1      -2.764   0.810   3.184  0.00  0.00    +0.149 HD
BRANCH  20  24
ATOM     24  C   UNL     1      -1.317   2.445   2.736  0.00  0.00    +0.103 C 
BRANCH  24  25
ATOM     25  C   UNL     1      -0.728   2.165   4.094  0.00  0.00    -0.027 A 
ATOM     26  C   UNL     1      -0.796   0.891   4.628  0.00  0.00    +0.006 A 
ATOM     27  C   UNL     1      -0.252   0.634   5.872  0.00  0.00    +0.004 A 
ATOM     28  C   UNL     1       0.352   1.651   6.587  0.00  0.00    -0.050 A 
ATOM     29  C   UNL     1       0.417   2.925   6.055  0.00  0.00    +0.004 A 
ATOM     30  C   UNL     1      -0.123   3.182   4.808  0.00  0.00    +0.006 A 
ATOM     31  C   UNL     1       0.941   1.371   7.946  0.00  0.00    +0.044 C 
ENDBRANCH  24  25
BRANCH  24  33
ATOM     32  C   UNL     1      -0.880   2.381   0.276  0.00  0.00    +0.006 C 
ATOM     33  C   UNL     1      -0.340   1.984   1.651  0.00  0.00    +0.024 C 
ENDBRANCH  24  33
ENDBRANCH  20  24
ENDBRANCH  19  21
ENDBRANCH  18  19
ENDBRANCH   1  18
TORSDOF 10
