REMARK  Name = ZINC21249621
REMARK  12 active torsions:
REMARK  status: ('A' for Active; 'I' for Inactive)
REMARK    1  A    between atoms: C_1  and  C_2
REMARK    2  A    between atoms: C_2  and  C_3
REMARK    3  A    between atoms: C_2  and  O_4
REMARK    4  A    between atoms: O_4  and  C_5
REMARK    5  A    between atoms: C_8  and  C_13
REMARK    6  A    between atoms: C_10  and  O_11
REMARK    7  A    between atoms: O_11  and  C_12
REMARK    8  A    between atoms: C_18  and  C_28
REMARK    9  A    between atoms: C_32  and  O_36
REMARK   10  A    between atoms: C_33  and  O_34
REMARK   11  A    between atoms: O_34  and  C_35
REMARK   12  A    between atoms: O_36  and  C_37
REMARK                            x       y       z     vdW  Elec       q    Type
REMARK                         _______ _______ _______ _____ _____    ______ ____
ROOT
ATOM      1  C   UNL     1      -1.071   0.650  -1.100  0.00  0.00    +0.032 C 
ATOM      2  C   UNL     1      -1.879   1.182   0.082  0.00  0.00    +0.059 C 
ATOM      3  C   UNL     1      -1.147   0.892   1.383  0.00  0.00    +0.017 C 
ATOM      4  C   UNL     1       0.195   0.874   1.417  0.00  0.00    +0.037 C 
ATOM      5  C   UNL     1       1.047   0.596   2.634  0.00  0.00    +0.140 C 
ATOM      6  N   UNL     1       0.318   0.593   3.885  0.00  0.00    -0.331 N 
ATOM      7  C   UNL     1      -0.664  -0.361   4.139  0.00  0.00    +0.049 A 
ATOM      8  C   UNL     1      -0.495  -1.326   5.120  0.00  0.00    +0.025 A 
ATOM      9  C   UNL     1      -1.460  -2.304   5.287  0.00  0.00    +0.002 A 
ATOM     10  C   UNL     1      -2.587  -2.322   4.485  0.00  0.00    +0.002 A 
ATOM     11  C   UNL     1      -2.770  -1.346   3.519  0.00  0.00    +0.025 A 
ATOM     12  C   UNL     1      -1.815  -0.357   3.365  0.00  0.00    +0.052 A 
ATOM     13  N   UNL     1      -1.958   0.682   2.451  0.00  0.00    -0.316 N 
ATOM     14  C   UNL     1       0.943   1.110   0.239  0.00  0.00    +0.163 C 
ATOM     15  O   UNL     1       2.156   1.115   0.306  0.00  0.00    -0.292 OA
ATOM     16  C   UNL     1       0.291   1.355  -1.089  0.00  0.00    +0.088 C 
ATOM     17  H   UNL     1       0.537   1.351   4.651  0.00  0.00    +0.147 HD
ATOM     18  H   UNL     1      -2.802   1.361   2.643  0.00  0.00    +0.152 HD
ENDROOT
BRANCH   1  22
ATOM     19  C   UNL     1      -3.114   1.507  -4.758  0.00  0.00    +0.162 A 
ATOM     20  C   UNL     1      -2.739   2.539  -3.912  0.00  0.00    +0.050 A 
ATOM     21  C   UNL     1      -2.078   2.258  -2.731  0.00  0.00    +0.008 A 
ATOM     22  C   UNL     1      -1.791   0.950  -2.389  0.00  0.00    -0.040 A 
ATOM     23  C   UNL     1      -2.158  -0.084  -3.231  0.00  0.00    +0.053 A 
ATOM     24  C   UNL     1      -2.825   0.190  -4.415  0.00  0.00    +0.162 A 
BRANCH  24  25
ATOM     25  O   UNL     1      -3.191  -0.826  -5.241  0.00  0.00    -0.491 OA
ATOM     26  C   UNL     1      -2.861  -2.153  -4.824  0.00  0.00    +0.277 C 
ENDBRANCH  24  25
BRANCH  19  27
ATOM     27  O   UNL     1      -3.763   1.781  -5.921  0.00  0.00    -0.486 OA
BRANCH  27  29
ATOM     28  C   UNL     1      -4.274   3.367  -7.672  0.00  0.00    +0.051 C 
ATOM     29  C   UNL     1      -4.104   3.147  -6.168  0.00  0.00    +0.167 C 
ATOM     30  C   UNL     1      -5.414   3.483  -5.452  0.00  0.00    +0.051 C 
ENDBRANCH  27  29
ENDBRANCH  19  27
ENDBRANCH   1  22
BRANCH   5  31
ATOM     31  C   UNL     1       1.704  -0.750   2.461  0.00  0.00    +0.023 A 
ATOM     32  C   UNL     1       1.172  -1.670   1.576  0.00  0.00    +0.009 A 
ATOM     33  C   UNL     1       1.775  -2.903   1.412  0.00  0.00    +0.004 A 
ATOM     34  C   UNL     1       2.906  -3.225   2.138  0.00  0.00    +0.049 A 
ATOM     35  C   UNL     1       3.441  -2.309   3.029  0.00  0.00    +0.162 A 
ATOM     36  C   UNL     1       2.837  -1.066   3.191  0.00  0.00    +0.167 A 
BRANCH  36  37
ATOM     37  O   UNL     1       3.358  -0.164   4.066  0.00  0.00    -0.491 OA
ATOM     38  C   UNL     1       2.974  -0.292   5.436  0.00  0.00    +0.277 C 
ENDBRANCH  36  37
BRANCH  35  39
ATOM     39  O   UNL     1       4.554  -2.624   3.744  0.00  0.00    -0.491 OA
ATOM     40  C   UNL     1       5.121  -3.918   3.527  0.00  0.00    +0.277 C 
ENDBRANCH  35  39
ENDBRANCH   5  31
TORSDOF 7
