REMARK  Name = ZINC50290451
REMARK  4 active torsions:
REMARK  status: ('A' for Active; 'I' for Inactive)
REMARK    1  A    between atoms: C_1  and  C_2
REMARK    2  A    between atoms: C_8  and  N_10
REMARK    3  A    between atoms: C_11  and  C_13
REMARK    4  A    between atoms: C_13  and  C_16
REMARK                            x       y       z     vdW  Elec       q    Type
REMARK                         _______ _______ _______ _____ _____    ______ ____
ROOT
ATOM      1  N   UNL     1       2.116  -0.004   1.231  0.00  0.00    -0.311 N 
ATOM      2  C   UNL     1       2.795   0.128   2.388  0.00  0.00    +0.230 C 
ATOM      3  O   UNL     1       2.268  -0.174   3.438  0.00  0.00    -0.275 OA
ATOM      4  H   UNL     1       2.538   0.237   0.392  0.00  0.00    +0.149 HD
ENDROOT
BRANCH   1  11
ATOM      5  C   UNL     1      -0.019   1.526   0.010  0.00  0.00    +0.009 C 
ATOM      6  C   UNL     1       0.002  -0.004   0.002  0.00  0.00    +0.006 C 
ATOM      7  C   UNL     1      -1.433  -0.534   0.013  0.00  0.00    +0.005 C 
ATOM      8  C   UNL     1      -1.413  -2.063   0.004  0.00  0.00    +0.000 C 
ATOM      9  C   UNL     1      -0.673  -2.570   1.244  0.00  0.00    +0.002 C 
ATOM     10  C   UNL     1       0.763  -2.041   1.233  0.00  0.00    +0.022 C 
ATOM     11  C   UNL     1       0.742  -0.511   1.242  0.00  0.00    +0.076 C 
ENDBRANCH   1  11
BRANCH   2  12
ATOM     12  C   UNL     1       4.209   0.649   2.377  0.00  0.00    +0.147 C 
ATOM     13  C   UNL     1       5.326  -0.330   2.744  0.00  0.00    +0.029 C 
ATOM     14  C   UNL     1       4.925   0.776   3.723  0.00  0.00    +0.029 C 
BRANCH  12  15
ATOM     15  C   UNL     1       4.510   1.688   1.329  0.00  0.00    +0.371 C 
ATOM     16  O   UNL     1       3.614   2.387   0.887  0.00  0.00    -0.245 OA
ATOM     17  O   UNL     1       5.651   1.831   0.922  0.00  0.00    -0.245 OA
ENDBRANCH  12  15
ENDBRANCH   2  12
TORSDOF 3
