REMARK  Name = ZINC13064846
REMARK  10 active torsions:
REMARK  status: ('A' for Active; 'I' for Inactive)
REMARK    1  A    between atoms: C_1  and  C_2
REMARK    2  A    between atoms: C_2  and  C_3
REMARK    3  A    between atoms: C_3  and  C_5
REMARK    4  A    between atoms: C_3  and  N_75
REMARK    5  A    between atoms: N_9  and  C_10
REMARK    6  A    between atoms: C_16  and  C_17
REMARK    7  A    between atoms: C_16  and  N_75
REMARK    8  A    between atoms: C_20  and  C_30
REMARK    9  A    between atoms: C_22  and  C_29
REMARK   10  A    between atoms: C_31  and  N_75
REMARK                            x       y       z     vdW  Elec       q    Type
REMARK                         _______ _______ _______ _____ _____    ______ ____
ROOT
ATOM      1  N   UNL     1       0.512  -1.951  -1.447  0.00  0.00    +0.391 N 
ATOM      2  H   UNL     1      -0.513  -1.981  -1.403  0.00  0.00    -0.080 HD
ENDROOT
BRANCH   1   3
ATOM      3  C   UNL     1       0.954  -0.541  -1.404  0.00  0.00    -0.067 C 
ATOM      4  C   UNL     1       2.465  -0.446  -1.623  0.00  0.00    -0.015 C 
ATOM      5  C   UNL     1       2.895   1.022  -1.578  0.00  0.00    -0.002 C 
ATOM      6  C   UNL     1       2.170   1.800  -2.677  0.00  0.00    -0.000 C 
ATOM      7  C   UNL     1       0.659   1.705  -2.458  0.00  0.00    -0.002 C 
ATOM      8  C   UNL     1       0.229   0.237  -2.504  0.00  0.00    -0.015 C 
ENDBRANCH   1   3
BRANCH   1   9
ATOM      9  C   UNL     1       0.958  -2.582  -2.707  0.00  0.00    +0.003 C 
BRANCH   9  10
ATOM     10  C   UNL     1       2.433  -2.882  -2.654  0.00  0.00    +0.138 A 
ATOM     11  N   UNL     1       3.092  -3.395  -1.644  0.00  0.00    -0.115 NA
ATOM     12  N   UNL     1       4.330  -3.500  -1.988  0.00  0.00    -0.023 NA
ATOM     13  N   UNL     1       4.479  -3.059  -3.188  0.00  0.00    -0.044 NA
ATOM     14  N   UNL     1       3.332  -2.669  -3.634  0.00  0.00    -0.228 N 
BRANCH  14  15
ATOM     15  C   UNL     1       3.060  -2.102  -4.957  0.00  0.00    +0.111 C 
ATOM     16  C   UNL     1       3.447  -3.115  -6.035  0.00  0.00    +0.027 C 
ATOM     17  C   UNL     1       3.162  -2.523  -7.417  0.00  0.00    +0.002 C 
ATOM     18  C   UNL     1       3.981  -1.243  -7.602  0.00  0.00    +0.000 C 
ATOM     19  C   UNL     1       3.594  -0.230  -6.523  0.00  0.00    +0.002 C 
ATOM     20  C   UNL     1       3.878  -0.823  -5.141  0.00  0.00    +0.027 C 
ENDBRANCH  14  15
ENDBRANCH   9  10
BRANCH   9  22
ATOM     21  C   UNL     1      -1.305  -3.567  -3.096  0.00  0.00    +0.002 C 
ATOM     22  C   UNL     1       0.179  -3.884  -2.906  0.00  0.00    -0.011 C 
ENDBRANCH   9  22
ENDBRANCH   1   9
BRANCH   1  23
ATOM     23  C   UNL     1       1.064  -2.688  -0.290  0.00  0.00    -0.036 C 
BRANCH  23  24
ATOM     24  C   UNL     1       0.241  -2.360   0.928  0.00  0.00    +0.001 A 
ATOM     25  C   UNL     1      -0.799  -3.157   1.276  0.00  0.00    +0.017 A 
ATOM     26  C   UNL     1      -1.576  -2.813   2.468  0.00  0.00    +0.002 A 
ATOM     27  C   UNL     1      -2.657  -3.600   2.880  0.00  0.00    -0.041 A 
ATOM     28  C   UNL     1      -3.365  -3.249   3.994  0.00  0.00    +0.007 A 
ATOM     29  C   UNL     1      -3.021  -2.117   4.722  0.00  0.00    -0.048 A 
ATOM     30  C   UNL     1      -1.961  -1.327   4.335  0.00  0.00    +0.029 A 
ATOM     31  C   UNL     1      -1.225  -1.665   3.204  0.00  0.00    +0.050 A 
ATOM     32  N   UNL     1      -0.159  -0.893   2.794  0.00  0.00    -0.322 N 
ATOM     33  H   UNL     1       0.082  -0.102   3.301  0.00  0.00    +0.169 HD
ATOM     34  C   UNL     1       0.552  -1.220   1.700  0.00  0.00    +0.251 A 
ATOM     35  O   UNL     1       1.488  -0.514   1.367  0.00  0.00    -0.268 OA
ATOM     36  C   UNL     1      -3.817  -1.750   5.948  0.00  0.00    +0.044 C 
ATOM     37  C   UNL     1      -3.039  -4.829   2.097  0.00  0.00    +0.044 C 
ENDBRANCH  23  24
ENDBRANCH   1  23
TORSDOF 7
