REMARK  Name = ZINC02092019
REMARK  9 active torsions:
REMARK  status: ('A' for Active; 'I' for Inactive)
REMARK    1  A    between atoms: C_1  and  C_2
REMARK    2  A    between atoms: C_5  and  S_8
REMARK    3  A    between atoms: S_8  and  N_11
REMARK    4  A    between atoms: N_11  and  C_12
REMARK    5  A    between atoms: C_12  and  C_14
REMARK    6  A    between atoms: C_12  and  C_15
REMARK    7  A    between atoms: C_15  and  O_17
REMARK    8  A    between atoms: O_17  and  C_18
REMARK    9  A    between atoms: C_20  and  C_33
REMARK                            x       y       z     vdW  Elec       q    Type
REMARK                         _______ _______ _______ _____ _____    ______ ____
ROOT
ATOM      1  O   UNL     1      -3.437   4.734   1.457  0.00  0.00    -0.424 OA
ENDROOT
BRANCH   1   2
ATOM      2  C   UNL     1      -3.262   4.169   2.679  0.00  0.00    +0.143 A 
ATOM      3  C   UNL     1      -4.005   4.604   3.762  0.00  0.00    +0.050 A 
ATOM      4  C   UNL     1      -3.825   4.027   5.009  0.00  0.00    -0.043 A 
ATOM      5  C   UNL     1      -2.907   3.013   5.193  0.00  0.00    +0.050 A 
ATOM      6  C   UNL     1      -2.150   2.559   4.122  0.00  0.00    +0.143 A 
ATOM      7  C   UNL     1      -2.324   3.139   2.856  0.00  0.00    +0.063 A 
ATOM      8  C   UNL     1      -1.521   2.655   1.726  0.00  0.00    -0.023 A 
ATOM      9  C   UNL     1      -0.629   1.666   1.952  0.00  0.00    +0.041 A 
ATOM     10  C   UNL     1      -0.508   1.126   3.256  0.00  0.00    +0.341 A 
ATOM     11  O   UNL     1       0.293   0.230   3.450  0.00  0.00    -0.245 OA
ATOM     12  O   UNL     1      -1.247   1.568   4.282  0.00  0.00    -0.422 OA
ATOM     13  C   UNL     1       0.254   1.105   0.869  0.00  0.00    +0.042 C 
ATOM     14  C   UNL     1      -0.291   1.466  -0.512  0.00  0.00    +0.005 C 
ATOM     15  C   UNL     1      -0.552   2.977  -0.548  0.00  0.00    +0.005 C 
ATOM     16  C   UNL     1      -1.730   3.282   0.376  0.00  0.00    +0.036 C 
ATOM     17  C   UNL     1      -4.642   4.513   6.178  0.00  0.00    +0.044 C 
ENDBRANCH   1   2
BRANCH   1  18
ATOM     18  C   UNL     1      -4.347   4.167   0.648  0.00  0.00    +0.331 C 
ATOM     19  O   UNL     1      -4.898   3.145   0.981  0.00  0.00    -0.249 OA
BRANCH  18  20
ATOM     20  C   UNL     1      -4.681   4.807  -0.675  0.00  0.00    +0.182 C 
ATOM     21  C   UNL     1      -3.419   4.885  -1.536  0.00  0.00    +0.037 C 
BRANCH  20  22
ATOM     22  N   UNL     1      -5.693   4.002  -1.364  0.00  0.00    -0.176 NA
ATOM     23  H   UNL     1      -5.686   3.036  -1.278  0.00  0.00    +0.149 HD
BRANCH  22  24
ATOM     24  S   UNL     1      -6.849   4.743  -2.291  0.00  0.00    +0.059 S 
ATOM     25  O   UNL     1      -7.654   3.708  -2.839  0.00  0.00    -0.153 OA
ATOM     26  O   UNL     1      -7.392   5.792  -1.501  0.00  0.00    -0.153 OA
BRANCH  24  31
ATOM     27  C   UNL     1      -4.013   7.363  -6.927  0.00  0.00    +0.044 C 
ATOM     28  C   UNL     1      -4.721   6.708  -5.769  0.00  0.00    -0.050 A 
ATOM     29  C   UNL     1      -5.172   5.406  -5.881  0.00  0.00    +0.005 A 
ATOM     30  C   UNL     1      -5.822   4.806  -4.819  0.00  0.00    +0.029 A 
ATOM     31  C   UNL     1      -6.021   5.508  -3.644  0.00  0.00    +0.105 A 
ATOM     32  C   UNL     1      -5.575   6.811  -3.534  0.00  0.00    +0.029 A 
ATOM     33  C   UNL     1      -4.921   7.410  -4.595  0.00  0.00    +0.005 A 
ENDBRANCH  24  31
ENDBRANCH  22  24
ENDBRANCH  20  22
ENDBRANCH  18  20
ENDBRANCH   1  18
TORSDOF 6
