REMARK  Name = ZINC32577030
REMARK  7 active torsions:
REMARK  status: ('A' for Active; 'I' for Inactive)
REMARK    1  A    between atoms: C_1  and  C_2
REMARK    2  A    between atoms: C_5  and  N_8
REMARK    3  A    between atoms: C_17  and  S_18
REMARK    4  A    between atoms: S_18  and  C_19
REMARK    5  A    between atoms: C_19  and  C_20
REMARK    6  A    between atoms: N_22  and  N_23
REMARK    7  A    between atoms: C_24  and  C_25
REMARK                            x       y       z     vdW  Elec       q    Type
REMARK                         _______ _______ _______ _____ _____    ______ ____
ROOT
ATOM      1  N   UNL     1       1.075  -4.984   3.867  0.00  0.00    -0.255 N 
ATOM      2  C   UNL     1       1.518  -3.903   4.550  0.00  0.00    +0.268 A 
ATOM      3  O   UNL     1       2.706  -3.651   4.662  0.00  0.00    -0.267 OA
ATOM      4  C   UNL     1       0.506  -3.073   5.133  0.00  0.00    +0.076 A 
ATOM      5  C   UNL     1       0.718  -1.862   5.909  0.00  0.00    -0.023 A 
ATOM      6  C   UNL     1      -0.389  -1.233   6.366  0.00  0.00    -0.004 A 
ATOM      7  S   UNL     1      -1.753  -2.213   5.789  0.00  0.00    -0.073 S 
ATOM      8  C   UNL     1      -0.839  -3.461   4.939  0.00  0.00    +0.117 A 
ATOM      9  N   UNL     1      -1.210  -4.537   4.256  0.00  0.00    -0.215 NA
ATOM     10  C   UNL     1      -0.249  -5.284   3.730  0.00  0.00    +0.178 A 
ATOM     11  C   UNL     1      -0.448   0.021   7.183  0.00  0.00    +0.043 C 
ATOM     12  C   UNL     1       0.952   0.300   7.747  0.00  0.00    +0.005 C 
ATOM     13  C   UNL     1       1.973   0.165   6.613  0.00  0.00    +0.005 C 
ATOM     14  C   UNL     1       2.106  -1.304   6.209  0.00  0.00    +0.037 C 
ENDROOT
BRANCH   1  19
ATOM     15  C   UNL     1       4.895  -8.427   1.468  0.00  0.00    +0.044 C 
ATOM     16  C   UNL     1       3.880  -7.513   2.104  0.00  0.00    -0.050 A 
ATOM     17  C   UNL     1       3.734  -6.217   1.644  0.00  0.00    +0.005 A 
ATOM     18  C   UNL     1       2.805  -5.377   2.226  0.00  0.00    +0.026 A 
ATOM     19  C   UNL     1       2.018  -5.834   3.274  0.00  0.00    +0.052 A 
ATOM     20  C   UNL     1       2.171  -7.134   3.737  0.00  0.00    +0.026 A 
ATOM     21  C   UNL     1       3.098  -7.971   3.148  0.00  0.00    +0.005 A 
ENDBRANCH   1  19
BRANCH  10  22
ATOM     22  S   UNL     1      -0.700  -6.721   2.816  0.00  0.00    -0.078 S 
BRANCH  22  23
ATOM     23  C   UNL     1      -2.502  -6.628   2.954  0.00  0.00    +0.174 C 
BRANCH  23  24
ATOM     24  C   UNL     1      -3.122  -7.792   2.225  0.00  0.00    +0.242 C 
ATOM     25  O   UNL     1      -2.415  -8.604   1.667  0.00  0.00    -0.273 OA
ATOM     26  N   UNL     1      -4.463  -7.931   2.193  0.00  0.00    -0.206 N 
ATOM     27  H   UNL     1      -5.104  -7.194   2.700  0.00  0.00    +0.177 HD
BRANCH  26  28
ATOM     28  N   UNL     1      -5.039  -9.013   1.515  0.00  0.00    -0.188 NA
ATOM     29  C   UNL     1      -6.328  -9.079   1.377  0.00  0.00    +0.138 C 
BRANCH  29  30
ATOM     30  C   UNL     1      -7.136  -7.846   1.394  0.00  0.00    -0.005 A 
ATOM     31  C   UNL     1      -8.523  -7.918   1.549  0.00  0.00    +0.012 A 
ATOM     32  C   UNL     1      -9.272  -6.761   1.571  0.00  0.00    +0.039 A 
ATOM     33  C   UNL     1      -8.654  -5.529   1.427  0.00  0.00    +0.123 A 
ATOM     34  C   UNL     1      -7.280  -5.451   1.268  0.00  0.00    +0.039 A 
ATOM     35  C   UNL     1      -6.519  -6.601   1.250  0.00  0.00    +0.012 A 
ATOM     36  F   UNL     1      -9.395  -4.399   1.444  0.00  0.00    -0.205 F 
ENDBRANCH  29  30
ENDBRANCH  26  28
ENDBRANCH  23  24
ENDBRANCH  22  23
ENDBRANCH  10  22
TORSDOF 6
