REMARK  Name = ZINC05415498
REMARK  8 active torsions:
REMARK  status: ('A' for Active; 'I' for Inactive)
REMARK    1  A    between atoms: C_1  and  C_2
REMARK    2  A    between atoms: C_2  and  C_3
REMARK    3  A    between atoms: C_9  and  C_11
REMARK    4  A    between atoms: C_11  and  C_12
REMARK    5  A    between atoms: N_14  and  C_15
REMARK    6  A    between atoms: N_23  and  C_24
REMARK    7  A    between atoms: C_24  and  C_25
REMARK    8  A    between atoms: C_24  and  C_26
REMARK                            x       y       z     vdW  Elec       q    Type
REMARK                         _______ _______ _______ _____ _____    ______ ____
ROOT
ATOM      1  C   UNL     1      -1.413  -2.059  -0.118  0.00  0.00    +0.010 C 
ATOM      2  C   UNL     1      -2.853  -2.582  -0.143  0.00  0.00    +0.113 C 
ATOM      3  N   UNL     1      -3.555  -2.089   1.049  0.00  0.00    -0.285 N 
ATOM      4  C   UNL     1      -3.556  -0.646   1.323  0.00  0.00    +0.109 C 
ATOM      5  C   UNL     1      -2.108  -0.145   1.331  0.00  0.00    +0.023 C 
ATOM      6  C   UNL     1      -1.430  -0.535   0.016  0.00  0.00    +0.004 C 
ATOM      7  C   UNL     1      -4.188  -2.945   1.876  0.00  0.00    +0.302 C 
ATOM      8  O   UNL     1      -4.259  -4.125   1.591  0.00  0.00    -0.253 OA
ATOM      9  N   UNL     1      -4.741  -2.493   3.019  0.00  0.00    -0.297 N 
ATOM     10  H   UNL     1      -4.749  -1.542   3.211  0.00  0.00    +0.150 HD
ENDROOT
BRANCH   9  11
ATOM     11  C   UNL     1      -5.331  -3.438   3.971  0.00  0.00    +0.068 C 
ATOM     12  C   UNL     1      -4.237  -3.985   4.890  0.00  0.00    +0.027 C 
ATOM     13  C   UNL     1      -6.390  -2.721   4.811  0.00  0.00    +0.027 C 
ENDBRANCH   9  11
BRANCH   1  15
ATOM     14  C   UNL     1      -0.543  -4.181   0.874  0.00  0.00    +0.004 C 
ATOM     15  C   UNL     1      -0.668  -2.669   1.071  0.00  0.00    +0.002 C 
ENDBRANCH   1  15
BRANCH   6  16
ATOM     16  C   UNL     1       0.006  -0.006   0.007  0.00  0.00    +0.099 C 
BRANCH  16  17
ATOM     17  C   UNL     1      -0.014   1.500   0.015  0.00  0.00    +0.214 C 
ATOM     18  O   UNL     1      -1.072   2.093   0.022  0.00  0.00    -0.276 OA
ATOM     19  N   UNL     1       1.145   2.189   0.009  0.00  0.00    -0.312 N 
ATOM     20  H   UNL     1       1.991   1.715  -0.001  0.00  0.00    +0.149 HD
BRANCH  19  21
ATOM     21  C   UNL     1       1.126   3.654   0.017  0.00  0.00    +0.073 C 
ATOM     22  C   UNL     1       0.981   4.170  -1.416  0.00  0.00    +0.022 C 
ATOM     23  C   UNL     1       0.962   5.700  -1.407  0.00  0.00    +0.002 C 
ATOM     24  C   UNL     1       2.267   6.224  -0.806  0.00  0.00    +0.000 C 
ATOM     25  C   UNL     1       2.412   5.707   0.627  0.00  0.00    +0.002 C 
ATOM     26  C   UNL     1       2.432   4.178   0.619  0.00  0.00    +0.022 C 
ENDBRANCH  19  21
ENDBRANCH  16  17
ENDBRANCH   6  16
TORSDOF 5
