REMARK  Name = ZINC35788722
REMARK  10 active torsions:
REMARK  status: ('A' for Active; 'I' for Inactive)
REMARK    1  A    between atoms: C_1  and  C_2
REMARK    2  A    between atoms: C_2  and  O_3
REMARK    3  A    between atoms: O_3  and  C_4
REMARK    4  A    between atoms: C_4  and  C_6
REMARK    5  A    between atoms: N_11  and  C_13
REMARK    6  A    between atoms: C_13  and  C_14
REMARK    7  A    between atoms: C_17  and  C_30
REMARK    8  A    between atoms: C_20  and  C_22
REMARK    9  A    between atoms: C_24  and  C_29
REMARK   10  A    between atoms: C_27  and  C_28
REMARK                            x       y       z     vdW  Elec       q    Type
REMARK                         _______ _______ _______ _____ _____    ______ ____
ROOT
ATOM      1  C   UNL     1       2.168  -6.509  -5.050  0.00  0.00    +0.219 C 
ATOM      2  O   UNL     1       2.449  -5.767  -5.968  0.00  0.00    -0.276 OA
ATOM      3  N   UNL     1       2.432  -7.827  -5.145  0.00  0.00    -0.187 N 
ATOM      4  C   UNL     1       3.059  -8.494  -6.297  0.00  0.00    +0.137 C 
ATOM      5  C   UNL     1       3.117  -9.974  -5.870  0.00  0.00    +0.087 C 
ATOM      6  C   UNL     1       2.499  -9.980  -4.490  0.00  0.00    +0.069 C 
ATOM      7  N   UNL     1       2.159  -8.780  -4.166  0.00  0.00    -0.181 NA
ENDROOT
BRANCH   4   8
ATOM      8  C   UNL     1       2.212  -8.328  -7.532  0.00  0.00    -0.021 A 
ATOM      9  C   UNL     1       0.834  -8.382  -7.436  0.00  0.00    +0.009 A 
ATOM     10  C   UNL     1       0.053  -8.229  -8.567  0.00  0.00    +0.050 A 
ATOM     11  C   UNL     1       0.651  -8.021  -9.799  0.00  0.00    +0.166 A 
ATOM     12  C   UNL     1       2.039  -7.966  -9.896  0.00  0.00    +0.167 A 
ATOM     13  C   UNL     1       2.815  -8.114  -8.758  0.00  0.00    +0.055 A 
ATOM     14  O   UNL     1       2.378  -7.754 -11.201  0.00  0.00    -0.453 OA
ATOM     15  C   UNL     1       1.202  -8.088 -11.962  0.00  0.00    +0.466 C 
ATOM     16  O   UNL     1       0.120  -7.844 -11.044  0.00  0.00    -0.453 OA
ENDBRANCH   4   8
BRANCH   6  17
ATOM     17  C   UNL     1       2.320 -11.174  -3.642  0.00  0.00    +0.001 A 
ATOM     18  C   UNL     1       2.620 -12.442  -4.144  0.00  0.00    +0.013 A 
ATOM     19  C   UNL     1       2.450 -13.554  -3.347  0.00  0.00    -0.050 A 
ATOM     20  C   UNL     1       1.982 -13.415  -2.052  0.00  0.00    +0.003 A 
ATOM     21  C   UNL     1       1.682 -12.162  -1.548  0.00  0.00    +0.004 A 
ATOM     22  C   UNL     1       1.854 -11.040  -2.333  0.00  0.00    -0.042 A 
ATOM     23  C   UNL     1       1.533  -9.676  -1.780  0.00  0.00    +0.044 C 
ATOM     24  C   UNL     1       2.773 -14.923  -3.886  0.00  0.00    +0.044 C 
ENDBRANCH   6  17
BRANCH   1  25
ATOM     25  C   UNL     1       1.525  -5.956  -3.804  0.00  0.00    +0.021 C 
BRANCH  25  30
ATOM     26  C   UNL     1       0.725  -2.428  -2.806  0.00  0.00    +0.081 C 
ATOM     27  C   UNL     1      -0.239  -2.080  -3.944  0.00  0.00    +0.011 C 
ATOM     28  C   UNL     1       0.261  -2.727  -5.239  0.00  0.00    -0.018 C 
ATOM     29  C   UNL     1       0.391  -4.237  -5.031  0.00  0.00    -0.078 C 
ATOM     30  N   UNL     1       1.345  -4.506  -3.948  0.00  0.00    +0.386 N 
ATOM     31  C   UNL     1       0.839  -3.950  -2.688  0.00  0.00    -0.064 C 
ATOM     32  H   UNL     1       2.232  -4.079  -4.170  0.00  0.00    -0.081 HD
BRANCH  26  33
ATOM     33  C   UNL     1       0.202  -1.860  -1.512  0.00  0.00    +0.308 C 
ATOM     34  O   UNL     1      -0.052  -2.596  -0.588  0.00  0.00    -0.251 OA
BRANCH  33  35
ATOM     35  O   UNL     1       0.019  -0.537  -1.385  0.00  0.00    -0.465 OA
BRANCH  35  37
ATOM     36  C   UNL     1      -0.622   1.455  -0.175  0.00  0.00    +0.048 C 
ATOM     37  C   UNL     1      -0.479  -0.068  -0.131  0.00  0.00    +0.229 C 
ENDBRANCH  35  37
ENDBRANCH  33  35
ENDBRANCH  26  33
ENDBRANCH  25  30
ENDBRANCH   1  25
TORSDOF 7
