REMARK  Name = ZINC33097116
REMARK  9 active torsions:
REMARK  status: ('A' for Active; 'I' for Inactive)
REMARK    1  A    between atoms: C_1  and  C_2
REMARK    2  A    between atoms: C_2  and  O_3
REMARK    3  A    between atoms: O_3  and  C_4
REMARK    4  A    between atoms: C_4  and  C_6
REMARK    5  A    between atoms: C_7  and  C_40
REMARK    6  A    between atoms: C_14  and  C_15
REMARK    7  A    between atoms: C_26  and  C_28
REMARK    8  A    between atoms: C_31  and  O_38
REMARK    9  A    between atoms: O_38  and  C_39
REMARK                            x       y       z     vdW  Elec       q    Type
REMARK                         _______ _______ _______ _____ _____    ______ ____
ROOT
ATOM      1  C   UNL     1      -0.675   0.879   0.208  0.00  0.00    +0.085 C 
ATOM      2  C   UNL     1       0.503   0.335   0.641  0.00  0.00    +0.053 C 
ATOM      3  N   UNL     1       1.617   1.055   0.646  0.00  0.00    -0.228 NA
ATOM      4  C   UNL     1       1.701   2.300   0.255  0.00  0.00    +0.178 A 
ATOM      5  N   UNL     1       0.637   3.036  -0.217  0.00  0.00    -0.275 N 
ATOM      6  C   UNL     1       0.858   4.303  -0.585  0.00  0.00    +0.268 A 
ATOM      7  O   UNL     1      -0.055   4.989  -1.009  0.00  0.00    -0.266 OA
ATOM      8  C   UNL     1       2.169   4.841  -0.477  0.00  0.00    +0.081 A 
ATOM      9  C   UNL     1       2.620   6.088  -0.789  0.00  0.00    +0.030 C 
ATOM     10  S   UNL     1       3.067   3.442   0.176  0.00  0.00    -0.046 S 
ATOM     11  C   UNL     1      -0.665   2.316  -0.263  0.00  0.00    +0.162 C 
ATOM     12  C   UNL     1       0.534  -1.095   1.118  0.00  0.00    +0.066 C 
ENDROOT
BRANCH   9  13
ATOM     13  C   UNL     1       4.003   6.460  -0.494  0.00  0.00    +0.001 A 
ATOM     14  C   UNL     1       5.026   5.615  -0.166  0.00  0.00    +0.091 A 
ATOM     15  N   UNL     1       6.163   6.330   0.035  0.00  0.00    -0.360 N 
ATOM     16  H   UNL     1       7.097   5.814   0.302  0.00  0.00    +0.165 HD
ATOM     17  C   UNL     1       5.923   7.676  -0.147  0.00  0.00    +0.047 A 
ATOM     18  C   UNL     1       4.568   7.823  -0.485  0.00  0.00    +0.007 A 
ATOM     19  C   UNL     1       4.042   9.089  -0.728  0.00  0.00    +0.010 A 
ATOM     20  C   UNL     1       4.858  10.196  -0.635  0.00  0.00    +0.001 A 
ATOM     21  C   UNL     1       6.197  10.053  -0.302  0.00  0.00    +0.002 A 
ATOM     22  C   UNL     1       6.730   8.806  -0.059  0.00  0.00    +0.026 A 
ENDBRANCH   9  13
BRANCH  11  23
ATOM     23  C   UNL     1      -1.161   2.341  -1.686  0.00  0.00    -0.012 A 
ATOM     24  C   UNL     1      -0.274   2.308  -2.718  0.00  0.00    +0.010 A 
ATOM     25  C   UNL     1      -0.709   2.330  -4.040  0.00  0.00    +0.046 A 
ATOM     26  C   UNL     1      -2.041   2.385  -4.340  0.00  0.00    +0.128 A 
ATOM     27  C   UNL     1      -2.988   2.420  -3.296  0.00  0.00    +0.024 A 
ATOM     28  C   UNL     1      -2.539   2.392  -1.952  0.00  0.00    -0.009 A 
ATOM     29  C   UNL     1      -3.482   2.432  -0.910  0.00  0.00    +0.009 A 
ATOM     30  C   UNL     1      -4.810   2.488  -1.205  0.00  0.00    +0.001 A 
ATOM     31  C   UNL     1      -5.250   2.510  -2.527  0.00  0.00    +0.001 A 
ATOM     32  C   UNL     1      -4.365   2.477  -3.561  0.00  0.00    +0.012 A 
BRANCH  26  33
ATOM     33  O   UNL     1      -2.451   2.406  -5.634  0.00  0.00    -0.495 OA
ATOM     34  C   UNL     1      -1.433   2.367  -6.637  0.00  0.00    +0.277 C 
ENDBRANCH  26  33
ENDBRANCH  11  23
BRANCH   1  35
ATOM     35  C   UNL     1      -1.859   0.124   0.200  0.00  0.00    +0.339 C 
ATOM     36  O   UNL     1      -2.643   0.212   1.128  0.00  0.00    -0.245 OA
BRANCH  35  37
ATOM     37  O   UNL     1      -2.128  -0.698  -0.837  0.00  0.00    -0.462 OA
BRANCH  37  39
ATOM     38  C   UNL     1      -3.482  -2.314  -2.019  0.00  0.00    +0.048 C 
ATOM     39  C   UNL     1      -3.400  -1.351  -0.833  0.00  0.00    +0.229 C 
ENDBRANCH  37  39
ENDBRANCH  35  37
ENDBRANCH   1  35
TORSDOF 6
