REMARK  Name = ZINC59915441
REMARK  10 active torsions:
REMARK  status: ('A' for Active; 'I' for Inactive)
REMARK    1  A    between atoms: C_1  and  C_2
REMARK    2  A    between atoms: C_2  and  C_3
REMARK    3  A    between atoms: C_3  and  C_4
REMARK    4  A    between atoms: C_4  and  C_5
REMARK    5  A    between atoms: C_5  and  C_24
REMARK    6  A    between atoms: N_6  and  N_7
REMARK    7  A    between atoms: C_11  and  S_14
REMARK    8  A    between atoms: N_12  and  N_13
REMARK    9  A    between atoms: S_14  and  C_15
REMARK   10  A    between atoms: C_15  and  C_16
REMARK                            x       y       z     vdW  Elec       q    Type
REMARK                         _______ _______ _______ _____ _____    ______ ____
ROOT
ATOM      1  N   UNL     1      -4.589  -3.726  -0.979  0.00  0.00    -0.204 N 
ATOM      2  C   UNL     1      -5.074  -4.437  -2.068  0.00  0.00    +0.254 A 
ATOM      3  N   UNL     1      -4.408  -4.726  -3.159  0.00  0.00    -0.109 NA
ATOM      4  N   UNL     1      -5.256  -5.452  -4.005  0.00  0.00    -0.119 NA
ATOM      5  C   UNL     1      -6.414  -5.582  -3.404  0.00  0.00    +0.210 A 
ATOM      6  N   UNL     1      -6.330  -4.963  -2.188  0.00  0.00    -0.211 N 
ATOM      7  H   UNL     1      -5.159  -3.565  -0.211  0.00  0.00    +0.177 HD
ENDROOT
BRANCH   1   9
ATOM      8  C   UNL     1      -2.826  -2.585   0.015  0.00  0.00    +0.034 C 
ATOM      9  N   UNL     1      -3.274  -3.241  -0.989  0.00  0.00    -0.189 NA
ATOM     10  C   UNL     1      -3.713  -2.335   1.208  0.00  0.00    +0.062 C 
BRANCH   8  11
ATOM     11  C   UNL     1      -1.413  -2.063   0.004  0.00  0.00    +0.052 C 
BRANCH  11  12
ATOM     12  C   UNL     1      -1.433  -0.534   0.013  0.00  0.00    +0.006 C 
BRANCH  12  14
ATOM     13  C   UNL     1      -0.019   1.526   0.010  0.00  0.00    +0.004 C 
ATOM     14  C   UNL     1       0.002  -0.004   0.002  0.00  0.00    -0.003 C 
ENDBRANCH  12  14
ENDBRANCH  11  12
ENDBRANCH   8  11
ENDBRANCH   1   9
BRANCH   6  15
ATOM     15  N   UNL     1      -7.327  -4.882  -1.258  0.00  0.00    -0.294 N 
ATOM     16  H   UNL     1      -7.891  -4.058  -1.403  0.00  0.00    +0.163 HD
ATOM     17  H   UNL     1      -7.897  -5.715  -1.265  0.00  0.00    +0.163 HD
ENDBRANCH   6  15
BRANCH   5  18
ATOM     18  S   UNL     1      -7.828  -6.414  -4.047  0.00  0.00    -0.080 S 
BRANCH  18  19
ATOM     19  C   UNL     1      -7.285  -7.010  -5.672  0.00  0.00    +0.112 C 
BRANCH  19  20
ATOM     20  C   UNL     1      -8.415  -7.750  -6.339  0.00  0.00    -0.036 A 
ATOM     21  C   UNL     1      -8.562  -9.111  -6.140  0.00  0.00    +0.006 A 
ATOM     22  C   UNL     1      -9.598  -9.791  -6.752  0.00  0.00    +0.022 A 
ATOM     23  C   UNL     1     -10.489  -9.111  -7.563  0.00  0.00    +0.059 A 
ATOM     24  C   UNL     1     -10.342  -7.749  -7.761  0.00  0.00    +0.060 A 
ATOM     25  C   UNL     1      -9.307  -7.068  -7.144  0.00  0.00    +0.026 A 
ATOM     26 CL   UNL     1     -11.458  -6.894  -8.779  0.00  0.00    -0.082 Cl
ATOM     27 CL   UNL     1     -11.790  -9.965  -8.332  0.00  0.00    -0.082 Cl
ENDBRANCH  19  20
ENDBRANCH  18  19
ENDBRANCH   5  18
TORSDOF 8
