REMARK  Name = ZINC04163101
REMARK  8 active torsions:
REMARK  status: ('A' for Active; 'I' for Inactive)
REMARK    1  A    between atoms: C_1  and  C_2
REMARK    2  A    between atoms: C_2  and  C_3
REMARK    3  A    between atoms: C_2  and  C_4
REMARK    4  A    between atoms: C_2  and  C_5
REMARK    5  A    between atoms: C_8  and  C_11
REMARK    6  A    between atoms: C_14  and  C_25
REMARK    7  A    between atoms: C_20  and  N_24
REMARK    8  A    between atoms: C_21  and  C_22
REMARK                            x       y       z     vdW  Elec       q    Type
REMARK                         _______ _______ _______ _____ _____    ______ ____
ROOT
ATOM      1  C   UNL     1       2.707  -1.868  -4.752  0.00  0.00    +0.102 C 
ATOM      2  C   UNL     1       3.913  -2.684  -4.364  0.00  0.00    +0.054 A 
ATOM      3  C   UNL     1       3.978  -3.927  -3.829  0.00  0.00    +0.075 A 
ATOM      4  N   UNL     1       5.301  -4.225  -3.657  0.00  0.00    -0.273 N 
ATOM      5  H   UNL     1       5.657  -5.050  -3.291  0.00  0.00    +0.189 HD
ATOM      6  N   UNL     1       6.051  -3.127  -4.103  0.00  0.00    -0.135 NA
ATOM      7  C   UNL     1       5.229  -2.208  -4.525  0.00  0.00    +0.245 A 
ATOM      8  O   UNL     1       5.492  -0.979  -5.046  0.00  0.00    -0.421 OA
ATOM      9  C   UNL     1       4.478  -0.333  -5.656  0.00  0.00    +0.201 C 
ATOM     10  C   UNL     1       3.179  -0.689  -5.566  0.00  0.00    +0.098 C 
ENDROOT
BRANCH   1  14
ATOM     11  C   UNL     1       0.707  -0.490  -1.238  0.00  0.00    -0.042 A 
ATOM     12  C   UNL     1       0.036  -1.284  -2.148  0.00  0.00    +0.004 A 
ATOM     13  C   UNL     1       0.683  -1.730  -3.286  0.00  0.00    +0.005 A 
ATOM     14  C   UNL     1       2.001  -1.381  -3.513  0.00  0.00    -0.035 A 
ATOM     15  C   UNL     1       2.672  -0.586  -2.603  0.00  0.00    +0.005 A 
ATOM     16  C   UNL     1       2.024  -0.137  -1.467  0.00  0.00    +0.004 A 
BRANCH  11  18
ATOM     17  C   UNL     1      -0.019   1.526   0.010  0.00  0.00    +0.015 C 
ATOM     18  C   UNL     1       0.002  -0.004   0.002  0.00  0.00    -0.013 C 
ATOM     19  C   UNL     1       0.742  -0.511   1.242  0.00  0.00    +0.015 C 
ATOM     20  C   UNL     1      -1.433  -0.534   0.013  0.00  0.00    +0.015 C 
ENDBRANCH  11  18
ENDBRANCH   1  14
BRANCH   3  21
ATOM     21  C   UNL     1       2.831  -4.799  -3.492  0.00  0.00    +0.018 A 
ATOM     22  C   UNL     1       2.789  -5.479  -2.270  0.00  0.00    +0.013 A 
ATOM     23  C   UNL     1       1.694  -6.282  -2.003  0.00  0.00    +0.020 A 
ATOM     24  C   UNL     1       0.685  -6.385  -2.944  0.00  0.00    +0.111 A 
ATOM     25  N   UNL     1       0.752  -5.732  -4.088  0.00  0.00    -0.263 NA
ATOM     26  C   UNL     1       1.771  -4.952  -4.385  0.00  0.00    +0.120 A 
ENDBRANCH   3  21
BRANCH   9  27
ATOM     27  N   UNL     1       4.788   0.762  -6.423  0.00  0.00    -0.328 N 
ATOM     28  H   UNL     1       5.711   1.047  -6.511  0.00  0.00    +0.145 HD
ATOM     29  H   UNL     1       4.084   1.251  -6.877  0.00  0.00    +0.145 HD
ENDBRANCH   9  27
BRANCH  10  30
ATOM     30  C   UNL     1       2.205   0.086  -6.273  0.00  0.00    +0.101 C 
ATOM     31  N   UNL     1       1.433   0.702  -6.835  0.00  0.00    -0.191 NA
ENDBRANCH  10  30
TORSDOF 5
