REMARK  Name = ZINC30041515
REMARK  5 active torsions:
REMARK  status: ('A' for Active; 'I' for Inactive)
REMARK    1  A    between atoms: C_4  and  O_32
REMARK    2  A    between atoms: C_5  and  C_7
REMARK    3  A    between atoms: C_13  and  C_16
REMARK    4  A    between atoms: C_22  and  C_25
REMARK    5  A    between atoms: O_32  and  C_33
REMARK                            x       y       z     vdW  Elec       q    Type
REMARK                         _______ _______ _______ _____ _____    ______ ____
ROOT
ATOM      1  C   UNL     1      -2.935   0.799  -1.838  0.00  0.00    +0.250 C 
ATOM      2  O   UNL     1      -2.296   0.574  -2.848  0.00  0.00    -0.270 OA
ATOM      3  N   UNL     1      -2.342   1.395  -0.785  0.00  0.00    -0.297 N 
ATOM      4  C   UNL     1      -3.067   1.570   0.481  0.00  0.00    +0.108 C 
ATOM      5  C   UNL     1      -2.229   0.972   1.616  0.00  0.00    +0.020 C 
ATOM      6  C   UNL     1      -0.832   1.599   1.599  0.00  0.00    +0.016 C 
ATOM      7  C   UNL     1      -0.145   1.279   0.270  0.00  0.00    +0.092 C 
ATOM      8  C   UNL     1      -0.959   1.880  -0.880  0.00  0.00    +0.120 C 
ENDROOT
BRANCH   7   9
ATOM      9  C   UNL     1       1.242   1.868   0.266  0.00  0.00    +0.220 C 
ATOM     10  O   UNL     1       1.549   2.701   1.093  0.00  0.00    -0.275 OA
ATOM     11  N   UNL     1       2.142   1.469  -0.655  0.00  0.00    -0.296 N 
ATOM     12  C   UNL     1       3.536   1.938  -0.605  0.00  0.00    +0.136 C 
ATOM     13  C   UNL     1       4.457   0.711  -0.698  0.00  0.00    +0.179 C 
ATOM     14  O   UNL     1       4.090  -0.066  -1.841  0.00  0.00    -0.369 OA
ATOM     15  C   UNL     1       2.764  -0.598  -1.784  0.00  0.00    +0.166 C 
ATOM     16  C   UNL     1       1.757   0.557  -1.743  0.00  0.00    +0.144 C 
BRANCH  15  17
ATOM     17  C   UNL     1       2.509  -1.445  -3.005  0.00  0.00    -0.017 A 
ATOM     18  C   UNL     1       3.062  -1.088  -4.221  0.00  0.00    +0.009 A 
ATOM     19  C   UNL     1       2.833  -1.866  -5.340  0.00  0.00    +0.039 A 
ATOM     20  C   UNL     1       2.041  -2.998  -5.245  0.00  0.00    +0.123 A 
ATOM     21  C   UNL     1       1.484  -3.351  -4.028  0.00  0.00    +0.039 A 
ATOM     22  C   UNL     1       1.718  -2.575  -2.909  0.00  0.00    +0.009 A 
ATOM     23  F   UNL     1       1.813  -3.756  -6.339  0.00  0.00    -0.205 F 
ENDBRANCH  15  17
ENDBRANCH   7   9
BRANCH   1  28
ATOM     24  C   UNL     1      -6.644   0.997  -1.298  0.00  0.00    +0.001 A 
ATOM     25  C   UNL     1      -7.037  -0.289  -1.633  0.00  0.00    +0.004 A 
ATOM     26  C   UNL     1      -6.103  -1.223  -2.034  0.00  0.00    +0.046 A 
ATOM     27  C   UNL     1      -4.762  -0.877  -2.109  0.00  0.00    +0.139 A 
ATOM     28  C   UNL     1      -4.359   0.421  -1.767  0.00  0.00    +0.079 A 
ATOM     29  C   UNL     1      -5.315   1.356  -1.363  0.00  0.00    +0.017 A 
BRANCH  27  30
ATOM     30  O   UNL     1      -3.843  -1.792  -2.509  0.00  0.00    -0.433 OA
BRANCH  30  31
ATOM     31  C   UNL     1      -4.328  -3.094  -2.842  0.00  0.00    +0.541 C 
ATOM     32  F   UNL     1      -4.959  -3.657  -1.727  0.00  0.00    -0.166 F 
ATOM     33  F   UNL     1      -5.243  -2.996  -3.895  0.00  0.00    -0.166 F 
ENDBRANCH  30  31
ENDBRANCH  27  30
ENDBRANCH   1  28
TORSDOF 5
