REMARK  Name = ZINC07875361
REMARK  15 active torsions:
REMARK  status: ('A' for Active; 'I' for Inactive)
REMARK    1  A    between atoms: C_1  and  C_2
REMARK    2  A    between atoms: C_2  and  C_3
REMARK    3  A    between atoms: C_2  and  C_4
REMARK    4  A    between atoms: C_4  and  C_5
REMARK    5  A    between atoms: C_8  and  C_11
REMARK    6  A    between atoms: C_11  and  C_13
REMARK    7  A    between atoms: C_11  and  N_62
REMARK    8  A    between atoms: C_13  and  C_14
REMARK    9  A    between atoms: C_13  and  C_15
REMARK   10  A    between atoms: C_16  and  C_18
REMARK   11  A    between atoms: C_16  and  C_19
REMARK   12  A    between atoms: C_16  and  N_62
REMARK   13  A    between atoms: N_21  and  C_22
REMARK   14  A    between atoms: C_25  and  S_28
REMARK   15  A    between atoms: S_28  and  N_31
REMARK                            x       y       z     vdW  Elec       q    Type
REMARK                         _______ _______ _______ _____ _____    ______ ____
ROOT
ATOM      1  C   UNL     1      -1.034   2.509   2.350  0.00  0.00    +0.014 C 
ATOM      2  C   UNL     1      -1.623   1.098   2.285  0.00  0.00    -0.004 C 
ENDROOT
BRANCH   1   3
ATOM      3  C   UNL     1       0.068   2.546   3.377  0.00  0.00    +0.203 C 
ATOM      4  O   UNL     1       1.195   2.847   3.046  0.00  0.00    -0.277 OA
ATOM      5  N   UNL     1      -0.199   2.245   4.664  0.00  0.00    -0.287 N 
ATOM      6  H   UNL     1      -1.082   1.932   4.915  0.00  0.00    +0.155 HD
BRANCH   5   7
ATOM      7  C   UNL     1       0.798   2.382   5.636  0.00  0.00    +0.033 A 
ATOM      8  C   UNL     1       0.840   1.512   6.718  0.00  0.00    +0.025 A 
ATOM      9  C   UNL     1       1.829   1.648   7.673  0.00  0.00    +0.030 A 
ATOM     10  C   UNL     1       2.769   2.655   7.559  0.00  0.00    +0.105 A 
ATOM     11  C   UNL     1       2.727   3.526   6.486  0.00  0.00    +0.030 A 
ATOM     12  C   UNL     1       1.744   3.393   5.524  0.00  0.00    +0.025 A 
BRANCH  10  13
ATOM     13  S   UNL     1       4.025   2.828   8.782  0.00  0.00    +0.056 S 
ATOM     14  O   UNL     1       4.174   1.554   9.394  0.00  0.00    -0.153 OA
ATOM     15  O   UNL     1       5.108   3.506   8.160  0.00  0.00    -0.153 OA
BRANCH  13  16
ATOM     16  N   UNL     1       3.436   3.846   9.948  0.00  0.00    -0.204 NA
ATOM     17  H   UNL     1       3.728   3.752  10.868  0.00  0.00    +0.144 HD
ATOM     18  H   UNL     1       2.798   4.538   9.710  0.00  0.00    +0.144 HD
ENDBRANCH  13  16
ENDBRANCH  10  13
ENDBRANCH   5   7
ENDBRANCH   1   3
BRANCH   1  19
ATOM     19  N   UNL     1      -0.481   2.873   1.032  0.00  0.00    +0.391 N 
ATOM     20  H   UNL     1       0.287   3.542   1.161  0.00  0.00    -0.084 HD
ATOM     21  H   UNL     1      -0.124   2.028   0.570  0.00  0.00    -0.084 HD
BRANCH  19  22
ATOM     22  C   UNL     1      -1.525   3.485   0.190  0.00  0.00    -0.037 C 
BRANCH  22  26
ATOM     23  C   UNL     1      -1.632   7.697   0.890  0.00  0.00    -0.047 A 
ATOM     24  C   UNL     1      -2.811   6.995   0.722  0.00  0.00    +0.004 A 
ATOM     25  C   UNL     1      -2.776   5.631   0.495  0.00  0.00    +0.002 A 
ATOM     26  C   UNL     1      -1.563   4.971   0.437  0.00  0.00    -0.061 A 
ATOM     27  C   UNL     1      -0.385   5.673   0.610  0.00  0.00    +0.002 A 
ATOM     28  C   UNL     1      -0.419   7.037   0.832  0.00  0.00    +0.004 A 
BRANCH  23  29
ATOM     29  C   UNL     1      -1.670   9.183   1.138  0.00  0.00    +0.038 C 
BRANCH  29  31
ATOM     30  C   UNL     1      -1.657  10.953   2.902  0.00  0.00    +0.007 C 
ATOM     31  C   UNL     1      -1.744   9.448   2.643  0.00  0.00    -0.013 C 
ATOM     32  C   UNL     1      -3.068   8.912   3.191  0.00  0.00    +0.007 C 
ENDBRANCH  29  31
ENDBRANCH  23  29
ENDBRANCH  22  26
BRANCH  22  33
ATOM     33  C   UNL     1      -1.202   3.220  -1.282  0.00  0.00    -0.027 C 
ATOM     34  C   UNL     1      -1.290   1.719  -1.562  0.00  0.00    +0.006 C 
ATOM     35  C   UNL     1      -2.205   3.963  -2.166  0.00  0.00    +0.006 C 
ENDBRANCH  22  33
ENDBRANCH  19  22
ENDBRANCH   1  19
TORSDOF 10
