REMARK  Name = ZINC09742351
REMARK  9 active torsions:
REMARK  status: ('A' for Active; 'I' for Inactive)
REMARK    1  A    between atoms: C_1  and  N_2
REMARK    2  A    between atoms: N_2  and  C_3
REMARK    3  A    between atoms: N_2  and  S_9
REMARK    4  A    between atoms: S_9  and  C_12
REMARK    5  A    between atoms: C_15  and  C_18
REMARK    6  A    between atoms: N_20  and  C_21
REMARK    7  A    between atoms: C_21  and  C_22
REMARK    8  A    between atoms: C_22  and  C_24
REMARK    9  A    between atoms: C_22  and  N_29
REMARK                            x       y       z     vdW  Elec       q    Type
REMARK                         _______ _______ _______ _____ _____    ______ ____
ROOT
ATOM      1  C   UNL     1       5.538  -2.853  -2.716  0.00  0.00    +0.244 C 
ATOM      2  O   UNL     1       6.363  -2.029  -3.061  0.00  0.00    -0.270 OA
ATOM      3  N   UNL     1       5.918  -4.120  -2.457  0.00  0.00    -0.312 N 
ATOM      4  H   UNL     1       5.261  -4.777  -2.181  0.00  0.00    +0.149 HD
ENDROOT
BRANCH   1   8
ATOM      5  C   UNL     1       1.458  -1.738  -2.325  0.00  0.00    +0.109 A 
ATOM      6  C   UNL     1       2.394  -0.798  -2.718  0.00  0.00    +0.029 A 
ATOM      7  C   UNL     1       3.721  -1.154  -2.847  0.00  0.00    +0.015 A 
ATOM      8  C   UNL     1       4.118  -2.465  -2.579  0.00  0.00    +0.037 A 
ATOM      9  C   UNL     1       3.169  -3.408  -2.183  0.00  0.00    +0.015 A 
ATOM     10  C   UNL     1       1.846  -3.038  -2.053  0.00  0.00    +0.029 A 
BRANCH   5  11
ATOM     11  S   UNL     1      -0.234  -1.276  -2.163  0.00  0.00    +0.074 S 
ATOM     12  O   UNL     1      -0.989  -2.480  -2.187  0.00  0.00    -0.150 OA
ATOM     13  O   UNL     1      -0.457  -0.219  -3.086  0.00  0.00    -0.150 OA
BRANCH  11  15
ATOM     14  C   UNL     1      -0.105   0.780  -0.411  0.00  0.00    +0.157 C 
ATOM     15  N   UNL     1      -0.423  -0.630  -0.650  0.00  0.00    -0.206 N 
BRANCH  15  16
ATOM     16  C   UNL     1      -0.885  -1.429   0.398  0.00  0.00    +0.051 A 
ATOM     17  C   UNL     1      -0.669  -2.801   0.375  0.00  0.00    +0.025 A 
ATOM     18  C   UNL     1      -1.126  -3.588   1.413  0.00  0.00    +0.002 A 
ATOM     19  C   UNL     1      -1.800  -3.012   2.475  0.00  0.00    +0.000 A 
ATOM     20  C   UNL     1      -2.017  -1.647   2.501  0.00  0.00    +0.002 A 
ATOM     21  C   UNL     1      -1.557  -0.853   1.469  0.00  0.00    +0.025 A 
ENDBRANCH  15  16
ENDBRANCH  11  15
ENDBRANCH   5  11
ENDBRANCH   1   8
BRANCH   3  22
ATOM     22  C   UNL     1       7.326  -4.504  -2.592  0.00  0.00    +0.097 C 
BRANCH  22  23
ATOM     23  C   UNL     1       7.509  -5.945  -2.112  0.00  0.00    +0.016 C 
BRANCH  23  24
ATOM     24  N   UNL     1       7.043  -6.062  -0.724  0.00  0.00    +0.387 N 
ATOM     25  C   UNL     1       7.746  -5.080   0.111  0.00  0.00    -0.078 C 
ATOM     26  C   UNL     1       7.207  -5.142   1.542  0.00  0.00    -0.019 C 
ATOM     27  C   UNL     1       7.432  -6.548   2.105  0.00  0.00    -0.004 C 
ATOM     28  C   UNL     1       6.758  -7.571   1.186  0.00  0.00    -0.019 C 
ATOM     29  C   UNL     1       7.313  -7.418  -0.231  0.00  0.00    -0.078 C 
ATOM     30  H   UNL     1       6.051  -5.883  -0.687  0.00  0.00    -0.081 HD
ENDBRANCH  23  24
BRANCH  23  31
ATOM     31  C   UNL     1       8.967  -6.318  -2.186  0.00  0.00    +0.093 A 
ATOM     32  C   UNL     1       9.527  -7.127  -3.103  0.00  0.00    +0.043 A 
ATOM     33  C   UNL     1      10.906  -7.199  -2.799  0.00  0.00    +0.041 A 
ATOM     34  C   UNL     1      11.106  -6.429  -1.714  0.00  0.00    +0.195 A 
ATOM     35  O   UNL     1       9.930  -5.893  -1.351  0.00  0.00    -0.469 OA
ENDBRANCH  23  31
ENDBRANCH  22  23
ENDBRANCH   3  22
TORSDOF 8
