REMARK  Name = ZINC61590997
REMARK  6 active torsions:
REMARK  status: ('A' for Active; 'I' for Inactive)
REMARK    1  A    between atoms: C_1  and  C_2
REMARK    2  A    between atoms: C_2  and  C_3
REMARK    3  A    between atoms: C_2  and  C_4
REMARK    4  A    between atoms: C_4  and  C_6
REMARK    5  A    between atoms: C_4  and  C_9
REMARK    6  A    between atoms: C_9  and  O_15
REMARK                            x       y       z     vdW  Elec       q    Type
REMARK                         _______ _______ _______ _____ _____    ______ ____
ROOT
ATOM      1  C   UNL     1       2.049  -0.917  -1.509  0.00  0.00    +0.088 C 
ATOM      2  C   UNL     1       2.039  -2.056  -2.524  0.00  0.00    +0.037 C 
ATOM      3  C   UNL     1       3.425  -2.681  -2.651  0.00  0.00    +0.013 C 
ATOM      4  C   UNL     1       4.369  -1.715  -3.374  0.00  0.00    +0.069 C 
ATOM      5  S   UNL     1       4.535  -0.205  -2.374  0.00  0.00    -0.158 S 
ATOM      6  C   UNL     1       2.808   0.284  -2.080  0.00  0.00    +0.104 C 
ENDROOT
BRANCH   1   7
ATOM      7  O   UNL     1       2.689  -1.357  -0.310  0.00  0.00    -0.387 OA
ATOM      8  H   UNL     1       3.607  -1.635  -0.433  0.00  0.00    +0.210 HD
ENDBRANCH   1   7
BRANCH   1   9
ATOM      9  C   UNL     1       0.609  -0.504  -1.194  0.00  0.00    +0.137 C 
BRANCH   9  11
ATOM     10  C   UNL     1       0.379  -2.188   0.638  0.00  0.00    +0.008 C 
ATOM     11  C   UNL     1      -0.177  -1.725  -0.711  0.00  0.00    -0.001 C 
ATOM     12  C   UNL     1      -1.652  -1.352  -0.553  0.00  0.00    +0.008 C 
ENDBRANCH   9  11
BRANCH   9  13
ATOM     13  C   UNL     1      -0.038   0.049  -2.438  0.00  0.00    +0.362 C 
ATOM     14  O   UNL     1      -0.515  -0.708  -3.266  0.00  0.00    -0.246 OA
ATOM     15  O   UNL     1      -0.085   1.254  -2.616  0.00  0.00    -0.246 OA
ENDBRANCH   9  13
ENDBRANCH   1   9
TORSDOF 4
