REMARK  Name = ZINC45520600
REMARK  11 active torsions:
REMARK  status: ('A' for Active; 'I' for Inactive)
REMARK    1  A    between atoms: C_1  and  C_2
REMARK    2  A    between atoms: C_5  and  C_8
REMARK    3  A    between atoms: C_8  and  N_9
REMARK    4  A    between atoms: N_12  and  C_13
REMARK    5  A    between atoms: C_13  and  C_15
REMARK    6  A    between atoms: C_13  and  C_19
REMARK    7  A    between atoms: C_15  and  C_16
REMARK    8  A    between atoms: C_16  and  C_17
REMARK    9  A    between atoms: C_16  and  C_18
REMARK   10  A    between atoms: N_21  and  C_22
REMARK   11  A    between atoms: C_22  and  C_23
REMARK                            x       y       z     vdW  Elec       q    Type
REMARK                         _______ _______ _______ _____ _____    ______ ____
ROOT
ATOM      1  C   UNL     1       3.252  -7.938  -0.113  0.00  0.00    +0.161 C 
ENDROOT
BRANCH   1   5
ATOM      2  N   UNL     1       1.429  -4.745  -0.108  0.00  0.00    -0.295 N 
ATOM      3  C   UNL     1       1.691  -6.067  -0.117  0.00  0.00    +0.300 C 
ATOM      4  O   UNL     1       0.776  -6.869  -0.136  0.00  0.00    -0.253 OA
ATOM      5  N   UNL     1       2.967  -6.501  -0.104  0.00  0.00    -0.288 N 
ATOM      6  H   UNL     1       2.158  -4.106  -0.093  0.00  0.00    +0.151 HD
ATOM      7  H   UNL     1       3.696  -5.862  -0.089  0.00  0.00    +0.151 HD
BRANCH   2   8
ATOM      8  C   UNL     1       0.042  -4.274  -0.122  0.00  0.00    +0.141 C 
BRANCH   8  13
ATOM      9  C   UNL     1      -0.032   1.504  -0.073  0.00  0.00    +0.044 C 
ATOM     10  C   UNL     1      -0.013  -0.003  -0.086  0.00  0.00    -0.050 A 
ATOM     11  C   UNL     1       0.013  -0.683  -1.288  0.00  0.00    +0.003 A 
ATOM     12  C   UNL     1       0.030  -2.066  -1.300  0.00  0.00    +0.005 A 
ATOM     13  C   UNL     1       0.023  -2.767  -0.109  0.00  0.00    -0.030 A 
ATOM     14  C   UNL     1      -0.001  -2.087   1.094  0.00  0.00    +0.005 A 
ATOM     15  C   UNL     1      -0.015  -0.704   1.105  0.00  0.00    +0.003 A 
ENDBRANCH   8  13
ENDBRANCH   2   8
ENDBRANCH   1   5
BRANCH   1  16
ATOM     16  C   UNL     1       4.621  -8.175  -0.698  0.00  0.00    +0.234 C 
ATOM     17  O   UNL     1       5.292  -7.236  -1.070  0.00  0.00    -0.274 OA
ATOM     18  N   UNL     1       5.099  -9.431  -0.807  0.00  0.00    -0.310 N 
ATOM     19  H   UNL     1       4.562 -10.182  -0.508  0.00  0.00    +0.149 HD
BRANCH  18  20
ATOM     20  C   UNL     1       6.429  -9.661  -1.375  0.00  0.00    +0.141 C 
BRANCH  20  21
ATOM     21  C   UNL     1       6.723 -11.139  -1.384  0.00  0.00    -0.014 A 
ATOM     22  C   UNL     1       7.337 -11.739  -0.293  0.00  0.00    +0.010 A 
ATOM     23  C   UNL     1       7.588 -13.098  -0.341  0.00  0.00    +0.042 A 
ATOM     24  C   UNL     1       7.220 -13.814  -1.476  0.00  0.00    +0.099 A 
ATOM     25  N   UNL     1       6.636 -13.205  -2.497  0.00  0.00    -0.349 N 
ATOM     26  C   UNL     1       6.378 -11.911  -2.475  0.00  0.00    +0.089 A 
ATOM     27  N   UNL     1       7.467 -15.181  -1.539  0.00  0.00    -0.312 N 
ATOM     28  C   UNL     1       6.977 -15.988  -2.667  0.00  0.00    +0.134 C 
ATOM     29  C   UNL     1       8.148 -16.810  -3.218  0.00  0.00    +0.178 C 
ATOM     30  O   UNL     1       8.766 -17.526  -2.146  0.00  0.00    -0.377 OA
ATOM     31  C   UNL     1       9.337 -16.690  -1.136  0.00  0.00    +0.178 C 
ATOM     32  C   UNL     1       8.231 -15.861  -0.482  0.00  0.00    +0.134 C 
ATOM     33  H   UNL     1       6.388 -13.724  -3.278  0.00  0.00    +0.167 HD
ENDBRANCH  20  21
ENDBRANCH  18  20
ENDBRANCH   1  16
BRANCH   1  34
ATOM     34  C   UNL     1       3.209  -8.476   1.319  0.00  0.00    +0.034 C 
BRANCH  34  35
ATOM     35  C   UNL     1       1.787  -8.349   1.869  0.00  0.00    -0.015 C 
ATOM     36  C   UNL     1       0.848  -9.254   1.069  0.00  0.00    +0.007 C 
ATOM     37  C   UNL     1       1.770  -8.769   3.340  0.00  0.00    +0.007 C 
ENDBRANCH  34  35
ENDBRANCH   1  34
TORSDOF 8
