REMARK  Name = ZINC21376319
REMARK  10 active torsions:
REMARK  status: ('A' for Active; 'I' for Inactive)
REMARK    1  A    between atoms: C_1  and  C_2
REMARK    2  A    between atoms: C_2  and  N_3
REMARK    3  A    between atoms: N_3  and  C_4
REMARK    4  A    between atoms: C_4  and  C_5
REMARK    5  A    between atoms: C_5  and  C_7
REMARK    6  A    between atoms: C_8  and  C_10
REMARK    7  A    between atoms: C_10  and  O_11
REMARK    8  A    between atoms: O_11  and  C_12
REMARK    9  A    between atoms: C_12  and  C_14
REMARK   10  A    between atoms: C_19  and  N_20
REMARK                            x       y       z     vdW  Elec       q    Type
REMARK                         _______ _______ _______ _____ _____    ______ ____
ROOT
ATOM      1  C   UNL     1      -1.298   3.037  -0.133  0.00  0.00    +0.080 A 
ATOM      2  C   UNL     1      -1.143   1.652  -0.176  0.00  0.00    +0.017 A 
ATOM      3  C   UNL     1       0.108   1.083  -0.025  0.00  0.00    +0.013 A 
ATOM      4  C   UNL     1       1.230   1.886   0.161  0.00  0.00    +0.035 A 
ATOM      5  C   UNL     1       1.093   3.285   0.202  0.00  0.00    +0.054 A 
ATOM      6  C   UNL     1      -0.175   3.864   0.054  0.00  0.00    +0.050 A 
ATOM      7  C   UNL     1       2.277   4.138   0.399  0.00  0.00    +0.196 C 
ATOM      8  O   UNL     1       2.156   5.348   0.434  0.00  0.00    -0.287 OA
ATOM      9  C   UNL     1       3.613   3.524   0.555  0.00  0.00    +0.033 A 
ATOM     10  C   UNL     1       4.736   4.325   0.741  0.00  0.00    +0.012 A 
ATOM     11  C   UNL     1       5.983   3.741   0.885  0.00  0.00    +0.001 A 
ATOM     12  C   UNL     1       6.121   2.366   0.845  0.00  0.00    +0.001 A 
ATOM     13  C   UNL     1       5.016   1.555   0.660  0.00  0.00    +0.012 A 
ATOM     14  C   UNL     1       3.754   2.126   0.514  0.00  0.00    +0.033 A 
ATOM     15  C   UNL     1       2.567   1.269   0.316  0.00  0.00    +0.195 C 
ATOM     16  O   UNL     1       2.687   0.061   0.281  0.00  0.00    -0.287 OA
ENDROOT
BRANCH   6  17
ATOM     17  N   UNL     1      -0.321   5.236   0.092  0.00  0.00    -0.357 N 
ATOM     18  H   UNL     1       0.559   5.879   0.239  0.00  0.00    +0.142 HD
ATOM     19  H   UNL     1      -1.318   5.686  -0.024  0.00  0.00    +0.142 HD
ENDBRANCH   6  17
BRANCH   1  20
ATOM     20  C   UNL     1      -2.637   3.635  -0.289  0.00  0.00    +0.341 C 
ATOM     21  O   UNL     1      -2.760   4.842  -0.356  0.00  0.00    -0.245 OA
BRANCH  20  22
ATOM     22  O   UNL     1      -3.725   2.843  -0.357  0.00  0.00    -0.452 OA
BRANCH  22  23
ATOM     23  C   UNL     1      -5.011   3.500  -0.511  0.00  0.00    +0.328 C 
BRANCH  23  25
ATOM     24  N   UNL     1      -7.387   2.842  -0.708  0.00  0.00    -0.295 N 
ATOM     25  C   UNL     1      -6.102   2.462  -0.568  0.00  0.00    +0.254 C 
ATOM     26  O   UNL     1      -5.823   1.284  -0.487  0.00  0.00    -0.272 OA
BRANCH  24  28
ATOM     27  C   UNL     1      -7.703   4.694  -2.274  0.00  0.00    +0.024 C 
ATOM     28  C   UNL     1      -7.723   4.265  -0.806  0.00  0.00    +0.105 C 
ENDBRANCH  24  28
BRANCH  24  29
ATOM     29  C   UNL     1      -8.448   1.833  -0.764  0.00  0.00    +0.137 C 
BRANCH  29  30
ATOM     30  C   UNL     1      -8.947   1.552   0.630  0.00  0.00    -0.063 C 
ATOM     31  C   UNL     1     -10.000   2.182   1.088  0.00  0.00    +0.009 C 
ATOM     32  C   UNL     1      -8.234   0.546   1.497  0.00  0.00    +0.040 C 
ENDBRANCH  29  30
ENDBRANCH  24  29
ENDBRANCH  23  25
ENDBRANCH  22  23
ENDBRANCH  20  22
ENDBRANCH   1  20
TORSDOF 8
