REMARK  Name = ZINC13245482
REMARK  11 active torsions:
REMARK  status: ('A' for Active; 'I' for Inactive)
REMARK    1  A    between atoms: C_1  and  O_2
REMARK    2  A    between atoms: O_2  and  C_3
REMARK    3  A    between atoms: C_5  and  C_13
REMARK    4  A    between atoms: C_8  and  O_9
REMARK    5  A    between atoms: O_9  and  C_10
REMARK    6  A    between atoms: C_15  and  C_18
REMARK    7  A    between atoms: C_18  and  N_19
REMARK    8  A    between atoms: N_22  and  CA_23
REMARK    9  A    between atoms: CA_23  and  C_25
REMARK   10  A    between atoms: CA_23  and  C_33
REMARK   11  A    between atoms: C_25  and  C_26
REMARK                            x       y       z     vdW  Elec       q    Type
REMARK                         _______ _______ _______ _____ _____    ______ ____
ROOT
ATOM      1  C   UNL     1       8.820  -1.206  -2.896  0.00  0.00    +0.204 C 
ENDROOT
BRANCH   1   2
ATOM      2  N   UNL     1       7.863  -0.515  -2.029  0.00  0.00    -0.291 N 
ATOM      3  C   UNL     1       7.068   0.448  -2.536  0.00  0.00    +0.301 C 
ATOM      4  O   UNL     1       7.146   0.743  -3.713  0.00  0.00    -0.253 OA
ATOM      5  N   UNL     1       6.188   1.085  -1.739  0.00  0.00    -0.286 N 
ATOM      6  H   UNL     1       7.801  -0.750  -1.090  0.00  0.00    +0.151 HD
ATOM      7  H   UNL     1       6.126   0.850  -0.799  0.00  0.00    +0.151 HD
BRANCH   5   8
ATOM      8  CA  UNL     1       5.324   2.131  -2.290  0.00  0.00    +0.196 C 
BRANCH   8   9
ATOM      9  C   UNL     1       6.060   3.446  -2.283  0.00  0.00    +0.376 C 
ATOM     10  O   UNL     1       7.191   3.503  -1.860  0.00  0.00    -0.244 OA
ATOM     11  OXT UNL     1       5.460   4.554  -2.746  0.00  0.00    -0.244 OA
ENDBRANCH   8   9
BRANCH   8  12
ATOM     12  C   UNL     1       4.059   2.250  -1.437  0.00  0.00    +0.130 C 
BRANCH  12  13
ATOM     13  C   UNL     1       3.260   0.977  -1.543  0.00  0.00    +0.218 C 
ATOM     14  O   UNL     1       3.662   0.064  -2.233  0.00  0.00    -0.276 OA
ATOM     15  N   UNL     1       2.098   0.853  -0.871  0.00  0.00    -0.301 N 
ATOM     16  C   UNL     1       1.494   1.879  -0.002  0.00  0.00    +0.108 C 
ATOM     17  C   UNL     1      -0.019   1.547   0.011  0.00  0.00    +0.020 C 
ATOM     18  C   UNL     1       0.002  -0.004   0.002  0.00  0.00    +0.020 C 
ATOM     19  C   UNL     1       1.223  -0.328  -0.885  0.00  0.00    +0.108 C 
ENDBRANCH  12  13
ENDBRANCH   8  12
ENDBRANCH   5   8
ENDBRANCH   1   2
BRANCH   1  22
ATOM     20  C   UNL     1      10.212  -4.006  -1.122  0.00  0.00    +0.202 A 
ATOM     21  N   UNL     1       9.239  -3.478  -1.899  0.00  0.00    -0.190 NA
ATOM     22  C   UNL     1       9.580  -2.228  -2.090  0.00  0.00    +0.245 A 
ATOM     23  O   UNL     1      10.726  -2.028  -1.431  0.00  0.00    -0.336 OA
ATOM     24  N   UNL     1      11.075  -3.052  -0.883  0.00  0.00    -0.056 NA
BRANCH  20  27
ATOM     25  C   UNL     1      11.417  -7.109   0.631  0.00  0.00    +0.162 A 
ATOM     26  C   UNL     1      11.352  -5.806   0.173  0.00  0.00    +0.061 A 
ATOM     27  C   UNL     1      10.285  -5.403  -0.629  0.00  0.00    +0.026 A 
ATOM     28  C   UNL     1       9.284  -6.314  -0.961  0.00  0.00    +0.015 A 
ATOM     29  C   UNL     1       9.355  -7.614  -0.507  0.00  0.00    +0.050 A 
ATOM     30  C   UNL     1      10.416  -8.016   0.291  0.00  0.00    +0.168 A 
BRANCH  25  32
ATOM     31  C   UNL     1      13.447  -6.522   1.721  0.00  0.00    +0.277 C 
ATOM     32  O   UNL     1      12.457  -7.505   1.413  0.00  0.00    -0.491 OA
ENDBRANCH  25  32
BRANCH  30  33
ATOM     33  O   UNL     1      10.480  -9.297   0.741  0.00  0.00    -0.431 OA
BRANCH  33  34
ATOM     34  C   UNL     1       9.420 -10.174   0.354  0.00  0.00    +0.541 C 
ATOM     35  F   UNL     1       8.203  -9.671   0.824  0.00  0.00    -0.166 F 
ATOM     36  F   UNL     1       9.379 -10.268  -1.041  0.00  0.00    -0.166 F 
ENDBRANCH  33  34
ENDBRANCH  30  33
ENDBRANCH  20  27
ENDBRANCH   1  22
TORSDOF 10
