REMARK  Name = ZINC59516366
REMARK  12 active torsions:
REMARK  status: ('A' for Active; 'I' for Inactive)
REMARK    1  A    between atoms: C_1  and  C_2
REMARK    2  A    between atoms: C_2  and  C_24
REMARK    3  A    between atoms: N_3  and  N_4
REMARK    4  A    between atoms: C_5  and  S_7
REMARK    5  A    between atoms: S_7  and  C_8
REMARK    6  A    between atoms: N_13  and  C_16
REMARK    7  A    between atoms: C_19  and  O_22
REMARK    8  A    between atoms: O_22  and  C_23
REMARK    9  A    between atoms: C_25  and  C_26
REMARK   10  A    between atoms: C_29  and  N_32
REMARK   11  A    between atoms: N_32  and  C_33
REMARK   12  A    between atoms: N_32  and  C_34
REMARK                            x       y       z     vdW  Elec       q    Type
REMARK                         _______ _______ _______ _____ _____    ______ ____
ROOT
ATOM      1  N   UNL     1      -0.151  -1.803   1.338  0.00  0.00    -0.259 N 
ATOM      2  C   UNL     1      -0.210  -2.462   2.480  0.00  0.00    +0.146 C 
ATOM      3  N   UNL     1      -0.349  -3.828   2.478  0.00  0.00    -0.338 N 
ATOM      4  H   UNL     1      -0.405  -4.309   1.637  0.00  0.00    +0.144 HD
ATOM      5  H   UNL     1      -0.392  -4.312   3.317  0.00  0.00    +0.144 HD
ATOM      6  H   UNL     1      -0.207  -2.284   0.497  0.00  0.00    +0.191 HD
ENDROOT
BRANCH   1   9
ATOM      7  C   UNL     1      -0.030   1.651   0.222  0.00  0.00    +0.067 C 
ATOM      8  C   UNL     1      -0.064   0.145   0.211  0.00  0.00    +0.058 C 
ATOM      9  N   UNL     1      -0.020  -0.520   1.340  0.00  0.00    -0.177 NA
BRANCH   8  10
ATOM     10  C   UNL     1      -0.144  -0.551  -1.015  0.00  0.00    +0.025 C 
ATOM     11  C   UNL     1      -0.070   0.127  -2.183  0.00  0.00    +0.010 C 
BRANCH  11  12
ATOM     12  C   UNL     1      -0.273  -0.579  -3.457  0.00  0.00    -0.025 A 
ATOM     13  C   UNL     1      -0.548  -1.951  -3.463  0.00  0.00    +0.010 A 
ATOM     14  C   UNL     1      -0.737  -2.608  -4.659  0.00  0.00    +0.023 A 
ATOM     15  C   UNL     1      -0.656  -1.909  -5.859  0.00  0.00    +0.029 A 
ATOM     16  C   UNL     1      -0.382  -0.545  -5.858  0.00  0.00    +0.023 A 
ATOM     17  C   UNL     1      -0.197   0.121  -4.667  0.00  0.00    +0.010 A 
BRANCH  15  18
ATOM     18  N   UNL     1      -0.848  -2.579  -7.068  0.00  0.00    -0.336 N 
ATOM     19  C   UNL     1      -1.135  -4.016  -7.071  0.00  0.00    +0.129 C 
ATOM     20  C   UNL     1      -0.762  -1.846  -8.333  0.00  0.00    +0.129 C 
ENDBRANCH  15  18
ENDBRANCH  11  12
ENDBRANCH   8  10
ENDBRANCH   1   9
BRANCH   2  21
ATOM     21  S   UNL     1      -0.109  -1.589   4.007  0.00  0.00    -0.078 S 
BRANCH  21  22
ATOM     22  C   UNL     1      -0.232  -2.890   5.265  0.00  0.00    +0.149 C 
ATOM     23  C   UNL     1      -0.088  -2.292   6.680  0.00  0.00    +0.120 C 
ATOM     24  C   UNL     1      -1.410  -2.619   7.340  0.00  0.00    +0.228 C 
ATOM     25  O   UNL     1      -1.720  -2.325   8.474  0.00  0.00    -0.275 OA
ATOM     26  N   UNL     1      -2.182  -3.284   6.472  0.00  0.00    -0.209 N 
ATOM     27  C   UNL     1      -1.619  -3.495   5.272  0.00  0.00    +0.240 C 
ATOM     28  O   UNL     1      -2.137  -4.074   4.341  0.00  0.00    -0.274 OA
BRANCH  26  29
ATOM     29  C   UNL     1      -3.475  -3.728   6.791  0.00  0.00    +0.044 A 
ATOM     30  C   UNL     1      -3.793  -5.075   6.684  0.00  0.00    +0.027 A 
ATOM     31  C   UNL     1      -5.065  -5.511   6.999  0.00  0.00    +0.047 A 
ATOM     32  C   UNL     1      -6.025  -4.603   7.422  0.00  0.00    +0.120 A 
ATOM     33  C   UNL     1      -5.708  -3.257   7.528  0.00  0.00    +0.047 A 
ATOM     34  C   UNL     1      -4.434  -2.821   7.219  0.00  0.00    +0.027 A 
BRANCH  32  35
ATOM     35  O   UNL     1      -7.277  -5.033   7.731  0.00  0.00    -0.495 OA
ATOM     36  C   UNL     1      -8.215  -4.043   8.159  0.00  0.00    +0.277 C 
ENDBRANCH  32  35
ENDBRANCH  26  29
ENDBRANCH  21  22
ENDBRANCH   2  21
TORSDOF 8
