REMARK  Name = ZINC57563193
REMARK  6 active torsions:
REMARK  status: ('A' for Active; 'I' for Inactive)
REMARK    1  A    between atoms: C_3  and  C_6
REMARK    2  A    between atoms: C_6  and  N_7
REMARK    3  A    between atoms: N_7  and  C_8
REMARK    4  A    between atoms: C_18  and  C_20
REMARK    5  A    between atoms: C_20  and  N_21
REMARK    6  A    between atoms: N_21  and  C_22
REMARK                            x       y       z     vdW  Elec       q    Type
REMARK                         _______ _______ _______ _____ _____    ______ ____
ROOT
ATOM      1  N   UNL     1       4.234   2.004   1.353  0.00  0.00    -0.265 N 
ATOM      2  C   UNL     1       4.259   3.266   1.825  0.00  0.00    +0.237 C 
ATOM      3  O   UNL     1       4.919   3.532   2.808  0.00  0.00    -0.274 OA
ENDROOT
BRANCH   1   4
ATOM      4  C   UNL     1       4.889   0.981   2.051  0.00  0.00    +0.040 A 
ATOM      5  C   UNL     1       4.407   0.562   3.284  0.00  0.00    +0.027 A 
ATOM      6  C   UNL     1       5.053  -0.446   3.973  0.00  0.00    +0.051 A 
ATOM      7  C   UNL     1       6.185  -1.042   3.437  0.00  0.00    +0.162 A 
ATOM      8  C   UNL     1       6.668  -0.627   2.201  0.00  0.00    +0.164 A 
ATOM      9  C   UNL     1       6.017   0.382   1.508  0.00  0.00    +0.073 A 
ATOM     10  O   UNL     1       7.773  -1.205   1.655  0.00  0.00    -0.485 OA
ATOM     11  C   UNL     1       8.611  -1.956   2.541  0.00  0.00    +0.270 C 
ATOM     12  C   UNL     1       7.716  -2.862   3.397  0.00  0.00    +0.270 C 
ATOM     13  O   UNL     1       6.811  -2.031   4.133  0.00  0.00    -0.485 OA
ENDBRANCH   1   4
BRANCH   1  14
ATOM     14  C   UNL     1       3.521   1.701   0.110  0.00  0.00    +0.156 C 
BRANCH  14  17
ATOM     15  C   UNL     1      -0.221   1.601   0.818  0.00  0.00    +0.008 A 
ATOM     16  C   UNL     1       1.008   2.155   0.513  0.00  0.00    +0.013 A 
ATOM     17  C   UNL     1       2.091   1.344   0.425  0.00  0.00    +0.007 A 
ATOM     18  S   UNL     1       1.383  -0.257   0.777  0.00  0.00    -0.100 S 
ATOM     19  C   UNL     1      -0.307   0.263   1.019  0.00  0.00    +0.045 A 
ENDBRANCH  14  17
ENDBRANCH   1  14
BRANCH   2  20
ATOM     20  C   UNL     1       3.468   4.345   1.133  0.00  0.00    +0.198 C 
BRANCH  20  21
ATOM     21  N   UNL     1       3.661   5.617   1.834  0.00  0.00    -0.335 N 
ATOM     22  H   UNL     1       4.231   5.658   2.618  0.00  0.00    +0.147 HD
BRANCH  21  23
ATOM     23  C   UNL     1       3.023   6.772   1.374  0.00  0.00    +0.028 A 
ATOM     24  C   UNL     1       2.201   6.715   0.256  0.00  0.00    +0.024 A 
ATOM     25  C   UNL     1       1.571   7.857  -0.197  0.00  0.00    +0.022 A 
ATOM     26  C   UNL     1       1.758   9.059   0.463  0.00  0.00    +0.041 A 
ATOM     27  C   UNL     1       2.576   9.120   1.577  0.00  0.00    +0.022 A 
ATOM     28  C   UNL     1       3.204   7.979   2.038  0.00  0.00    +0.024 A 
ATOM     29 CL   UNL     1       0.966  10.494  -0.109  0.00  0.00    -0.084 Cl
ENDBRANCH  21  23
ENDBRANCH  20  21
ENDBRANCH   2  20
TORSDOF 6
