REMARK  Name = ZINC22314097
REMARK  7 active torsions:
REMARK  status: ('A' for Active; 'I' for Inactive)
REMARK    1  A    between atoms: C_4  and  S_7
REMARK    2  A    between atoms: S_7  and  N_10
REMARK    3  A    between atoms: N_10  and  C_11
REMARK    4  A    between atoms: N_10  and  C_26
REMARK    5  A    between atoms: C_11  and  C_12
REMARK    6  A    between atoms: N_14  and  C_15
REMARK    7  A    between atoms: C_29  and  N_32
REMARK                            x       y       z     vdW  Elec       q    Type
REMARK                         _______ _______ _______ _____ _____    ______ ____
ROOT
ATOM      1  N   UNL     1      -1.182   0.772   0.906  0.00  0.00    -0.194 N 
ENDROOT
BRANCH   1   2
ATOM      2  C   UNL     1      -1.731  -0.466   1.249  0.00  0.00    +0.052 A 
ATOM      3  C   UNL     1      -2.887  -0.526   2.017  0.00  0.00    +0.027 A 
ATOM      4  C   UNL     1      -3.430  -1.752   2.349  0.00  0.00    +0.034 A 
ATOM      5  C   UNL     1      -2.818  -2.918   1.927  0.00  0.00    +0.126 A 
ATOM      6  C   UNL     1      -1.665  -2.861   1.167  0.00  0.00    +0.034 A 
ATOM      7  C   UNL     1      -1.119  -1.639   0.827  0.00  0.00    +0.027 A 
BRANCH   5   8
ATOM      8  N   UNL     1      -3.400  -4.230   2.289  0.00  0.00    +0.056 N 
ATOM      9  O   UNL     1      -2.863  -5.258   1.918  0.00  0.00    -0.126 OA
ATOM     10  O   UNL     1      -4.417  -4.281   2.959  0.00  0.00    -0.126 OA
ENDBRANCH   5   8
ENDBRANCH   1   2
BRANCH   1  11
ATOM     11  S   UNL     1      -1.448   2.091   1.872  0.00  0.00    +0.075 S 
ATOM     12  O   UNL     1      -1.721   1.593   3.174  0.00  0.00    -0.150 OA
ATOM     13  O   UNL     1      -0.392   3.005   1.611  0.00  0.00    -0.150 OA
BRANCH  11  17
ATOM     14  C   UNL     1      -5.254   4.067   0.421  0.00  0.00    +0.000 A 
ATOM     15  C   UNL     1      -5.297   3.175   1.476  0.00  0.00    +0.002 A 
ATOM     16  C   UNL     1      -4.135   2.571   1.919  0.00  0.00    +0.029 A 
ATOM     17  C   UNL     1      -2.930   2.860   1.307  0.00  0.00    +0.109 A 
ATOM     18  C   UNL     1      -2.886   3.757   0.255  0.00  0.00    +0.029 A 
ATOM     19  C   UNL     1      -4.049   4.356  -0.191  0.00  0.00    +0.002 A 
ENDBRANCH  11  17
ENDBRANCH   1  11
BRANCH   1  20
ATOM     20  C   UNL     1      -0.372   0.904  -0.307  0.00  0.00    +0.227 C 
BRANCH  20  21
ATOM     21  C   UNL     1      -1.277   1.063  -1.501  0.00  0.00    +0.233 C 
ATOM     22  O   UNL     1      -2.478   1.119  -1.348  0.00  0.00    -0.274 OA
ATOM     23  N   UNL     1      -0.750   1.142  -2.739  0.00  0.00    -0.307 N 
ATOM     24  H   UNL     1       0.332   1.010  -2.887  0.00  0.00    +0.149 HD
BRANCH  23  25
ATOM     25  C   UNL     1      -1.620   1.402  -3.889  0.00  0.00    +0.103 C 
ATOM     26  C   UNL     1      -1.062   0.684  -5.116  0.00  0.00    +0.027 C 
ATOM     27  C   UNL     1      -1.855   1.140  -6.346  0.00  0.00    +0.007 C 
ATOM     28  C   UNL     1      -1.497   2.596  -6.637  0.00  0.00    +0.035 C 
ATOM     29  C   UNL     1      -1.638   3.435  -5.394  0.00  0.00    -0.042 A 
ATOM     30  C   UNL     1      -1.690   2.887  -4.132  0.00  0.00    -0.024 A 
ATOM     31  C   UNL     1      -1.814   3.718  -3.026  0.00  0.00    +0.006 A 
ATOM     32  C   UNL     1      -1.888   5.087  -3.183  0.00  0.00    +0.000 A 
ATOM     33  C   UNL     1      -1.840   5.637  -4.450  0.00  0.00    +0.000 A 
ATOM     34  C   UNL     1      -1.715   4.813  -5.550  0.00  0.00    +0.004 A 
ENDBRANCH  23  25
ENDBRANCH  20  21
ENDBRANCH   1  20
TORSDOF 7
