REMARK  Name = ZINC12812803
REMARK  10 active torsions:
REMARK  status: ('A' for Active; 'I' for Inactive)
REMARK    1  A    between atoms: C_1  and  C_2
REMARK    2  A    between atoms: C_5  and  C_8
REMARK    3  A    between atoms: C_9  and  C_32
REMARK    4  A    between atoms: C_17  and  C_19
REMARK    5  A    between atoms: C_19  and  N_58
REMARK    6  A    between atoms: C_20  and  N_58
REMARK    7  A    between atoms: C_21  and  C_22
REMARK    8  A    between atoms: C_21  and  N_58
REMARK    9  A    between atoms: N_24  and  C_25
REMARK   10  A    between atoms: C_28  and  C_31
REMARK                            x       y       z     vdW  Elec       q    Type
REMARK                         _______ _______ _______ _____ _____    ______ ____
ROOT
ATOM      1  C   UNL     1       9.276  -7.376  -1.998  0.00  0.00    +0.007 A 
ATOM      2  C   UNL     1      10.096  -6.304  -1.882  0.00  0.00    -0.003 A 
ATOM      3  S   UNL     1       8.998  -4.998  -1.368  0.00  0.00    -0.073 S 
ATOM      4  C   UNL     1       7.478  -5.912  -1.320  0.00  0.00    +0.116 A 
ATOM      5  C   UNL     1       7.858  -7.209  -1.704  0.00  0.00    +0.080 A 
ATOM      6  C   UNL     1       6.803  -8.175  -1.751  0.00  0.00    +0.260 A 
ATOM      7  O   UNL     1       7.033  -9.328  -2.073  0.00  0.00    -0.267 OA
ATOM      8  N   UNL     1       5.553  -7.793  -1.430  0.00  0.00    -0.312 N 
ATOM      9  H   UNL     1       4.835  -8.444  -1.456  0.00  0.00    +0.170 HD
ATOM     10  C   UNL     1       5.277  -6.512  -1.074  0.00  0.00    +0.094 A 
ATOM     11  N   UNL     1       6.218  -5.608  -1.021  0.00  0.00    -0.229 NA
ATOM     12  C   UNL     1      11.581  -6.233  -2.129  0.00  0.00    +0.052 C 
ENDROOT
BRANCH   1  17
ATOM     13  C   UNL     1      11.351 -12.498  -3.617  0.00  0.00    +0.044 C 
ATOM     14  C   UNL     1      10.808 -11.157  -3.193  0.00  0.00    -0.050 A 
ATOM     15  C   UNL     1      11.211 -10.599  -1.993  0.00  0.00    +0.004 A 
ATOM     16  C   UNL     1      10.717  -9.371  -1.600  0.00  0.00    +0.009 A 
ATOM     17  C   UNL     1       9.810  -8.695  -2.414  0.00  0.00    -0.016 A 
ATOM     18  C   UNL     1       9.404  -9.265  -3.620  0.00  0.00    +0.009 A 
ATOM     19  C   UNL     1       9.908 -10.491  -4.005  0.00  0.00    +0.004 A 
ENDBRANCH   1  17
BRANCH  10  20
ATOM     20  C   UNL     1       3.861  -6.128  -0.727  0.00  0.00    -0.003 C 
BRANCH  20  22
ATOM     21  C   UNL     1       4.558  -4.446   0.868  0.00  0.00    -0.095 C 
ATOM     22  N   UNL     1       3.826  -4.689  -0.392  0.00  0.00    +0.388 N 
ATOM     23  H   UNL     1       4.277  -4.160  -1.148  0.00  0.00    -0.081 HD
BRANCH  22  24
ATOM     24  C   UNL     1       2.425  -4.236  -0.258  0.00  0.00    +0.019 C 
BRANCH  24  25
ATOM     25  C   UNL     1       2.410  -2.734  -0.137  0.00  0.00    +0.201 C 
ATOM     26  O   UNL     1       3.452  -2.114  -0.144  0.00  0.00    -0.278 OA
ATOM     27  N   UNL     1       1.237  -2.079  -0.020  0.00  0.00    -0.287 N 
ATOM     28  H   UNL     1       0.409  -2.578   0.062  0.00  0.00    +0.155 HD
BRANCH  27  29
ATOM     29  C   UNL     1       1.214  -0.680  -0.019  0.00  0.00    +0.033 A 
ATOM     30  C   UNL     1       2.137   0.031  -0.774  0.00  0.00    +0.023 A 
ATOM     31  C   UNL     1       2.111   1.412  -0.771  0.00  0.00    +0.005 A 
ATOM     32  C   UNL     1       1.168   2.086  -0.017  0.00  0.00    -0.050 A 
ATOM     33  C   UNL     1       0.248   1.380   0.736  0.00  0.00    +0.005 A 
ATOM     34  C   UNL     1       0.268  -0.001   0.737  0.00  0.00    +0.023 A 
ATOM     35  C   UNL     1       1.143   3.593  -0.015  0.00  0.00    +0.044 C 
ENDBRANCH  27  29
ENDBRANCH  24  25
ENDBRANCH  22  24
ENDBRANCH  20  22
ENDBRANCH  10  20
TORSDOF 6
