REMARK  Name = ZINC14460701
REMARK  5 active torsions:
REMARK  status: ('A' for Active; 'I' for Inactive)
REMARK    1  A    between atoms: C_1  and  C_2
REMARK    2  A    between atoms: C_2  and  N_3
REMARK    3  A    between atoms: N_3  and  C_4
REMARK    4  A    between atoms: C_10  and  C_12
REMARK    5  A    between atoms: C_25  and  C_28
REMARK                            x       y       z     vdW  Elec       q    Type
REMARK                         _______ _______ _______ _____ _____    ______ ____
ROOT
ATOM      1  C   UNL     1       6.839   0.958  -1.139  0.00  0.00    +0.038 A 
ATOM      2  C   UNL     1       6.691   2.348  -1.140  0.00  0.00    +0.015 A 
ATOM      3  C   UNL     1       7.763   3.153  -1.442  0.00  0.00    +0.024 A 
ATOM      4  C   UNL     1       9.000   2.595  -1.760  0.00  0.00    +0.031 A 
ATOM      5  C   UNL     1       9.148   1.200  -1.754  0.00  0.00    -0.019 A 
ATOM      6  C   UNL     1       8.079   0.394  -1.450  0.00  0.00    +0.019 A 
ATOM      7  C   UNL     1      10.486   0.655  -2.072  0.00  0.00    +0.049 C 
ATOM      8  C   UNL     1      10.664  -0.702  -2.650  0.00  0.00    -0.023 C 
ATOM      9  C   UNL     1      11.740  -0.694  -3.427  0.00  0.00    -0.030 C 
ATOM     10  C   UNL     1      12.355   0.707  -3.455  0.00  0.00    +0.033 C 
ATOM     11  C   UNL     1      11.137   1.585  -3.140  0.00  0.00    +0.029 C 
ATOM     12  C   UNL     1      11.395   2.900  -2.427  0.00  0.00    +0.105 C 
ATOM     13  N   UNL     1      10.060   3.439  -2.090  0.00  0.00    -0.336 N 
ATOM     14  H   UNL     1       9.919   4.399  -2.098  0.00  0.00    +0.147 HD
ENDROOT
BRANCH  12  15
ATOM     15  C   UNL     1      12.193   2.663  -1.171  0.00  0.00    -0.026 A 
ATOM     16  C   UNL     1      11.545   2.388   0.018  0.00  0.00    +0.005 A 
ATOM     17  C   UNL     1      12.277   2.166   1.170  0.00  0.00    +0.002 A 
ATOM     18  C   UNL     1      13.657   2.230   1.135  0.00  0.00    +0.020 A 
ATOM     19  C   UNL     1      14.306   2.510  -0.054  0.00  0.00    +0.041 A 
ATOM     20  C   UNL     1      13.573   2.727  -1.208  0.00  0.00    +0.025 A 
ATOM     21 CL   UNL     1      16.040   2.591  -0.099  0.00  0.00    -0.084 Cl
ENDBRANCH  12  15
BRANCH   1  23
ATOM     22  N   UNL     1       4.435   0.520  -1.052  0.00  0.00    -0.268 N 
ATOM     23  C   UNL     1       5.690   0.090  -0.816  0.00  0.00    +0.251 C 
ATOM     24  O   UNL     1       5.876  -1.012  -0.338  0.00  0.00    -0.270 OA
BRANCH  22  25
ATOM     25  C   UNL     1       3.343  -0.253  -0.643  0.00  0.00    +0.037 A 
ATOM     26  C   UNL     1       2.054   0.114  -1.009  0.00  0.00    +0.023 A 
ATOM     27  C   UNL     1       0.979  -0.651  -0.603  0.00  0.00    +0.002 A 
ATOM     28  C   UNL     1       1.183  -1.781   0.167  0.00  0.00    +0.000 A 
ATOM     29  C   UNL     1       2.465  -2.149   0.534  0.00  0.00    +0.002 A 
ATOM     30  C   UNL     1       3.545  -1.388   0.132  0.00  0.00    +0.023 A 
ENDBRANCH  22  25
BRANCH  22  32
ATOM     31  C   UNL     1       3.642   2.813  -0.746  0.00  0.00    +0.025 C 
ATOM     32  C   UNL     1       4.213   1.796  -1.736  0.00  0.00    +0.110 C 
ENDBRANCH  22  32
ENDBRANCH   1  23
TORSDOF 4
