REMARK  Name = ZINC34830169
REMARK  9 active torsions:
REMARK  status: ('A' for Active; 'I' for Inactive)
REMARK    1  A    between atoms: C_1  and  C_2
REMARK    2  A    between atoms: C_5  and  C_8
REMARK    3  A    between atoms: N_17  and  C_18
REMARK    4  A    between atoms: C_18  and  C_19
REMARK    5  A    between atoms: C_19  and  C_20
REMARK    6  A    between atoms: C_26  and  C_29
REMARK    7  A    between atoms: C_30  and  C_32
REMARK    8  A    between atoms: C_32  and  O_33
REMARK    9  A    between atoms: O_33  and  C_34
REMARK                            x       y       z     vdW  Elec       q    Type
REMARK                         _______ _______ _______ _____ _____    ______ ____
ROOT
ATOM      1  C   UNL     1      -3.095  -4.815   1.929  0.00  0.00    +0.077 C 
ENDROOT
BRANCH   1   2
ATOM      2  C   UNL     1      -4.519  -4.417   1.639  0.00  0.00    +0.214 C 
ATOM      3  O   UNL     1      -4.791  -3.853   0.600  0.00  0.00    -0.276 OA
ATOM      4  N   UNL     1      -5.490  -4.686   2.533  0.00  0.00    -0.298 N 
ATOM      5  C   UNL     1      -5.174  -5.363   3.799  0.00  0.00    +0.127 C 
ATOM      6  C   UNL     1      -6.053  -6.614   3.918  0.00  0.00    +0.127 C 
ATOM      7  N   UNL     1      -7.447  -6.237   3.646  0.00  0.00    -0.293 N 
ATOM      8  C   UNL     1      -7.763  -5.560   2.381  0.00  0.00    +0.090 C 
ATOM      9  C   UNL     1      -6.883  -4.304   2.264  0.00  0.00    +0.130 C 
ATOM     10  C   UNL     1      -7.482  -6.503   1.209  0.00  0.00    +0.029 C 
ATOM     11  C   UNL     1      -8.418  -6.506   4.541  0.00  0.00    +0.254 C 
ATOM     12  O   UNL     1      -9.565  -6.190   4.305  0.00  0.00    -0.272 OA
BRANCH  11  13
ATOM     13  C   UNL     1      -8.079  -7.202   5.834  0.00  0.00    +0.324 C 
BRANCH  13  14
ATOM     14  O   UNL     1      -9.268  -7.374   6.608  0.00  0.00    -0.483 OA
BRANCH  14  15
ATOM     15  C   UNL     1      -9.136  -7.989   7.813  0.00  0.00    +0.121 A 
ATOM     16  C   UNL     1      -7.888  -8.413   8.243  0.00  0.00    +0.045 A 
ATOM     17  C   UNL     1      -7.756  -9.038   9.469  0.00  0.00    +0.004 A 
ATOM     18  C   UNL     1      -8.868  -9.242  10.265  0.00  0.00    +0.000 A 
ATOM     19  C   UNL     1     -10.114  -8.820   9.838  0.00  0.00    +0.004 A 
ATOM     20  C   UNL     1     -10.249  -8.190   8.616  0.00  0.00    +0.045 A 
ENDBRANCH  14  15
ENDBRANCH  13  14
ENDBRANCH  11  13
ENDBRANCH   1   2
BRANCH   1  21
ATOM     21  C   UNL     1      -2.200  -4.396   0.761  0.00  0.00    -0.068 C 
BRANCH  21  30
ATOM     22  C   UNL     1       0.059  -4.275  -0.021  0.00  0.00    -0.006 C 
ATOM     23  C   UNL     1       1.481  -4.770   0.225  0.00  0.00    -0.047 A 
ATOM     24  C   UNL     1       2.616  -4.189  -0.335  0.00  0.00    +0.010 A 
ATOM     25  C   UNL     1       3.842  -4.694  -0.058  0.00  0.00    +0.045 A 
ATOM     26  S   UNL     1       3.443  -6.051   1.035  0.00  0.00    -0.101 S 
ATOM     27  C   UNL     1       1.686  -5.844   1.039  0.00  0.00    -0.010 A 
ATOM     28  C   UNL     1       0.633  -6.634   1.746  0.00  0.00    +0.024 C 
ATOM     29  C   UNL     1      -0.725  -6.249   1.134  0.00  0.00    -0.072 C 
ATOM     30  N   UNL     1      -0.811  -4.785   1.044  0.00  0.00    +0.388 N 
ATOM     31  H   UNL     1      -0.528  -4.382   1.925  0.00  0.00    -0.080 HD
BRANCH  22  36
ATOM     32  C   UNL     1      -0.018   1.503   0.010  0.00  0.00    +0.044 C 
ATOM     33  C   UNL     1       0.002  -0.004   0.002  0.00  0.00    -0.050 A 
ATOM     34  C   UNL     1       0.006  -0.689  -1.199  0.00  0.00    +0.003 A 
ATOM     35  C   UNL     1       0.025  -2.071  -1.206  0.00  0.00    +0.002 A 
ATOM     36  C   UNL     1       0.040  -2.768  -0.013  0.00  0.00    -0.057 A 
ATOM     37  C   UNL     1       0.037  -2.084   1.188  0.00  0.00    +0.002 A 
ATOM     38  C   UNL     1       0.023  -0.702   1.195  0.00  0.00    +0.003 A 
ENDBRANCH  22  36
ENDBRANCH  21  30
ENDBRANCH   1  21
TORSDOF 7
