REMARK  Name = ZINC20154376
REMARK  8 active torsions:
REMARK  status: ('A' for Active; 'I' for Inactive)
REMARK    1  A    between atoms: C_1  and  C_2
REMARK    2  A    between atoms: C_4  and  N_33
REMARK    3  A    between atoms: C_7  and  C_8
REMARK    4  A    between atoms: C_11  and  C_13
REMARK    5  A    between atoms: C_14  and  C_15
REMARK    6  A    between atoms: N_17  and  C_18
REMARK    7  A    between atoms: C_21  and  N_27
REMARK    8  A    between atoms: C_22  and  N_24
REMARK                            x       y       z     vdW  Elec       q    Type
REMARK                         _______ _______ _______ _____ _____    ______ ____
ROOT
ATOM      1  C   UNL     1       0.003   1.317  -0.095  0.00  0.00    +0.241 C 
ATOM      2  O   UNL     1      -1.057   1.916  -0.139  0.00  0.00    -0.270 OA
ATOM      3  N   UNL     1       0.013  -0.029  -0.031  0.00  0.00    -0.282 N 
ATOM      4  H   UNL     1       0.968  -0.574  -0.081  0.00  0.00    +0.155 HD
ENDROOT
BRANCH   3   5
ATOM      5  C   UNL     1      -1.190  -0.734   0.099  0.00  0.00    +0.036 A 
ATOM      6  C   UNL     1      -2.240  -0.186   0.824  0.00  0.00    +0.025 A 
ATOM      7  C   UNL     1      -3.428  -0.878   0.948  0.00  0.00    +0.027 A 
ATOM      8  C   UNL     1      -3.569  -2.127   0.357  0.00  0.00    +0.060 A 
ATOM      9  C   UNL     1      -2.517  -2.677  -0.364  0.00  0.00    +0.149 A 
ATOM     10  C   UNL     1      -1.331  -1.982  -0.492  0.00  0.00    +0.058 A 
BRANCH   8  11
ATOM     11  N   UNL     1      -4.771  -2.832   0.487  0.00  0.00    -0.332 N 
ATOM     12  C   UNL     1      -5.088  -3.074   1.902  0.00  0.00    +0.086 C 
ATOM     13  C   UNL     1      -6.364  -3.913   1.999  0.00  0.00    -0.063 C 
ATOM     14  N   UNL     1      -7.465  -3.206   1.329  0.00  0.00    +0.381 N 
ATOM     15  C   UNL     1      -7.147  -2.964  -0.085  0.00  0.00    -0.063 C 
ATOM     16  C   UNL     1      -5.871  -2.124  -0.182  0.00  0.00    +0.086 C 
ATOM     17  H   UNL     1      -8.380  -3.814   1.387  0.00  0.00    -0.086 HD
ATOM     18  H   UNL     1      -7.634  -2.239   1.825  0.00  0.00    -0.086 HD
ENDBRANCH   8  11
BRANCH   9  19
ATOM     19  N   UNL     1      -2.667  -4.008  -0.994  0.00  0.00    +0.058 N 
ATOM     20  O   UNL     1      -1.714  -4.534  -1.542  0.00  0.00    -0.126 OA
ATOM     21  O   UNL     1      -3.743  -4.577  -0.966  0.00  0.00    -0.126 OA
ENDBRANCH   9  19
ENDBRANCH   3   5
BRANCH   1  23
ATOM     22  C   UNL     1       1.211   3.390  -0.182  0.00  0.00    +0.051 C 
ATOM     23  C   UNL     1       1.222   2.034  -0.117  0.00  0.00    +0.071 C 
BRANCH  22  27
ATOM     24  C   UNL     1       4.582   4.553  -0.204  0.00  0.00    +0.136 A 
ATOM     25  C   UNL     1       3.933   5.754  -0.267  0.00  0.00    +0.050 A 
ATOM     26  C   UNL     1       2.562   5.481  -0.268  0.00  0.00    +0.050 A 
ATOM     27  C   UNL     1       2.429   4.107  -0.204  0.00  0.00    +0.129 A 
ATOM     28  O   UNL     1       3.666   3.569  -0.160  0.00  0.00    -0.455 OA
BRANCH  24  35
ATOM     29  C   UNL     1       5.776   2.861   1.817  0.00  0.00    +0.044 C 
ATOM     30  C   UNL     1       6.635   3.554   0.790  0.00  0.00    -0.038 A 
ATOM     31  C   UNL     1       8.004   3.384   0.805  0.00  0.00    +0.036 A 
ATOM     32  C   UNL     1       8.793   4.018  -0.138  0.00  0.00    +0.126 A 
ATOM     33  C   UNL     1       8.216   4.826  -1.102  0.00  0.00    +0.033 A 
ATOM     34  C   UNL     1       6.849   5.000  -1.133  0.00  0.00    +0.014 A 
ATOM     35  C   UNL     1       6.046   4.367  -0.181  0.00  0.00    +0.020 A 
BRANCH  32  36
ATOM     36  N   UNL     1      10.261   3.831  -0.115  0.00  0.00    +0.056 N 
ATOM     37  O   UNL     1      10.772   3.120   0.732  0.00  0.00    -0.126 OA
ATOM     38  O   UNL     1      10.959   4.388  -0.944  0.00  0.00    -0.126 OA
ENDBRANCH  32  36
ENDBRANCH  24  35
ENDBRANCH  22  27
ENDBRANCH   1  23
TORSDOF 7
