REMARK  Name = ZINC00993814
REMARK  5 active torsions:
REMARK  status: ('A' for Active; 'I' for Inactive)
REMARK    1  A    between atoms: C_3  and  C_13
REMARK    2  A    between atoms: C_5  and  N_7
REMARK    3  A    between atoms: N_15  and  N_16
REMARK    4  A    between atoms: C_17  and  C_18
REMARK    5  A    between atoms: C_23  and  O_24
REMARK                            x       y       z     vdW  Elec       q    Type
REMARK                         _______ _______ _______ _____ _____    ______ ____
ROOT
ATOM      1  C   UNL     1       3.656   2.171   0.009  0.00  0.00    +0.263 C 
ATOM      2  O   UNL     1       4.718   1.579   0.009  0.00  0.00    -0.268 OA
ATOM      3  N   UNL     1       3.635   3.518   0.016  0.00  0.00    -0.203 N 
ATOM      4  H   UNL     1       2.788   3.990   0.016  0.00  0.00    +0.178 HD
ENDROOT
BRANCH   1   7
ATOM      5  C   UNL     1      -0.017   1.378  -0.005  0.00  0.00    +0.003 A 
ATOM      6  C   UNL     1       1.166   2.089   0.002  0.00  0.00    +0.013 A 
ATOM      7  C   UNL     1       2.387   1.412   0.002  0.00  0.00    +0.040 A 
ATOM      8  C   UNL     1       2.406   0.017  -0.006  0.00  0.00    +0.036 A 
ATOM      9  C   UNL     1       1.212  -0.687  -0.013  0.00  0.00    +0.037 A 
ATOM     10  C   UNL     1       0.002  -0.004  -0.013  0.00  0.00    +0.023 A 
BRANCH   9  11
ATOM     11  N   UNL     1       1.226  -2.087  -0.021  0.00  0.00    -0.271 N 
ATOM     12  C   UNL     1       0.027  -2.927   0.085  0.00  0.00    +0.114 C 
ATOM     13  C   UNL     1       0.462  -4.328  -0.399  0.00  0.00    +0.029 C 
ATOM     14  C   UNL     1       1.981  -4.304  -0.112  0.00  0.00    +0.098 C 
ATOM     15  C   UNL     1       2.337  -2.834  -0.133  0.00  0.00    +0.220 C 
ATOM     16  O   UNL     1       3.463  -2.394  -0.234  0.00  0.00    -0.275 OA
ENDBRANCH   9  11
ENDBRANCH   1   7
BRANCH   3  17
ATOM     17  N   UNL     1       4.837   4.237   0.023  0.00  0.00    -0.187 NA
ATOM     18  C   UNL     1       4.817   5.535   0.030  0.00  0.00    +0.142 C 
BRANCH  18  19
ATOM     19  C   UNL     1       6.082   6.292   0.037  0.00  0.00    +0.037 A 
ATOM     20  C   UNL     1       6.065   7.688   0.050  0.00  0.00    +0.028 A 
ATOM     21  C   UNL     1       7.253   8.390   0.057  0.00  0.00    +0.019 A 
ATOM     22  C   UNL     1       8.463   7.715   0.052  0.00  0.00    +0.019 A 
ATOM     23  C   UNL     1       8.492   6.334   0.039  0.00  0.00    +0.047 A 
ATOM     24  C   UNL     1       7.309   5.613   0.037  0.00  0.00    +0.126 A 
ATOM     25 BR   UNL     1       7.229  10.281   0.074  0.00  0.00    -0.050 Br
BRANCH  24  26
ATOM     26  O   UNL     1       7.337   4.255   0.030  0.00  0.00    -0.506 OA
ATOM     27  H   UNL     1       7.348   3.867  -0.855  0.00  0.00    +0.292 HD
ENDBRANCH  24  26
ENDBRANCH  18  19
ENDBRANCH   3  17
TORSDOF 5
