REMARK  Name = ZINC03336089
REMARK  11 active torsions:
REMARK  status: ('A' for Active; 'I' for Inactive)
REMARK    1  A    between atoms: C_1  and  C_2
REMARK    2  A    between atoms: C_3  and  C_34
REMARK    3  A    between atoms: C_4  and  C_33
REMARK    4  A    between atoms: C_7  and  C_8
REMARK    5  A    between atoms: C_8  and  C_10
REMARK    6  A    between atoms: C_10  and  S_11
REMARK    7  A    between atoms: S_11  and  C_12
REMARK    8  A    between atoms: C_15  and  C_27
REMARK    9  A    between atoms: N_16  and  C_17
REMARK   10  A    between atoms: C_17  and  C_18
REMARK   11  A    between atoms: C_34  and  C_36
REMARK                            x       y       z     vdW  Elec       q    Type
REMARK                         _______ _______ _______ _____ _____    ______ ____
ROOT
ATOM      1  C   UNL     1      -0.821  -1.438   6.166  0.00  0.00    +0.193 A 
ATOM      2  N   UNL     1      -1.010  -2.648   5.688  0.00  0.00    -0.122 NA
ATOM      3  N   UNL     1      -1.243  -3.471   6.648  0.00  0.00    -0.128 NA
ATOM      4  C   UNL     1      -1.217  -2.837   7.797  0.00  0.00    +0.165 A 
ATOM      5  N   UNL     1      -0.940  -1.517   7.525  0.00  0.00    -0.298 N 
ENDROOT
BRANCH   4   6
ATOM      6  C   UNL     1      -1.437  -3.431   9.133  0.00  0.00    +0.019 A 
ATOM      7  C   UNL     1      -2.074  -2.693  10.132  0.00  0.00    +0.011 A 
ATOM      8  C   UNL     1      -2.276  -3.254  11.376  0.00  0.00    +0.001 A 
ATOM      9  C   UNL     1      -1.849  -4.544  11.635  0.00  0.00    +0.000 A 
ATOM     10  C   UNL     1      -1.217  -5.281  10.649  0.00  0.00    +0.001 A 
ATOM     11  C   UNL     1      -1.013  -4.734   9.399  0.00  0.00    +0.011 A 
ENDBRANCH   4   6
BRANCH   1  12
ATOM     12  S   UNL     1      -0.473   0.013   5.230  0.00  0.00    -0.078 S 
BRANCH  12  13
ATOM     13  C   UNL     1      -0.452  -0.567   3.512  0.00  0.00    +0.158 C 
BRANCH  13  14
ATOM     14  C   UNL     1      -0.161   0.591   2.594  0.00  0.00    +0.190 C 
ATOM     15  O   UNL     1       0.016   1.701   3.054  0.00  0.00    -0.290 OA
BRANCH  14  22
ATOM     16  C   UNL     1       0.423   2.815   0.503  0.00  0.00    +0.047 C 
ATOM     17  C   UNL     1       0.164   1.352   0.247  0.00  0.00    -0.012 A 
ATOM     18  C   UNL     1       0.144   0.707  -1.011  0.00  0.00    +0.041 A 
ATOM     19  C   UNL     1      -0.132  -0.632  -0.777  0.00  0.00    +0.024 A 
ATOM     20  N   UNL     1      -0.276  -0.817   0.542  0.00  0.00    -0.355 N 
ATOM     21  H   UNL     1      -0.474  -1.663   0.972  0.00  0.00    +0.166 HD
ATOM     22  C   UNL     1      -0.093   0.386   1.194  0.00  0.00    +0.087 A 
ATOM     23  C   UNL     1      -0.250  -1.702  -1.833  0.00  0.00    +0.064 C 
BRANCH  18  24
ATOM     24  C   UNL     1       0.371   1.336  -2.316  0.00  0.00    +0.162 C 
ATOM     25  O   UNL     1      -0.558   1.825  -2.924  0.00  0.00    -0.292 OA
ATOM     26  C   UNL     1       1.758   1.374  -2.903  0.00  0.00    +0.091 C 
ENDBRANCH  18  24
ENDBRANCH  14  22
ENDBRANCH  13  14
ENDBRANCH  12  13
ENDBRANCH   1  12
BRANCH   5  27
ATOM     27  C   UNL     1      -0.804  -0.424   8.490  0.00  0.00    +0.161 C 
BRANCH  27  28
ATOM     28  C   UNL     1       0.603  -0.400   9.028  0.00  0.00    -0.024 A 
ATOM     29  C   UNL     1       0.904  -1.064  10.202  0.00  0.00    +0.009 A 
ATOM     30  C   UNL     1       2.194  -1.046  10.700  0.00  0.00    +0.050 A 
ATOM     31  C   UNL     1       3.189  -0.361  10.021  0.00  0.00    +0.166 A 
ATOM     32  C   UNL     1       2.885   0.308   8.838  0.00  0.00    +0.167 A 
ATOM     33  C   UNL     1       1.592   0.281   8.342  0.00  0.00    +0.055 A 
ATOM     34  O   UNL     1       4.023   0.899   8.367  0.00  0.00    -0.453 OA
ATOM     35  C   UNL     1       4.931   0.927   9.483  0.00  0.00    +0.466 C 
ATOM     36  O   UNL     1       4.516  -0.189  10.291  0.00  0.00    -0.453 OA
ENDBRANCH  27  28
ENDBRANCH   5  27
TORSDOF 8
