REMARK  Name = ZINC11847312
REMARK  12 active torsions:
REMARK  status: ('A' for Active; 'I' for Inactive)
REMARK    1  A    between atoms: C_1  and  C_2
REMARK    2  A    between atoms: C_6  and  C_38
REMARK    3  A    between atoms: C_8  and  O_11
REMARK    4  A    between atoms: O_11  and  C_12
REMARK    5  A    between atoms: C_12  and  C_13
REMARK    6  A    between atoms: C_13  and  C_15
REMARK    7  A    between atoms: C_13  and  O_37
REMARK    8  A    between atoms: C_15  and  N_79
REMARK    9  A    between atoms: C_18  and  C_21
REMARK   10  A    between atoms: C_21  and  N_22
REMARK   11  A    between atoms: C_38  and  C_39
REMARK   12  A    between atoms: C_38  and  C_40
REMARK                            x       y       z     vdW  Elec       q    Type
REMARK                         _______ _______ _______ _____ _____    ______ ____
ROOT
ATOM      1  C   UNL     1       6.607  -4.903   1.766  0.00  0.00    -0.078 C 
ATOM      2  C   UNL     1       7.277  -5.293   3.086  0.00  0.00    -0.014 C 
ATOM      3  C   UNL     1       8.160  -4.137   3.565  0.00  0.00    +0.003 C 
ATOM      4  C   UNL     1       7.301  -2.879   3.718  0.00  0.00    -0.014 C 
ATOM      5  C   UNL     1       6.629  -2.559   2.381  0.00  0.00    -0.078 C 
ATOM      6  N   UNL     1       5.776  -3.700   1.987  0.00  0.00    +0.381 N 
ATOM      7  H   UNL     1       5.107  -3.892   2.743  0.00  0.00    -0.082 HD
ENDROOT
BRANCH   6   8
ATOM      8  C   UNL     1       5.028  -3.371   0.756  0.00  0.00    -0.045 C 
BRANCH   8   9
ATOM      9  C   UNL     1       4.011  -2.274   1.077  0.00  0.00    +0.124 C 
BRANCH   9  10
ATOM     10  O   UNL     1       3.131  -2.726   2.108  0.00  0.00    -0.391 OA
ATOM     11  H   UNL     1       2.631  -3.521   1.878  0.00  0.00    +0.210 HD
ENDBRANCH   9  10
BRANCH   9  12
ATOM     12  C   UNL     1       3.200  -1.948  -0.179  0.00  0.00    +0.189 C 
BRANCH  12  13
ATOM     13  O   UNL     1       2.331  -0.845   0.088  0.00  0.00    -0.374 OA
BRANCH  13  19
ATOM     14  C   UNL     1      -1.856  -1.700   0.336  0.00  0.00    +0.007 C 
ATOM     15  C   UNL     1      -0.538  -0.924   0.306  0.00  0.00    -0.012 C 
ATOM     16  C   UNL     1      -0.827   0.576   0.383  0.00  0.00    +0.004 C 
ATOM     17  C   UNL     1       0.491   1.352   0.353  0.00  0.00    +0.006 C 
ATOM     18  C   UNL     1       1.235   1.043  -0.948  0.00  0.00    +0.020 C 
ATOM     19  C   UNL     1       1.524  -0.457  -1.025  0.00  0.00    +0.122 C 
ATOM     20  C   UNL     1       0.206  -1.233  -0.995  0.00  0.00    +0.035 C 
BRANCH  18  21
ATOM     21  C   UNL     1       2.553   1.819  -0.978  0.00  0.00    -0.012 C 
ATOM     22  C   UNL     1       3.297   1.510  -2.279  0.00  0.00    +0.007 C 
ATOM     23  C   UNL     1       2.263   3.320  -0.901  0.00  0.00    +0.007 C 
ENDBRANCH  18  21
ENDBRANCH  13  19
ENDBRANCH  12  13
ENDBRANCH   9  12
ENDBRANCH   8   9
ENDBRANCH   6   8
BRANCH   3  24
ATOM     24  C   UNL     1       8.786  -4.496   4.914  0.00  0.00    +0.120 C 
BRANCH  24  25
ATOM     25  N   UNL     1       9.700  -5.627   4.742  0.00  0.00    -0.234 N 
ATOM     26  C   UNL     1       9.220  -6.877   4.883  0.00  0.00    +0.254 C 
ATOM     27  O   UNL     1       8.045  -7.047   5.148  0.00  0.00    -0.270 OA
ATOM     28  C   UNL     1      10.107  -8.038   4.714  0.00  0.00    +0.046 A 
ATOM     29  C   UNL     1       9.652  -9.342   4.843  0.00  0.00    +0.014 A 
ATOM     30  C   UNL     1      10.530 -10.407   4.678  0.00  0.00    +0.001 A 
ATOM     31  C   UNL     1      11.849 -10.208   4.386  0.00  0.00    +0.008 A 
ATOM     32  C   UNL     1      12.350  -8.902   4.245  0.00  0.00    -0.016 A 
ATOM     33  C   UNL     1      11.469  -7.812   4.411  0.00  0.00    +0.006 A 
ATOM     34  C   UNL     1      11.941  -6.487   4.275  0.00  0.00    +0.046 A 
ATOM     35  C   UNL     1      13.279  -6.277   3.978  0.00  0.00    +0.014 A 
ATOM     36  C   UNL     1      14.137  -7.358   3.817  0.00  0.00    +0.001 A 
ATOM     37  C   UNL     1      13.699  -8.645   3.945  0.00  0.00    +0.008 A 
ATOM     38  C   UNL     1      10.992  -5.378   4.454  0.00  0.00    +0.254 C 
ATOM     39  O   UNL     1      11.376  -4.230   4.343  0.00  0.00    -0.270 OA
ENDBRANCH  24  25
ENDBRANCH   3  24
TORSDOF 9
