REMARK  Name = ZINC58669506
REMARK  8 active torsions:
REMARK  status: ('A' for Active; 'I' for Inactive)
REMARK    1  A    between atoms: C_1  and  C_2
REMARK    2  A    between atoms: C_2  and  C_4
REMARK    3  A    between atoms: C_2  and  O_14
REMARK    4  A    between atoms: N_6  and  C_7
REMARK    5  A    between atoms: O_14  and  C_15
REMARK    6  A    between atoms: C_15  and  C_17
REMARK    7  A    between atoms: N_19  and  C_29
REMARK    8  A    between atoms: C_20  and  C_23
REMARK                            x       y       z     vdW  Elec       q    Type
REMARK                         _______ _______ _______ _____ _____    ______ ____
ROOT
ATOM      1  C   UNL     1       0.553  -1.065  -3.477  0.00  0.00    +0.145 C 
ATOM      2  N   UNL     1       1.814  -1.319  -3.629  0.00  0.00    -0.177 NA
ATOM      3  N   UNL     1       2.156  -1.743  -4.912  0.00  0.00    -0.216 N 
ATOM      4  C   UNL     1       0.942  -1.777  -5.743  0.00  0.00    +0.134 C 
ATOM      5  C   UNL     1      -0.172  -1.323  -4.779  0.00  0.00    +0.093 C 
ENDROOT
BRANCH   4   6
ATOM      6  C   UNL     1       0.676  -3.176  -6.235  0.00  0.00    -0.025 A 
ATOM      7  C   UNL     1       0.900  -4.256  -5.401  0.00  0.00    +0.005 A 
ATOM      8  C   UNL     1       0.656  -5.540  -5.853  0.00  0.00    +0.000 A 
ATOM      9  C   UNL     1       0.188  -5.743  -7.137  0.00  0.00    +0.000 A 
ATOM     10  C   UNL     1      -0.037  -4.663  -7.970  0.00  0.00    +0.000 A 
ATOM     11  C   UNL     1       0.203  -3.380  -7.517  0.00  0.00    +0.005 A 
ENDBRANCH   4   6
BRANCH   3  12
ATOM     12  C   UNL     1       3.442  -2.079  -5.340  0.00  0.00    +0.052 A 
ATOM     13  C   UNL     1       3.655  -2.483  -6.652  0.00  0.00    +0.025 A 
ATOM     14  C   UNL     1       4.928  -2.816  -7.072  0.00  0.00    +0.002 A 
ATOM     15  C   UNL     1       5.990  -2.748  -6.188  0.00  0.00    +0.000 A 
ATOM     16  C   UNL     1       5.780  -2.346  -4.881  0.00  0.00    +0.002 A 
ATOM     17  C   UNL     1       4.511  -2.006  -4.456  0.00  0.00    +0.025 A 
ENDBRANCH   3  12
BRANCH   1  18
ATOM     18  C   UNL     1      -0.053  -0.621  -2.275  0.00  0.00    +0.356 C 
ATOM     19  O   UNL     1      -1.252  -0.416  -2.239  0.00  0.00    -0.244 OA
BRANCH  18  20
ATOM     20  O   UNL     1       0.698  -0.425  -1.172  0.00  0.00    -0.448 OA
BRANCH  20  22
ATOM     21  C   UNL     1       0.001   1.553   0.029  0.00  0.00    +0.062 C 
ATOM     22  C   UNL     1       0.021   0.023   0.004  0.00  0.00    +0.259 C 
BRANCH  22  23
ATOM     23  C   UNL     1       0.740  -0.490   1.224  0.00  0.00    +0.258 C 
ATOM     24  O   UNL     1       1.784  -1.095   1.103  0.00  0.00    -0.271 OA
ATOM     25  N   UNL     1       0.223  -0.277   2.451  0.00  0.00    -0.280 N 
ATOM     26  H   UNL     1      -0.579   0.260   2.552  0.00  0.00    +0.155 HD
BRANCH  25  27
ATOM     27  C   UNL     1       0.843  -0.829   3.578  0.00  0.00    +0.071 A 
ATOM     28  C   UNL     1       2.228  -0.961   3.628  0.00  0.00    +0.028 A 
ATOM     29  C   UNL     1       2.796  -1.514   4.765  0.00  0.00    +0.022 A 
ATOM     30  C   UNL     1       1.976  -1.913   5.804  0.00  0.00    +0.112 A 
ATOM     31  N   UNL     1       0.666  -1.775   5.726  0.00  0.00    -0.242 NA
ATOM     32  C   UNL     1       0.086  -1.248   4.665  0.00  0.00    +0.150 A 
ATOM     33 CL   UNL     1      -1.642  -1.085   4.623  0.00  0.00    -0.060 Cl
ENDBRANCH  25  27
ENDBRANCH  22  23
ENDBRANCH  20  22
ENDBRANCH  18  20
ENDBRANCH   1  18
TORSDOF 7
