REMARK  Name = ZINC39469348
REMARK  7 active torsions:
REMARK  status: ('A' for Active; 'I' for Inactive)
REMARK    1  A    between atoms: C_1  and  C_2
REMARK    2  A    between atoms: C_2  and  O_3
REMARK    3  A    between atoms: O_3  and  P_4
REMARK    4  A    between atoms: C_12  and  C_29
REMARK    5  A    between atoms: C_13  and  C_22
REMARK    6  A    between atoms: C_27  and  O_28
REMARK    7  A    between atoms: C_29  and  C_30
REMARK                            x       y       z     vdW  Elec       q    Type
REMARK                         _______ _______ _______ _____ _____    ______ ____
ROOT
ATOM      1  P   UNL     1       0.877  -2.026  -1.510  0.00  0.00    +0.394 P 
ATOM      2  O   UNL     1      -0.396  -2.760  -1.338  0.00  0.00    -0.241 OA
ATOM      3  N   UNL     1       2.049  -2.670  -0.542  0.00  0.00    -0.268 NA
ATOM      4  N   UNL     1       3.364  -2.413  -0.866  0.00  0.00    +0.399 N 
ATOM      5  C   UNL     1       4.176  -3.193   0.081  0.00  0.00    -0.046 C 
ATOM      6  C   UNL     1       5.663  -2.974  -0.167  0.00  0.00    +0.005 C 
ATOM      7  C   UNL     1       6.018  -1.522   0.007  0.00  0.00    -0.020 C 
ATOM      8  C   UNL     1       7.113  -1.039  -0.571  0.00  0.00    -0.039 C 
ATOM      9  C   UNL     1       7.972  -1.941  -1.368  0.00  0.00    -0.015 C 
ATOM     10  C   UNL     1       7.458  -3.078  -1.865  0.00  0.00    -0.014 C 
ATOM     11  C   UNL     1       6.009  -3.404  -1.596  0.00  0.00    +0.016 C 
ATOM     12  C   UNL     1       5.128  -2.618  -2.568  0.00  0.00    -0.003 C 
ATOM     13  C   UNL     1       3.645  -2.830  -2.242  0.00  0.00    -0.020 C 
ATOM     14  C   UNL     1       2.839  -2.005  -3.255  0.00  0.00    +0.159 C 
ATOM     15  O   UNL     1       1.433  -2.207  -3.029  0.00  0.00    -0.299 OA
ATOM     16  H   UNL     1       1.819  -3.211   0.229  0.00  0.00    +0.113 HD
ATOM     17  H   UNL     1       3.553  -1.427  -0.764  0.00  0.00    -0.055 HD
ENDROOT
BRANCH   9  18
ATOM     18  C   UNL     1       9.392  -1.593  -1.617  0.00  0.00    +0.024 A 
ATOM     19  C   UNL     1       9.717  -0.598  -2.537  0.00  0.00    +0.012 A 
ATOM     20  C   UNL     1      11.040  -0.277  -2.765  0.00  0.00    +0.001 A 
ATOM     21  C   UNL     1      12.045  -0.939  -2.083  0.00  0.00    +0.004 A 
ATOM     22  C   UNL     1      11.734  -1.928  -1.169  0.00  0.00    +0.046 A 
ATOM     23  C   UNL     1      10.410  -2.256  -0.926  0.00  0.00    +0.125 A 
BRANCH  23  24
ATOM     24  O   UNL     1      10.103  -3.224  -0.024  0.00  0.00    -0.506 OA
ATOM     25  H   UNL     1      10.051  -4.113  -0.402  0.00  0.00    +0.292 HD
ENDBRANCH  23  24
ENDBRANCH   9  18
BRANCH   1  26
ATOM     26  O   UNL     1       0.671  -0.465  -1.174  0.00  0.00    -0.298 OA
BRANCH  26  28
ATOM     27  C   UNL     1      -0.019   1.526   0.010  0.00  0.00    +0.035 C 
ATOM     28  C   UNL     1       0.002  -0.004   0.002  0.00  0.00    +0.168 C 
ENDBRANCH  26  28
ENDBRANCH   1  26
BRANCH   8  29
ATOM     29  C   UNL     1       7.475   0.415  -0.416  0.00  0.00    +0.070 C 
BRANCH  29  30
ATOM     30  C   UNL     1       8.446   0.572   0.726  0.00  0.00    -0.043 A 
ATOM     31  C   UNL     1       7.976   0.786   2.009  0.00  0.00    +0.004 A 
ATOM     32  C   UNL     1       8.867   0.930   3.056  0.00  0.00    +0.000 A 
ATOM     33  C   UNL     1      10.227   0.860   2.821  0.00  0.00    +0.000 A 
ATOM     34  C   UNL     1      10.697   0.645   1.538  0.00  0.00    +0.000 A 
ATOM     35  C   UNL     1       9.806   0.497   0.492  0.00  0.00    +0.004 A 
ENDBRANCH  29  30
ENDBRANCH   8  29
TORSDOF 6
