REMARK  Name = ZINC21244286
REMARK  9 active torsions:
REMARK  status: ('A' for Active; 'I' for Inactive)
REMARK    1  A    between atoms: C_1  and  C_2
REMARK    2  A    between atoms: C_2  and  O_3
REMARK    3  A    between atoms: O_3  and  C_4
REMARK    4  A    between atoms: C_7  and  C_12
REMARK    5  A    between atoms: C_9  and  O_10
REMARK    6  A    between atoms: O_10  and  C_11
REMARK    7  A    between atoms: C_17  and  C_23
REMARK    8  A    between atoms: C_26  and  O_30
REMARK    9  A    between atoms: O_30  and  C_31
REMARK                            x       y       z     vdW  Elec       q    Type
REMARK                         _______ _______ _______ _____ _____    ______ ____
ROOT
ATOM      1  C   UNL     1       2.430   3.895  -1.084  0.00  0.00    +0.032 C 
ATOM      2  C   UNL     1       1.099   3.509  -0.435  0.00  0.00    +0.059 C 
ATOM      3  C   UNL     1       1.147   2.066   0.002  0.00  0.00    +0.018 C 
ATOM      4  C   UNL     1       2.311   1.498   0.384  0.00  0.00    +0.020 C 
ATOM      5  C   UNL     1       2.333   0.055   0.829  0.00  0.00    +0.063 C 
ATOM      6  C   UNL     1       1.315  -0.744   0.013  0.00  0.00    +0.109 C 
ATOM      7  C   UNL     1       0.002  -0.004   0.002  0.00  0.00    +0.218 C 
ATOM      8  O   UNL     1      -1.040  -0.623  -0.013  0.00  0.00    -0.275 OA
ATOM      9  N   UNL     1      -0.016   1.340   0.009  0.00  0.00    -0.289 N 
ATOM     10  C   UNL     1       3.515   2.222   0.376  0.00  0.00    +0.162 C 
ATOM     11  O   UNL     1       4.541   1.679   0.737  0.00  0.00    -0.292 OA
ATOM     12  C   UNL     1       3.554   3.658  -0.071  0.00  0.00    +0.088 C 
ATOM     13  H   UNL     1      -0.987   1.857   0.021  0.00  0.00    +0.155 HD
ENDROOT
BRANCH   5  14
ATOM     14  C   UNL     1       1.980  -0.025   2.292  0.00  0.00    -0.038 A 
ATOM     15  C   UNL     1       0.758   0.449   2.733  0.00  0.00    +0.008 A 
ATOM     16  C   UNL     1       0.429   0.372   4.073  0.00  0.00    +0.047 A 
ATOM     17  C   UNL     1       1.330  -0.172   4.977  0.00  0.00    +0.134 A 
ATOM     18  C   UNL     1       2.558  -0.642   4.532  0.00  0.00    +0.060 A 
ATOM     19  C   UNL     1       2.879  -0.568   3.190  0.00  0.00    +0.023 A 
ATOM     20 BR   UNL     1       3.788  -1.385   5.761  0.00  0.00    -0.047 Br
BRANCH  17  21
ATOM     21  O   UNL     1       1.010  -0.244   6.296  0.00  0.00    -0.494 OA
ATOM     22  C   UNL     1      -0.270   0.259   6.682  0.00  0.00    +0.277 C 
ENDBRANCH  17  21
ENDBRANCH   5  14
BRANCH   1  26
ATOM     23  C   UNL     1       2.343   8.026  -2.188  0.00  0.00    +0.162 A 
ATOM     24  C   UNL     1       2.159   7.655  -0.866  0.00  0.00    +0.050 A 
ATOM     25  C   UNL     1       2.188   6.319  -0.512  0.00  0.00    +0.008 A 
ATOM     26  C   UNL     1       2.399   5.350  -1.476  0.00  0.00    -0.040 A 
ATOM     27  C   UNL     1       2.588   5.713  -2.796  0.00  0.00    +0.053 A 
ATOM     28  C   UNL     1       2.555   7.050  -3.158  0.00  0.00    +0.162 A 
BRANCH  28  29
ATOM     29  O   UNL     1       2.735   7.409  -4.457  0.00  0.00    -0.491 OA
ATOM     30  C   UNL     1       2.948   6.355  -5.398  0.00  0.00    +0.277 C 
ENDBRANCH  28  29
BRANCH  23  31
ATOM     31  O   UNL     1       2.316   9.340  -2.538  0.00  0.00    -0.489 OA
BRANCH  31  33
ATOM     32  C   UNL     1       2.096  11.701  -2.071  0.00  0.00    +0.048 C 
ATOM     33  C   UNL     1       2.094  10.285  -1.490  0.00  0.00    +0.226 C 
ENDBRANCH  31  33
ENDBRANCH  23  31
ENDBRANCH   1  26
TORSDOF 6
