REMARK  Name = ZINC41007016
REMARK  7 active torsions:
REMARK  status: ('A' for Active; 'I' for Inactive)
REMARK    1  A    between atoms: C_1  and  C_2
REMARK    2  A    between atoms: C_2  and  O_37
REMARK    3  A    between atoms: C_6  and  C_28
REMARK    4  A    between atoms: C_8  and  C_21
REMARK    5  A    between atoms: C_10  and  C_12
REMARK    6  A    between atoms: N_14  and  C_15
REMARK    7  A    between atoms: N_30  and  C_31
REMARK                            x       y       z     vdW  Elec       q    Type
REMARK                         _______ _______ _______ _____ _____    ______ ____
ROOT
ATOM      1  C   UNL     1       0.283   1.984   0.017  0.00  0.00    +0.042 C 
ATOM      2  C   UNL     1       0.016   0.487   0.194  0.00  0.00    +0.082 C 
ATOM      3  C   UNL     1       0.538  -0.273  -1.029  0.00  0.00    +0.110 C 
ATOM      4  C   UNL     1       2.043  -0.135  -1.075  0.00  0.00    +0.148 C 
ATOM      5  O   UNL     1       2.601   0.233  -2.082  0.00  0.00    -0.296 OA
ATOM      6  C   UNL     1       2.833  -0.468   0.171  0.00  0.00    +0.149 C 
ATOM      7  C   UNL     1       2.228   0.299   1.351  0.00  0.00    +0.053 C 
ATOM      8  C   UNL     1       0.734  -0.014   1.448  0.00  0.00    +0.115 C 
ENDROOT
BRANCH   7   9
ATOM      9  C   UNL     1       2.913  -0.117   2.626  0.00  0.00    -0.041 A 
ATOM     10  C   UNL     1       3.604  -1.314   2.681  0.00  0.00    +0.004 A 
ATOM     11  C   UNL     1       4.233  -1.697   3.850  0.00  0.00    +0.001 A 
ATOM     12  C   UNL     1       4.172  -0.883   4.966  0.00  0.00    +0.015 A 
ATOM     13  C   UNL     1       3.482   0.314   4.912  0.00  0.00    +0.018 A 
ATOM     14  C   UNL     1       2.857   0.699   3.740  0.00  0.00    +0.019 A 
ATOM     15 BR   UNL     1       3.398   1.427   6.439  0.00  0.00    -0.050 Br
ENDBRANCH   7   9
BRANCH   8  16
ATOM     16  C   UNL     1       0.541  -1.503   1.575  0.00  0.00    +0.224 C 
ATOM     17  O   UNL     1       1.505  -2.239   1.599  0.00  0.00    -0.275 OA
ATOM     18  N   UNL     1      -0.702  -2.017   1.660  0.00  0.00    -0.285 N 
ATOM     19  H   UNL     1      -1.474  -1.436   1.577  0.00  0.00    +0.155 HD
BRANCH  18  20
ATOM     20  C   UNL     1      -0.878  -3.389   1.870  0.00  0.00    +0.033 A 
ATOM     21  C   UNL     1      -1.940  -3.844   2.640  0.00  0.00    +0.023 A 
ATOM     22  C   UNL     1      -2.112  -5.199   2.845  0.00  0.00    +0.002 A 
ATOM     23  C   UNL     1      -1.228  -6.103   2.284  0.00  0.00    +0.000 A 
ATOM     24  C   UNL     1      -0.169  -5.652   1.516  0.00  0.00    +0.002 A 
ATOM     25  C   UNL     1       0.004  -4.299   1.302  0.00  0.00    +0.023 A 
ENDBRANCH  18  20
ENDBRANCH   8  16
BRANCH   6  26
ATOM     26  C   UNL     1       4.272  -0.062  -0.018  0.00  0.00    +0.228 C 
ATOM     27  O   UNL     1       4.775   0.750   0.728  0.00  0.00    -0.275 OA
ATOM     28  N   UNL     1       4.999  -0.603  -1.016  0.00  0.00    -0.285 N 
ATOM     29  H   UNL     1       4.577  -1.196  -1.657  0.00  0.00    +0.155 HD
BRANCH  28  30
ATOM     30  C   UNL     1       6.363  -0.308  -1.126  0.00  0.00    +0.033 A 
ATOM     31  C   UNL     1       6.952  -0.202  -2.379  0.00  0.00    +0.023 A 
ATOM     32  C   UNL     1       8.298   0.089  -2.485  0.00  0.00    +0.002 A 
ATOM     33  C   UNL     1       9.059   0.274  -1.345  0.00  0.00    +0.000 A 
ATOM     34  C   UNL     1       8.475   0.168  -0.096  0.00  0.00    +0.002 A 
ATOM     35  C   UNL     1       7.128  -0.116   0.017  0.00  0.00    +0.023 A 
ENDBRANCH  28  30
ENDBRANCH   6  26
BRANCH   2  36
ATOM     36  O   UNL     1      -1.389   0.267   0.329  0.00  0.00    -0.388 OA
ATOM     37  H   UNL     1      -1.909   0.561  -0.432  0.00  0.00    +0.210 HD
ENDBRANCH   2  36
TORSDOF 6
