REMARK  Name = ZINC39666881
REMARK  11 active torsions:
REMARK  status: ('A' for Active; 'I' for Inactive)
REMARK    1  A    between atoms: C_1  and  C_2
REMARK    2  A    between atoms: C_2  and  C_3
REMARK    3  A    between atoms: C_3  and  C_4
REMARK    4  A    between atoms: C_3  and  C_6
REMARK    5  A    between atoms: C_4  and  C_5
REMARK    6  A    between atoms: C_6  and  N_7
REMARK    7  A    between atoms: C_8  and  C_10
REMARK    8  A    between atoms: C_21  and  C_23
REMARK    9  A    between atoms: C_23  and  O_24
REMARK   10  A    between atoms: O_24  and  C_25
REMARK   11  A    between atoms: C_35  and  C_36
REMARK                            x       y       z     vdW  Elec       q    Type
REMARK                         _______ _______ _______ _____ _____    ______ ____
ROOT
ATOM      1  C   UNL     1       3.628  -3.916  -1.269  0.00  0.00    +0.100 C 
ATOM      2  C   UNL     1       3.065  -3.467  -2.636  0.00  0.00    +0.121 C 
ATOM      3  N   UNL     1       3.609  -4.448  -3.605  0.00  0.00    -0.297 N 
ATOM      4  C   UNL     1       3.541  -5.746  -2.893  0.00  0.00    +0.115 C 
ATOM      5  C   UNL     1       3.939  -5.412  -1.441  0.00  0.00    -0.004 C 
ATOM      6  C   UNL     1       3.109  -6.239  -0.464  0.00  0.00    -0.010 C 
ATOM      7  C   UNL     1       3.478  -7.718  -0.613  0.00  0.00    -0.082 C 
ATOM      8  N   UNL     1       4.910  -7.897  -0.345  0.00  0.00    +0.379 N 
ATOM      9  C   UNL     1       5.701  -7.173  -1.347  0.00  0.00    -0.082 C 
ATOM     10  C   UNL     1       5.427  -5.671  -1.228  0.00  0.00    -0.010 C 
ATOM     11  C   UNL     1       4.063  -4.213  -4.852  0.00  0.00    +0.253 C 
ATOM     12  O   UNL     1       4.481  -5.129  -5.528  0.00  0.00    -0.272 OA
ATOM     13  H   UNL     1       5.126  -7.541   0.574  0.00  0.00    -0.086 HD
ATOM     14  H   UNL     1       5.138  -8.880  -0.385  0.00  0.00    -0.086 HD
ENDROOT
BRANCH   1  16
ATOM     15  N   UNL     1       2.993  -3.466   1.079  0.00  0.00    -0.315 N 
ATOM     16  C   UNL     1       2.600  -3.714  -0.186  0.00  0.00    +0.218 C 
ATOM     17  O   UNL     1       1.418  -3.776  -0.453  0.00  0.00    -0.275 OA
ATOM     18  H   UNL     1       3.938  -3.416   1.292  0.00  0.00    +0.149 HD
BRANCH  15  19
ATOM     19  C   UNL     1       1.993  -3.270   2.131  0.00  0.00    +0.107 C 
BRANCH  19  20
ATOM     20  C   UNL     1       2.699  -3.006   3.463  0.00  0.00    +0.006 C 
BRANCH  20  22
ATOM     21  C   UNL     1       4.288  -1.491   4.655  0.00  0.00    +0.004 C 
ATOM     22  C   UNL     1       3.465  -1.683   3.381  0.00  0.00    +0.002 C 
ENDBRANCH  20  22
BRANCH  20  23
ATOM     23  C   UNL     1       1.661  -2.925   4.583  0.00  0.00    +0.002 C 
ATOM     24  C   UNL     1       0.991  -4.289   4.757  0.00  0.00    +0.004 C 
ENDBRANCH  20  23
ENDBRANCH  19  20
ENDBRANCH  15  19
ENDBRANCH   1  16
BRANCH  11  25
ATOM     25  C   UNL     1       4.053  -2.811  -5.406  0.00  0.00    +0.324 C 
BRANCH  25  26
ATOM     26  O   UNL     1       4.579  -2.820  -6.734  0.00  0.00    -0.479 OA
BRANCH  26  27
ATOM     27  C   UNL     1       4.640  -1.626  -7.382  0.00  0.00    +0.164 A 
ATOM     28  C   UNL     1       4.209  -0.472  -6.752  0.00  0.00    +0.049 A 
ATOM     29  C   UNL     1       4.266   0.751  -7.402  0.00  0.00    +0.004 A 
ATOM     30  C   UNL     1       4.753   0.836  -8.686  0.00  0.00    +0.012 A 
ATOM     31  C   UNL     1       5.194  -0.321  -9.338  0.00  0.00    +0.024 A 
ATOM     32  C   UNL     1       5.143  -1.560  -8.680  0.00  0.00    +0.181 A 
ATOM     33  O   UNL     1       5.573  -2.675  -9.310  0.00  0.00    -0.418 OA
ATOM     34  C   UNL     1       6.060  -2.630 -10.560  0.00  0.00    +0.338 A 
ATOM     35  O   UNL     1       6.436  -3.660 -11.088  0.00  0.00    -0.245 OA
ATOM     36  C   UNL     1       6.146  -1.417 -11.278  0.00  0.00    +0.096 A 
ATOM     37  C   UNL     1       5.719  -0.263 -10.706  0.00  0.00    -0.033 A 
ATOM     38  C   UNL     1       5.798   1.045 -11.450  0.00  0.00    +0.045 C 
ENDBRANCH  26  27
ENDBRANCH  25  26
ENDBRANCH  11  25
TORSDOF 8
