REMARK  Name = ZINC12450345
REMARK  9 active torsions:
REMARK  status: ('A' for Active; 'I' for Inactive)
REMARK    1  A    between atoms: C_1  and  C_2
REMARK    2  A    between atoms: C_4  and  C_7
REMARK    3  A    between atoms: C_7  and  N_8
REMARK    4  A    between atoms: N_8  and  C_9
REMARK    5  A    between atoms: C_10  and  C_12
REMARK    6  A    between atoms: C_13  and  C_35
REMARK    7  A    between atoms: N_21  and  C_22
REMARK    8  A    between atoms: C_22  and  C_23
REMARK    9  A    between atoms: C_23  and  C_29
REMARK                            x       y       z     vdW  Elec       q    Type
REMARK                         _______ _______ _______ _____ _____    ______ ____
ROOT
ATOM      1  C   UNL     1      -2.440   3.064   4.670  0.00  0.00    +0.080 A 
ATOM      2  C   UNL     1      -1.849   2.998   3.446  0.00  0.00    -0.019 A 
ATOM      3  C   UNL     1      -0.477   2.734   3.347  0.00  0.00    +0.051 A 
ATOM      4  C   UNL     1       0.339   2.614   2.182  0.00  0.00    +0.131 A 
ATOM      5  N   UNL     1       1.627   2.351   2.321  0.00  0.00    -0.220 NA
ATOM      6  C   UNL     1       2.191   2.189   3.504  0.00  0.00    +0.224 A 
ATOM      7  N   UNL     1       1.491   2.281   4.619  0.00  0.00    -0.228 NA
ATOM      8  C   UNL     1       0.200   2.541   4.577  0.00  0.00    +0.114 A 
ATOM      9  S   UNL     1      -1.083   2.747   5.785  0.00  0.00    -0.064 S 
ATOM     10  N   UNL     1      -0.210   2.776   0.926  0.00  0.00    -0.328 N 
ATOM     11  C   UNL     1      -2.668   3.214   2.199  0.00  0.00    +0.046 C 
ATOM     12  H   UNL     1      -1.130   3.071   0.833  0.00  0.00    +0.147 HD
ENDROOT
BRANCH   1  15
ATOM     13  N   UNL     1      -4.279   3.217   6.266  0.00  0.00    -0.293 N 
ATOM     14  C   UNL     1      -3.324   2.939   7.342  0.00  0.00    +0.133 C 
ATOM     15  C   UNL     1      -3.847   3.331   4.995  0.00  0.00    +0.254 C 
ATOM     16  O   UNL     1      -4.622   3.656   4.115  0.00  0.00    -0.269 OA
BRANCH  13  17
ATOM     17  C   UNL     1      -5.703   3.370   6.572  0.00  0.00    +0.184 C 
BRANCH  17  21
ATOM     18  C   UNL     1      -7.673  -1.220   7.553  0.00  0.00    +0.069 C 
ATOM     19  C   UNL     1      -7.233   0.058   6.887  0.00  0.00    +0.081 A 
ATOM     20  C   UNL     1      -6.540   1.133   7.492  0.00  0.00    +0.072 A 
ATOM     21  C   UNL     1      -6.382   2.027   6.487  0.00  0.00    +0.155 A 
ATOM     22  O   UNL     1      -6.954   1.484   5.402  0.00  0.00    -0.358 OA
ATOM     23  N   UNL     1      -7.415   0.393   5.642  0.00  0.00    -0.083 NA
ENDBRANCH  17  21
ENDBRANCH  13  17
ENDBRANCH   1  15
BRANCH  10  24
ATOM     24  C   UNL     1       0.597   2.505  -0.267  0.00  0.00    +0.114 C 
BRANCH  24  25
ATOM     25  C   UNL     1      -0.196   2.890  -1.517  0.00  0.00    +0.015 C 
ATOM     26  C   UNL     1       0.669   2.666  -2.761  0.00  0.00    +0.041 C 
ATOM     27  C   UNL     1       1.889   3.591  -2.696  0.00  0.00    +0.160 C 
ATOM     28  O   UNL     1       1.453   4.948  -2.593  0.00  0.00    -0.380 OA
ATOM     29  C   UNL     1       0.678   5.226  -1.425  0.00  0.00    +0.160 C 
ATOM     30  C   UNL     1      -0.590   4.368  -1.439  0.00  0.00    +0.041 C 
BRANCH  25  31
ATOM     31  C   UNL     1      -1.438   2.041  -1.608  0.00  0.00    -0.040 A 
ATOM     32  C   UNL     1      -2.681   2.642  -1.690  0.00  0.00    +0.004 A 
ATOM     33  C   UNL     1      -3.820   1.863  -1.778  0.00  0.00    +0.000 A 
ATOM     34  C   UNL     1      -3.717   0.485  -1.773  0.00  0.00    +0.000 A 
ATOM     35  C   UNL     1      -2.475  -0.115  -1.686  0.00  0.00    +0.000 A 
ATOM     36  C   UNL     1      -1.336   0.663  -1.603  0.00  0.00    +0.004 A 
ENDBRANCH  25  31
ENDBRANCH  24  25
ENDBRANCH  10  24
TORSDOF 6
