REMARK  Name = ZINC49765484
REMARK  8 active torsions:
REMARK  status: ('A' for Active; 'I' for Inactive)
REMARK    1  A    between atoms: C_1  and  O_2
REMARK    2  A    between atoms: O_2  and  C_3
REMARK    3  A    between atoms: C_6  and  O_9
REMARK    4  A    between atoms: O_9  and  C_10
REMARK    5  A    between atoms: C_10  and  C_11
REMARK    6  A    between atoms: C_11  and  N_13
REMARK    7  A    between atoms: N_20  and  C_23
REMARK    8  A    between atoms: C_23  and  C_24
REMARK                            x       y       z     vdW  Elec       q    Type
REMARK                         _______ _______ _______ _____ _____    ______ ____
ROOT
ATOM      1  N   UNL     1       3.292  -5.656  -5.741  0.00  0.00    -0.154 NA
ATOM      2  C   UNL     1       3.917  -6.086  -6.839  0.00  0.00    +0.163 A 
ATOM      3  N   UNL     1       4.481  -5.350  -7.833  0.00  0.00    -0.339 N 
ATOM      4  C   UNL     1       5.080  -5.984  -8.885  0.00  0.00    +0.024 A 
ATOM      5  C   UNL     1       5.053  -7.326  -8.838  0.00  0.00    -0.004 A 
ATOM      6  S   UNL     1       4.203  -7.672  -7.326  0.00  0.00    -0.059 S 
ATOM      7  C   UNL     1       5.621  -8.269  -9.847  0.00  0.00    -0.033 C 
ATOM      8  N   UNL     1       5.890  -7.516 -11.086  0.00  0.00    +0.386 N 
ATOM      9  C   UNL     1       6.653  -6.302 -10.766  0.00  0.00    -0.072 C 
ATOM     10  C   UNL     1       5.753  -5.283 -10.059  0.00  0.00    +0.035 C 
ATOM     11  H   UNL     1       4.459  -4.381  -7.795  0.00  0.00    +0.167 HD
ATOM     12  H   UNL     1       5.016  -7.259 -11.521  0.00  0.00    -0.081 HD
ENDROOT
BRANCH   1  13
ATOM     13  C   UNL     1       3.159  -4.354  -5.520  0.00  0.00    +0.276 C 
ATOM     14  O   UNL     1       3.607  -3.553  -6.319  0.00  0.00    -0.270 OA
BRANCH  13  15
ATOM     15  C   UNL     1       2.454  -3.868  -4.280  0.00  0.00    +0.326 C 
BRANCH  15  16
ATOM     16  O   UNL     1       2.440  -2.439  -4.269  0.00  0.00    -0.483 OA
BRANCH  16  20
ATOM     17  C   UNL     1       0.606  -0.608  -1.056  0.00  0.00    +0.120 A 
ATOM     18  C   UNL     1       1.173   0.161  -2.062  0.00  0.00    +0.049 A 
ATOM     19  C   UNL     1       1.786  -0.452  -3.137  0.00  0.00    +0.049 A 
ATOM     20  C   UNL     1       1.836  -1.836  -3.211  0.00  0.00    +0.121 A 
ATOM     21  C   UNL     1       1.270  -2.604  -2.204  0.00  0.00    +0.049 A 
ATOM     22  C   UNL     1       0.661  -1.992  -1.127  0.00  0.00    +0.049 A 
BRANCH  17  24
ATOM     23  C   UNL     1      -0.017   1.425   0.010  0.00  0.00    +0.277 C 
ATOM     24  O   UNL     1       0.002  -0.004   0.002  0.00  0.00    -0.495 OA
ENDBRANCH  17  24
ENDBRANCH  16  20
ENDBRANCH  15  16
ENDBRANCH  13  15
ENDBRANCH   1  13
BRANCH   8  25
ATOM     25  C   UNL     1       6.668  -8.354 -12.009  0.00  0.00    -0.043 C 
BRANCH  25  26
ATOM     26  C   UNL     1       5.838  -9.537 -12.434  0.00  0.00    -0.064 A 
ATOM     27  C   UNL     1       5.875 -10.707 -11.699  0.00  0.00    +0.002 A 
ATOM     28  C   UNL     1       5.114 -11.793 -12.088  0.00  0.00    +0.000 A 
ATOM     29  C   UNL     1       4.315 -11.709 -13.213  0.00  0.00    +0.000 A 
ATOM     30  C   UNL     1       4.277 -10.539 -13.948  0.00  0.00    +0.000 A 
ATOM     31  C   UNL     1       5.035  -9.451 -13.556  0.00  0.00    +0.002 A 
ENDBRANCH  25  26
ENDBRANCH   8  25
TORSDOF 7
