REMARK  Name = ZINC65153620
REMARK  9 active torsions:
REMARK  status: ('A' for Active; 'I' for Inactive)
REMARK    1  A    between atoms: C_1  and  C_2
REMARK    2  A    between atoms: C_5  and  N_9
REMARK    3  A    between atoms: C_10  and  C_12
REMARK    4  A    between atoms: C_12  and  N_13
REMARK    5  A    between atoms: C_19  and  C_20
REMARK    6  A    between atoms: C_20  and  C_21
REMARK    7  A    between atoms: C_20  and  C_22
REMARK    8  A    between atoms: N_25  and  C_27
REMARK    9  A    between atoms: C_27  and  C_28
REMARK                            x       y       z     vdW  Elec       q    Type
REMARK                         _______ _______ _______ _____ _____    ______ ____
ROOT
ATOM      1  N   UNL     1       0.394  -6.806  -2.581  0.00  0.00    -0.287 N 
ATOM      2  C   UNL     1      -0.716  -6.902  -3.343  0.00  0.00    +0.256 A 
ATOM      3  O   UNL     1      -1.807  -6.592  -2.894  0.00  0.00    -0.267 OA
ATOM      4  C   UNL     1      -0.590  -7.369  -4.670  0.00  0.00    +0.022 A 
ATOM      5  C   UNL     1       0.643  -7.699  -5.130  0.00  0.00    +0.048 A 
ATOM      6  N   UNL     1       1.704  -7.584  -4.321  0.00  0.00    -0.238 NA
ATOM      7  C   UNL     1       1.590  -7.150  -3.096  0.00  0.00    +0.116 A 
ATOM      8  C   UNL     1       0.852  -8.192  -6.539  0.00  0.00    +0.037 C 
ATOM      9  C   UNL     1      -0.484  -8.632  -7.138  0.00  0.00    -0.072 C 
ATOM     10  N   UNL     1      -1.464  -7.552  -6.943  0.00  0.00    +0.385 N 
ATOM     11  C   UNL     1      -1.823  -7.486  -5.523  0.00  0.00    -0.035 C 
ATOM     12  H   UNL     1      -1.060  -6.673  -7.231  0.00  0.00    -0.081 HD
ENDROOT
BRANCH   7  13
ATOM     13  C   UNL     1       2.823  -7.036  -2.237  0.00  0.00    +0.049 C 
ATOM     14  C   UNL     1       3.846  -8.088  -2.671  0.00  0.00    +0.015 C 
ATOM     15  C   UNL     1       3.428  -5.640  -2.395  0.00  0.00    +0.015 C 
ENDBRANCH   7  13
BRANCH   1  16
ATOM     16  C   UNL     1       0.298  -6.324  -1.201  0.00  0.00    +0.222 C 
BRANCH  16  18
ATOM     17  N   UNL     1       0.101  -7.296   1.065  0.00  0.00    -0.282 N 
ATOM     18  C   UNL     1       0.199  -7.500  -0.264  0.00  0.00    +0.237 C 
ATOM     19  O   UNL     1       0.206  -8.630  -0.705  0.00  0.00    -0.274 OA
ATOM     20  H   UNL     1       0.013  -6.395   1.412  0.00  0.00    +0.155 HD
BRANCH  17  25
ATOM     21  C   UNL     1       0.210 -11.713   4.628  0.00  0.00    +0.044 C 
ATOM     22  C   UNL     1       0.180 -10.540   3.683  0.00  0.00    -0.048 A 
ATOM     23  C   UNL     1       0.769 -10.644   2.436  0.00  0.00    +0.005 A 
ATOM     24  C   UNL     1       0.744  -9.570   1.566  0.00  0.00    +0.026 A 
ATOM     25  C   UNL     1       0.127  -8.386   1.944  0.00  0.00    +0.069 A 
ATOM     26  C   UNL     1      -0.464  -8.284   3.199  0.00  0.00    +0.145 A 
ATOM     27  C   UNL     1      -0.440  -9.364   4.062  0.00  0.00    +0.043 A 
ATOM     28  F   UNL     1      -1.066  -7.133   3.571  0.00  0.00    -0.204 F 
ENDBRANCH  17  25
ENDBRANCH  16  18
ENDBRANCH   1  16
BRANCH  10  29
ATOM     29  C   UNL     1      -2.666  -7.828  -7.742  0.00  0.00    -0.043 C 
BRANCH  29  30
ATOM     30  C   UNL     1      -3.617  -6.664  -7.638  0.00  0.00    -0.064 A 
ATOM     31  C   UNL     1      -4.566  -6.634  -6.633  0.00  0.00    +0.002 A 
ATOM     32  C   UNL     1      -5.438  -5.566  -6.538  0.00  0.00    +0.000 A 
ATOM     33  C   UNL     1      -5.361  -4.527  -7.447  0.00  0.00    +0.000 A 
ATOM     34  C   UNL     1      -4.411  -4.556  -8.451  0.00  0.00    +0.000 A 
ATOM     35  C   UNL     1      -3.536  -5.623  -8.543  0.00  0.00    +0.002 A 
ENDBRANCH  29  30
ENDBRANCH  10  29
TORSDOF 6
