REMARK  Name = ZINC02420587
REMARK  5 active torsions:
REMARK  status: ('A' for Active; 'I' for Inactive)
REMARK    1  A    between atoms: C_1  and  C_2
REMARK    2  A    between atoms: C_2  and  C_38
REMARK    3  A    between atoms: C_6  and  C_29
REMARK    4  A    between atoms: C_11  and  C_18
REMARK    5  A    between atoms: C_27  and  O_28
REMARK                            x       y       z     vdW  Elec       q    Type
REMARK                         _______ _______ _______ _____ _____    ______ ____
ROOT
ATOM      1  C   UNL     1      -0.019   1.526   0.010  0.00  0.00    +0.012 C 
ATOM      2  C   UNL     1       0.002  -0.004   0.002  0.00  0.00    -0.021 C 
ATOM      3  C   UNL     1      -1.431  -0.538   0.038  0.00  0.00    +0.081 C 
ATOM      4  C   UNL     1      -1.409  -2.048   0.069  0.00  0.00    +0.115 C 
ATOM      5  C   UNL     1      -0.397  -2.708   0.664  0.00  0.00    +0.045 C 
ATOM      6  C   UNL     1      -0.382  -4.217   0.696  0.00  0.00    +0.094 C 
ATOM      7  C   UNL     1      -1.299  -4.766  -0.351  0.00  0.00    +0.071 A 
ATOM      8  C   UNL     1      -1.202  -6.090  -0.805  0.00  0.00    +0.167 A 
ATOM      9  N   UNL     1      -0.409  -7.086  -0.492  0.00  0.00    -0.206 NA
ATOM     10  C   UNL     1      -0.729  -8.161  -1.223  0.00  0.00    +0.186 A 
ATOM     11  N   UNL     1      -1.743  -7.865  -2.022  0.00  0.00    -0.143 NA
ATOM     12  N   UNL     1      -2.075  -6.540  -1.780  0.00  0.00    -0.201 N 
ATOM     13  C   UNL     1      -3.022  -5.719  -2.300  0.00  0.00    +0.229 A 
ATOM     14  N   UNL     1      -3.094  -4.487  -1.856  0.00  0.00    -0.201 NA
ATOM     15  C   UNL     1      -2.279  -3.990  -0.915  0.00  0.00    +0.229 A 
ATOM     16  O   UNL     1      -2.427  -2.707  -0.514  0.00  0.00    -0.441 OA
ATOM     17  C   UNL     1       0.672  -2.019   1.265  0.00  0.00    +0.164 C 
ATOM     18  O   UNL     1       1.555  -2.649   1.813  0.00  0.00    -0.292 OA
ATOM     19  C   UNL     1       0.743  -0.516   1.242  0.00  0.00    +0.086 C 
ATOM     20  C   UNL     1       0.709  -0.502  -1.260  0.00  0.00    +0.012 C 
ENDROOT
BRANCH  10  21
ATOM     21  C   UNL     1      -0.053  -9.478  -1.151  0.00  0.00    +0.063 A 
ATOM     22  C   UNL     1      -0.475 -10.511  -1.965  0.00  0.00    +0.023 A 
ATOM     23  C   UNL     1       0.169 -11.757  -1.893  0.00  0.00    -0.017 A 
ATOM     24  C   UNL     1      -0.234 -12.830  -2.708  0.00  0.00    +0.008 A 
ATOM     25  C   UNL     1       0.410 -14.025  -2.615  0.00  0.00    +0.001 A 
ATOM     26  C   UNL     1       1.466 -14.203  -1.722  0.00  0.00    +0.001 A 
ATOM     27  C   UNL     1       1.883 -13.188  -0.918  0.00  0.00    +0.008 A 
ATOM     28  C   UNL     1       1.243 -11.938  -0.985  0.00  0.00    -0.014 A 
ATOM     29  C   UNL     1       1.652 -10.870  -0.169  0.00  0.00    +0.054 A 
ATOM     30  C   UNL     1       1.018  -9.666  -0.256  0.00  0.00    +0.128 A 
BRANCH  30  31
ATOM     31  O   UNL     1       1.422  -8.636   0.533  0.00  0.00    -0.506 OA
ATOM     32  H   UNL     1       0.971  -8.595   1.387  0.00  0.00    +0.292 HD
ENDBRANCH  30  31
ENDBRANCH  10  21
BRANCH   6  33
ATOM     33  C   UNL     1      -0.835  -4.693   2.052  0.00  0.00    -0.035 A 
ATOM     34  C   UNL     1      -2.096  -4.365   2.513  0.00  0.00    +0.004 A 
ATOM     35  C   UNL     1      -2.512  -4.802   3.757  0.00  0.00    +0.000 A 
ATOM     36  C   UNL     1      -1.667  -5.566   4.539  0.00  0.00    +0.000 A 
ATOM     37  C   UNL     1      -0.406  -5.895   4.078  0.00  0.00    +0.000 A 
ATOM     38  C   UNL     1       0.008  -5.462   2.832  0.00  0.00    +0.004 A 
ENDBRANCH   6  33
TORSDOF 3
