REMARK  Name = ZINC00681773
REMARK  8 active torsions:
REMARK  status: ('A' for Active; 'I' for Inactive)
REMARK    1  A    between atoms: C_1  and  C_2
REMARK    2  A    between atoms: C_2  and  N_3
REMARK    3  A    between atoms: N_3  and  C_4
REMARK    4  A    between atoms: N_3  and  C_6
REMARK    5  A    between atoms: C_4  and  C_5
REMARK    6  A    between atoms: C_9  and  C_12
REMARK    7  A    between atoms: C_17  and  C_33
REMARK    8  A    between atoms: C_27  and  C_29
REMARK                            x       y       z     vdW  Elec       q    Type
REMARK                         _______ _______ _______ _____ _____    ______ ____
ROOT
ATOM      1  C   UNL     1      -3.285  -4.335  -2.993  0.00  0.00    +0.032 C 
ATOM      2  C   UNL     1      -2.973  -2.892  -3.381  0.00  0.00    +0.059 C 
ATOM      3  C   UNL     1      -2.435  -2.134  -2.179  0.00  0.00    +0.017 C 
ATOM      4  C   UNL     1      -1.718  -2.770  -1.238  0.00  0.00    +0.040 C 
ATOM      5  C   UNL     1      -1.125  -2.141   0.001  0.00  0.00    +0.182 C 
ATOM      6  N   UNL     1      -1.156  -0.694   0.009  0.00  0.00    -0.248 N 
ATOM      7  C   UNL     1      -2.367  -0.004   0.030  0.00  0.00    +0.059 A 
ATOM      8  C   UNL     1      -2.746   0.754   1.128  0.00  0.00    +0.025 A 
ATOM      9  C   UNL     1      -3.984   1.371   1.135  0.00  0.00    +0.002 A 
ATOM     10  C   UNL     1      -4.843   1.233   0.059  0.00  0.00    +0.002 A 
ATOM     11  C   UNL     1      -4.457   0.493  -1.060  0.00  0.00    +0.025 A 
ATOM     12  C   UNL     1      -3.208  -0.103  -1.073  0.00  0.00    +0.053 A 
ATOM     13  N   UNL     1      -2.728  -0.807  -2.172  0.00  0.00    -0.316 N 
ATOM     14  C   UNL     1       0.002  -0.004   0.002  0.00  0.00    +0.325 C 
ATOM     15  O   UNL     1       1.061  -0.596  -0.011  0.00  0.00    -0.265 OA
ATOM     16  C   UNL     1      -1.459  -4.156  -1.353  0.00  0.00    +0.163 C 
ATOM     17  O   UNL     1      -0.789  -4.702  -0.499  0.00  0.00    -0.292 OA
ATOM     18  C   UNL     1      -1.984  -4.976  -2.495  0.00  0.00    +0.088 C 
ATOM     19  H   UNL     1      -2.592  -0.314  -2.996  0.00  0.00    +0.152 HD
ENDROOT
BRANCH   1  23
ATOM     20  C   UNL     1      -4.741  -6.468  -6.399  0.00  0.00    +0.030 A 
ATOM     21  C   UNL     1      -5.535  -6.341  -5.266  0.00  0.00    +0.023 A 
ATOM     22  C   UNL     1      -5.061  -5.651  -4.167  0.00  0.00    +0.006 A 
ATOM     23  C   UNL     1      -3.799  -5.087  -4.194  0.00  0.00    -0.043 A 
ATOM     24  C   UNL     1      -3.008  -5.207  -5.323  0.00  0.00    +0.006 A 
ATOM     25  C   UNL     1      -3.473  -5.901  -6.423  0.00  0.00    +0.023 A 
BRANCH  20  26
ATOM     26  N   UNL     1      -5.217  -7.165  -7.512  0.00  0.00    -0.330 N 
BRANCH  26  28
ATOM     27  C   UNL     1      -3.531  -8.567  -8.595  0.00  0.00    +0.024 C 
ATOM     28  C   UNL     1      -4.379  -7.298  -8.706  0.00  0.00    +0.102 C 
ENDBRANCH  26  28
BRANCH  26  29
ATOM     29  C   UNL     1      -6.555  -7.762  -7.486  0.00  0.00    +0.102 C 
ATOM     30  C   UNL     1      -7.577  -6.748  -8.003  0.00  0.00    +0.024 C 
ENDBRANCH  26  29
ENDBRANCH  20  26
ENDBRANCH   1  23
BRANCH   5  31
ATOM     31  C   UNL     1      -1.886  -2.642   1.202  0.00  0.00    +0.130 A 
ATOM     32  C   UNL     1      -1.535  -3.684   1.976  0.00  0.00    +0.047 A 
ATOM     33  C   UNL     1      -2.523  -3.798   2.981  0.00  0.00    +0.041 A 
ATOM     34  C   UNL     1      -3.422  -2.824   2.757  0.00  0.00    +0.195 A 
ATOM     35  O   UNL     1      -3.031  -2.126   1.678  0.00  0.00    -0.466 OA
ENDBRANCH   5  31
BRANCH  14  36
ATOM     36  C   UNL     1      -0.018   1.503   0.010  0.00  0.00    +0.470 C 
ATOM     37  F   UNL     1       1.294   1.987   0.000  0.00  0.00    -0.162 F 
ATOM     38  F   UNL     1      -0.695   1.966  -1.123  0.00  0.00    -0.162 F 
ATOM     39  F   UNL     1      -0.673   1.954   1.161  0.00  0.00    -0.162 F 
ENDBRANCH  14  36
TORSDOF 6
