REMARK  Name = ZINC07648402
REMARK  6 active torsions:
REMARK  status: ('A' for Active; 'I' for Inactive)
REMARK    1  A    between atoms: C_1  and  C_2
REMARK    2  A    between atoms: C_15  and  C_17
REMARK    3  A    between atoms: C_17  and  N_51
REMARK    4  A    between atoms: C_18  and  C_20
REMARK    5  A    between atoms: C_18  and  C_26
REMARK    6  A    between atoms: C_18  and  N_51
REMARK                            x       y       z     vdW  Elec       q    Type
REMARK                         _______ _______ _______ _____ _____    ______ ____
ROOT
ATOM      1  C   UNL     1      -0.726   1.578   1.269  0.00  0.00    +0.029 C 
ATOM      2  C   UNL     1      -0.013   1.086   0.008  0.00  0.00    +0.087 C 
ATOM      3  C   UNL     1      -0.761   1.591  -1.227  0.00  0.00    +0.118 C 
ATOM      4  C   UNL     1       0.112   1.469  -2.447  0.00  0.00    +0.219 C 
ATOM      5  O   UNL     1      -0.092   0.581  -3.248  0.00  0.00    -0.275 OA
ATOM      6  N   UNL     1       1.122   2.341  -2.656  0.00  0.00    -0.284 N 
ATOM      7  C   UNL     1       1.432   3.312  -1.697  0.00  0.00    +0.055 A 
ATOM      8  C   UNL     1       1.618   4.635  -2.059  0.00  0.00    +0.025 A 
ATOM      9  C   UNL     1       1.978   5.566  -1.103  0.00  0.00    +0.002 A 
ATOM     10  C   UNL     1       2.152   5.181   0.214  0.00  0.00    +0.002 A 
ATOM     11  C   UNL     1       1.956   3.864   0.586  0.00  0.00    +0.025 A 
ATOM     12  C   UNL     1       1.587   2.926  -0.365  0.00  0.00    +0.058 A 
ATOM     13  N   UNL     1       1.361   1.591  -0.002  0.00  0.00    -0.268 N 
ATOM     14  C   UNL     1       2.391   0.787   0.330  0.00  0.00    +0.203 C 
ATOM     15  O   UNL     1       2.183  -0.367   0.641  0.00  0.00    -0.277 OA
ATOM     16  H   UNL     1       1.636   2.295  -3.478  0.00  0.00    +0.155 HD
ENDROOT
BRANCH  14  17
ATOM     17  C   UNL     1       3.800   1.321   0.314  0.00  0.00    +0.017 C 
BRANCH  17  18
ATOM     18  N   UNL     1       4.728   0.247   0.714  0.00  0.00    +0.394 N 
ATOM     19  H   UNL     1       4.645  -0.535   0.055  0.00  0.00    -0.084 HD
ATOM     20  H   UNL     1       4.488  -0.074   1.659  0.00  0.00    -0.084 HD
BRANCH  18  21
ATOM     21  C   UNL     1       6.118   0.743   0.708  0.00  0.00    +0.027 C 
BRANCH  21  22
ATOM     22  C   UNL     1       6.944  -0.088   1.656  0.00  0.00    -0.054 A 
ATOM     23  C   UNL     1       6.747  -1.455   1.728  0.00  0.00    +0.002 A 
ATOM     24  C   UNL     1       7.508  -2.218   2.594  0.00  0.00    +0.000 A 
ATOM     25  C   UNL     1       8.458  -1.613   3.395  0.00  0.00    +0.000 A 
ATOM     26  C   UNL     1       8.651  -0.246   3.326  0.00  0.00    +0.000 A 
ATOM     27  C   UNL     1       7.894   0.516   2.457  0.00  0.00    +0.002 A 
ENDBRANCH  21  22
BRANCH  21  28
ATOM     28  C   UNL     1       6.685   0.631  -0.683  0.00  0.00    +0.095 A 
ATOM     29  C   UNL     1       7.476   1.538  -1.286  0.00  0.00    +0.043 A 
ATOM     30  C   UNL     1       7.774   1.032  -2.571  0.00  0.00    +0.041 A 
ATOM     31  C   UNL     1       7.141  -0.150  -2.681  0.00  0.00    +0.195 A 
ATOM     32  O   UNL     1       6.484  -0.387  -1.535  0.00  0.00    -0.469 OA
ENDBRANCH  21  28
ENDBRANCH  18  21
ENDBRANCH  17  18
ENDBRANCH  14  17
TORSDOF 5
