REMARK  Name = ZINC08671191
REMARK  8 active torsions:
REMARK  status: ('A' for Active; 'I' for Inactive)
REMARK    1  A    between atoms: C_1  and  C_2
REMARK    2  A    between atoms: C_5  and  C_36
REMARK    3  A    between atoms: C_9  and  C_13
REMARK    4  A    between atoms: C_10  and  O_12
REMARK    5  A    between atoms: C_13  and  C_15
REMARK    6  A    between atoms: C_13  and  N_64
REMARK    7  A    between atoms: N_19  and  C_20
REMARK    8  A    between atoms: C_20  and  C_21
REMARK                            x       y       z     vdW  Elec       q    Type
REMARK                         _______ _______ _______ _____ _____    ______ ____
ROOT
ATOM      1  C   UNL     1       1.818   6.343  -1.953  0.00  0.00    +0.039 C 
ENDROOT
BRANCH   1  10
ATOM      2  C   UNL     1      -0.522   7.988  -6.287  0.00  0.00    +0.044 C 
ATOM      3  C   UNL     1      -1.497   7.124  -5.530  0.00  0.00    -0.041 A 
ATOM      4  C   UNL     1      -2.746   6.904  -6.026  0.00  0.00    +0.004 A 
ATOM      5  C   UNL     1      -3.658   6.109  -5.338  0.00  0.00    +0.006 A 
ATOM      6  C   UNL     1      -3.328   5.529  -4.151  0.00  0.00    -0.024 A 
ATOM      7  C   UNL     1      -2.049   5.732  -3.607  0.00  0.00    +0.078 A 
ATOM      8  C   UNL     1      -1.123   6.542  -4.309  0.00  0.00    +0.004 A 
ATOM      9  C   UNL     1       0.159   6.751  -3.760  0.00  0.00    +0.018 A 
ATOM     10  C   UNL     1       0.458   6.152  -2.574  0.00  0.00    +0.008 A 
ATOM     11  C   UNL     1      -0.502   5.362  -1.929  0.00  0.00    +0.215 A 
ATOM     12  N   UNL     1      -1.698   5.174  -2.442  0.00  0.00    -0.213 NA
ATOM     13  C   UNL     1      -4.331   4.671  -3.423  0.00  0.00    +0.046 C 
BRANCH  11  14
ATOM     14  O   UNL     1      -0.191   4.776  -0.746  0.00  0.00    -0.492 OA
ATOM     15  H   UNL     1      -0.469   5.283   0.029  0.00  0.00    +0.294 HD
ENDBRANCH  11  14
ENDBRANCH   1  10
BRANCH   1  25
ATOM     16  C   UNL     1       3.614   7.939  -1.631  0.00  0.00    -0.072 C 
ATOM     17  C   UNL     1       4.284   9.135  -2.307  0.00  0.00    +0.017 C 
ATOM     18  C   UNL     1       3.304  10.274  -2.426  0.00  0.00    -0.048 A 
ATOM     19  C   UNL     1       3.796  11.545  -2.681  0.00  0.00    +0.004 A 
ATOM     20  C   UNL     1       2.933  12.616  -2.801  0.00  0.00    +0.000 A 
ATOM     21  C   UNL     1       1.571  12.420  -2.667  0.00  0.00    +0.000 A 
ATOM     22  C   UNL     1       1.081  11.155  -2.411  0.00  0.00    +0.002 A 
ATOM     23  C   UNL     1       1.947  10.078  -2.289  0.00  0.00    -0.061 A 
ATOM     24  C   UNL     1       1.364   8.719  -2.005  0.00  0.00    -0.041 C 
ATOM     25  N   UNL     1       2.345   7.672  -2.338  0.00  0.00    +0.392 N 
ATOM     26  H   UNL     1       2.517   7.683  -3.350  0.00  0.00    -0.080 HD
ENDBRANCH   1  25
BRANCH   1  27
ATOM     27  C   UNL     1       2.756   5.279  -2.461  0.00  0.00    +0.143 A 
ATOM     28  N   UNL     1       2.879   4.870  -3.700  0.00  0.00    -0.115 NA
ATOM     29  N   UNL     1       3.782   3.952  -3.729  0.00  0.00    -0.023 NA
ATOM     30  N   UNL     1       4.243   3.768  -2.541  0.00  0.00    -0.044 NA
ATOM     31  N   UNL     1       3.631   4.563  -1.730  0.00  0.00    -0.226 N 
BRANCH  31  32
ATOM     32  C   UNL     1       3.852   4.672  -0.286  0.00  0.00    +0.182 C 
BRANCH  32  33
ATOM     33  C   UNL     1       3.052   3.612   0.426  0.00  0.00    -0.026 A 
ATOM     34  C   UNL     1       3.553   2.329   0.542  0.00  0.00    +0.005 A 
ATOM     35  C   UNL     1       2.819   1.357   1.195  0.00  0.00    +0.000 A 
ATOM     36  C   UNL     1       1.581   1.666   1.727  0.00  0.00    +0.000 A 
ATOM     37  C   UNL     1       1.082   2.950   1.615  0.00  0.00    +0.000 A 
ATOM     38  C   UNL     1       1.817   3.923   0.963  0.00  0.00    +0.005 A 
ENDBRANCH  32  33
ENDBRANCH  31  32
ENDBRANCH   1  27
TORSDOF 6
