REMARK  Name = ZINC20153251
REMARK  8 active torsions:
REMARK  status: ('A' for Active; 'I' for Inactive)
REMARK    1  A    between atoms: C_1  and  C_2
REMARK    2  A    between atoms: N_5  and  C_8
REMARK    3  A    between atoms: C_11  and  N_31
REMARK    4  A    between atoms: C_13  and  C_14
REMARK    5  A    between atoms: N_16  and  C_17
REMARK    6  A    between atoms: C_17  and  N_19
REMARK    7  A    between atoms: N_19  and  C_20
REMARK    8  A    between atoms: C_22  and  C_28
REMARK                            x       y       z     vdW  Elec       q    Type
REMARK                         _______ _______ _______ _____ _____    ______ ____
ROOT
ATOM      1  C   UNL     1      -1.160  -1.616   3.770  0.00  0.00    +0.251 C 
ATOM      2  O   UNL     1      -0.621  -0.787   3.063  0.00  0.00    -0.270 OA
ATOM      3  N   UNL     1      -1.868  -1.225   4.848  0.00  0.00    -0.264 N 
ATOM      4  H   UNL     1      -2.298  -1.887   5.412  0.00  0.00    +0.157 HD
ENDROOT
BRANCH   1  10
ATOM      5  C   UNL     1      -0.214  -3.469   2.392  0.00  0.00    +0.042 A 
ATOM      6  C   UNL     1      -0.104  -4.823   2.102  0.00  0.00    +0.026 A 
ATOM      7  C   UNL     1      -0.808  -5.748   2.846  0.00  0.00    +0.034 A 
ATOM      8  C   UNL     1      -1.627  -5.337   3.885  0.00  0.00    +0.127 A 
ATOM      9  C   UNL     1      -1.749  -3.999   4.188  0.00  0.00    +0.047 A 
ATOM     10  C   UNL     1      -1.039  -3.049   3.448  0.00  0.00    +0.060 A 
BRANCH   5  15
ATOM     11  C   UNL     1       3.196  -1.728  -1.540  0.00  0.00    +0.007 C 
ATOM     12  C   UNL     1       2.238  -1.566  -0.358  0.00  0.00    -0.011 C 
ATOM     13  C   UNL     1       2.791  -2.322   0.853  0.00  0.00    +0.022 C 
ATOM     14  C   UNL     1       1.847  -2.129   2.044  0.00  0.00    +0.105 C 
ATOM     15  N   UNL     1       0.493  -2.535   1.645  0.00  0.00    -0.329 N 
ATOM     16  C   UNL     1      -0.099  -1.936   0.442  0.00  0.00    +0.105 C 
ATOM     17  C   UNL     1       0.866  -2.131  -0.732  0.00  0.00    +0.022 C 
ENDBRANCH   5  15
BRANCH   8  18
ATOM     18  N   UNL     1      -2.376  -6.341   4.674  0.00  0.00    +0.056 N 
ATOM     19  O   UNL     1      -2.272  -7.516   4.411  0.00  0.00    -0.126 OA
ATOM     20  O   UNL     1      -3.091  -5.986   5.582  0.00  0.00    -0.126 OA
ENDBRANCH   8  18
ENDBRANCH   1  10
BRANCH   3  21
ATOM     21  C   UNL     1      -1.979   0.085   5.142  0.00  0.00    +0.141 C 
ATOM     22  S   UNL     1      -1.220   1.253   4.147  0.00  0.00    -0.018 S 
BRANCH  21  23
ATOM     23  N   UNL     1      -2.687   0.476   6.220  0.00  0.00    -0.295 N 
ATOM     24  H   UNL     1      -3.082  -0.187   6.808  0.00  0.00    +0.154 HD
BRANCH  23  25
ATOM     25  C   UNL     1      -2.854   1.840   6.492  0.00  0.00    +0.052 A 
ATOM     26  C   UNL     1      -3.065   2.731   5.454  0.00  0.00    +0.041 A 
ATOM     27  C   UNL     1      -3.230   4.091   5.729  0.00  0.00    +0.083 A 
ATOM     28  C   UNL     1      -3.181   4.542   7.053  0.00  0.00    +0.057 A 
ATOM     29  C   UNL     1      -2.970   3.644   8.080  0.00  0.00    +0.042 A 
ATOM     30  C   UNL     1      -2.812   2.297   7.806  0.00  0.00    +0.064 A 
ATOM     31 CL   UNL     1      -2.554   1.175   9.104  0.00  0.00    -0.082 Cl
ATOM     32 CL   UNL     1      -3.386   6.230   7.403  0.00  0.00    -0.083 Cl
BRANCH  27  33
ATOM     33  C   UNL     1      -3.455   5.046   4.630  0.00  0.00    +0.388 C 
ATOM     34  O   UNL     1      -3.497   4.650   3.474  0.00  0.00    -0.241 OA
ATOM     35  O   UNL     1      -3.600   6.236   4.874  0.00  0.00    -0.241 OA
ENDBRANCH  27  33
ENDBRANCH  23  25
ENDBRANCH  21  23
ENDBRANCH   3  21
TORSDOF 7
