REMARK  Name = ZINC21337203
REMARK  8 active torsions:
REMARK  status: ('A' for Active; 'I' for Inactive)
REMARK    1  A    between atoms: C_1  and  C_2
REMARK    2  A    between atoms: C_9  and  C_11
REMARK    3  A    between atoms: N_13  and  C_14
REMARK    4  A    between atoms: N_13  and  C_20
REMARK    5  A    between atoms: C_14  and  C_15
REMARK    6  A    between atoms: C_21  and  N_36
REMARK    7  A    between atoms: N_22  and  C_29
REMARK    8  A    between atoms: C_29  and  C_30
REMARK                            x       y       z     vdW  Elec       q    Type
REMARK                         _______ _______ _______ _____ _____    ______ ____
ROOT
ATOM      1  C   UNL     1      -2.382   1.379  -0.090  0.00  0.00    +0.258 C 
ATOM      2  O   UNL     1      -3.438   1.973   0.032  0.00  0.00    -0.269 OA
ATOM      3  N   UNL     1      -1.217   2.050   0.011  0.00  0.00    -0.252 N 
ENDROOT
BRANCH   1  11
ATOM      4  C   UNL     1      -4.748  -5.723  -1.248  0.00  0.00    +0.008 C 
ATOM      5  C   UNL     1      -3.720  -4.677  -0.812  0.00  0.00    -0.009 C 
ATOM      6  C   UNL     1      -2.422  -4.881  -1.598  0.00  0.00    +0.009 C 
ATOM      7  C   UNL     1      -1.322  -4.014  -0.968  0.00  0.00    +0.043 C 
ATOM      8  C   UNL     1      -1.868  -2.634  -0.765  0.00  0.00    -0.006 A 
ATOM      9  C   UNL     1      -3.178  -2.252  -0.805  0.00  0.00    -0.036 A 
ATOM     10  C   UNL     1      -3.444  -0.910  -0.587  0.00  0.00    +0.024 A 
ATOM     11  C   UNL     1      -2.378  -0.064  -0.347  0.00  0.00    +0.075 A 
ATOM     12  S   UNL     1      -0.993  -1.186  -0.440  0.00  0.00    -0.088 S 
ATOM     13  C   UNL     1      -4.276  -3.277  -1.079  0.00  0.00    +0.039 C 
ENDBRANCH   1  11
BRANCH   3  14
ATOM     14  C   UNL     1       0.006   1.347  -0.024  0.00  0.00    +0.140 A 
ATOM     15  C   UNL     1       0.470   0.805  -1.205  0.00  0.00    +0.128 A 
ATOM     16  N   UNL     1       1.669   0.131  -1.209  0.00  0.00    -0.276 N 
ATOM     17  C   UNL     1       2.381   0.002  -0.075  0.00  0.00    +0.331 A 
ATOM     18  O   UNL     1       3.438  -0.598  -0.099  0.00  0.00    -0.246 OA
ATOM     19  N   UNL     1       1.944   0.523   1.085  0.00  0.00    -0.273 N 
ATOM     20  H   UNL     1       2.542   0.406   2.001  0.00  0.00    +0.173 HD
ATOM     21  C   UNL     1       0.776   1.193   1.144  0.00  0.00    +0.277 A 
ATOM     22  O   UNL     1       0.390   1.662   2.201  0.00  0.00    -0.266 OA
BRANCH  15  23
ATOM     23  N   UNL     1      -0.257   0.937  -2.364  0.00  0.00    -0.343 N 
ATOM     24  H   UNL     1       0.119   0.502  -3.302  0.00  0.00    +0.144 HD
ATOM     25  H   UNL     1      -1.215   1.478  -2.354  0.00  0.00    +0.144 HD
ENDBRANCH  15  23
BRANCH  16  26
ATOM     26  C   UNL     1       2.174  -0.450  -2.455  0.00  0.00    +0.163 C 
BRANCH  26  27
ATOM     27  C   UNL     1       3.028   0.564  -3.172  0.00  0.00    -0.028 A 
ATOM     28  C   UNL     1       2.455   1.430  -4.084  0.00  0.00    +0.005 A 
ATOM     29  C   UNL     1       3.238   2.363  -4.738  0.00  0.00    +0.000 A 
ATOM     30  C   UNL     1       4.596   2.423  -4.487  0.00  0.00    +0.000 A 
ATOM     31  C   UNL     1       5.170   1.554  -3.578  0.00  0.00    +0.000 A 
ATOM     32  C   UNL     1       4.386   0.624  -2.921  0.00  0.00    +0.005 A 
ENDBRANCH  26  27
ENDBRANCH  16  26
ENDBRANCH   3  14
BRANCH   3  33
ATOM     33  C   UNL     1      -1.221   3.507   0.158  0.00  0.00    +0.188 C 
BRANCH  33  34
ATOM     34  C   UNL     1      -1.301   4.149  -1.204  0.00  0.00    +0.122 A 
ATOM     35  C   UNL     1      -2.426   4.563  -1.813  0.00  0.00    +0.046 A 
ATOM     36  C   UNL     1      -2.041   5.099  -3.064  0.00  0.00    +0.041 A 
ATOM     37  C   UNL     1      -0.704   4.980  -3.143  0.00  0.00    +0.195 A 
ATOM     38  O   UNL     1      -0.260   4.410  -2.011  0.00  0.00    -0.466 OA
ENDBRANCH  33  34
ENDBRANCH   3  33
TORSDOF 7
