REMARK  Name = ZINC28156558
REMARK  6 active torsions:
REMARK  status: ('A' for Active; 'I' for Inactive)
REMARK    1  A    between atoms: C_1  and  C_2
REMARK    2  A    between atoms: C_5  and  C_8
REMARK    3  A    between atoms: C_11  and  C_14
REMARK    4  A    between atoms: C_23  and  C_26
REMARK    5  A    between atoms: C_26  and  C_27
REMARK    6  A    between atoms: N_29  and  C_30
REMARK                            x       y       z     vdW  Elec       q    Type
REMARK                         _______ _______ _______ _____ _____    ______ ____
ROOT
ATOM      1  C   UNL     1       3.665  -0.691  -0.013  0.00  0.00    +0.069 C 
ATOM      2  N   UNL     1       3.809  -1.972  -0.019  0.00  0.00    -0.182 NA
ATOM      3  N   UNL     1       5.137  -2.394  -0.047  0.00  0.00    -0.195 N 
ATOM      4  C   UNL     1       6.013  -1.212  -0.052  0.00  0.00    +0.142 C 
ATOM      5  C   UNL     1       5.024  -0.029  -0.029  0.00  0.00    +0.087 C 
ATOM      6  C   UNL     1       5.556  -3.693  -0.063  0.00  0.00    +0.170 C 
ATOM      7  N   UNL     1       6.801  -4.152  -0.084  0.00  0.00    -0.157 NA
ATOM      8  C   UNL     1       7.119  -5.418  -0.098  0.00  0.00    +0.252 C 
ATOM      9  O   UNL     1       8.274  -5.798  -0.118  0.00  0.00    -0.272 OA
ATOM     10  C   UNL     1       5.942  -6.386  -0.088  0.00  0.00    +0.150 C 
ATOM     11  S   UNL     1       4.558  -5.176  -0.051  0.00  0.00    -0.078 S 
ENDROOT
BRANCH   1  16
ATOM     12  C   UNL     1      -1.375   2.078   0.077  0.00  0.00    +0.044 C 
ATOM     13  C   UNL     1      -0.055   1.352   0.058  0.00  0.00    -0.050 A 
ATOM     14  C   UNL     1       1.127   2.073   0.045  0.00  0.00    +0.004 A 
ATOM     15  C   UNL     1       2.339   1.415   0.022  0.00  0.00    +0.010 A 
ATOM     16  C   UNL     1       2.372   0.019   0.011  0.00  0.00    -0.002 A 
ATOM     17  C   UNL     1       1.176  -0.702   0.024  0.00  0.00    +0.010 A 
ATOM     18  C   UNL     1      -0.029  -0.031   0.047  0.00  0.00    +0.004 A 
ENDBRANCH   1  16
BRANCH   4  19
ATOM     19  C   UNL     1       6.891  -1.193   1.173  0.00  0.00    +0.012 A 
ATOM     20  C   UNL     1       8.163  -0.746   1.304  0.00  0.00    +0.013 A 
ATOM     21  C   UNL     1       8.779  -0.828   2.539  0.00  0.00    +0.008 A 
ATOM     22  C   UNL     1       8.091  -1.353   3.583  0.00  0.00    +0.045 A 
ATOM     23  S   UNL     1       6.521  -1.747   2.829  0.00  0.00    -0.100 S 
ENDBRANCH   4  19
BRANCH  10  24
ATOM     24  C   UNL     1       5.911  -7.240  -1.357  0.00  0.00    +0.120 C 
BRANCH  24  25
ATOM     25  C   UNL     1       4.809  -8.262  -1.248  0.00  0.00    +0.219 C 
ATOM     26  O   UNL     1       4.116  -8.303  -0.253  0.00  0.00    -0.275 OA
ATOM     27  N   UNL     1       4.592  -9.130  -2.255  0.00  0.00    -0.285 N 
ATOM     28  H   UNL     1       5.169  -9.045  -3.188  0.00  0.00    +0.155 HD
BRANCH  27  29
ATOM     29  C   UNL     1       3.633 -10.141  -2.115  0.00  0.00    +0.037 A 
ATOM     30  C   UNL     1       3.844 -11.384  -2.697  0.00  0.00    +0.027 A 
ATOM     31  C   UNL     1       2.900 -12.384  -2.556  0.00  0.00    +0.051 A 
ATOM     32  C   UNL     1       1.737 -12.146  -1.841  0.00  0.00    +0.166 A 
ATOM     33  C   UNL     1       1.520 -10.899  -1.261  0.00  0.00    +0.168 A 
ATOM     34  C   UNL     1       2.469  -9.899  -1.399  0.00  0.00    +0.072 A 
ATOM     35  O   UNL     1       0.316 -10.919  -0.620  0.00  0.00    -0.453 OA
ATOM     36  C   UNL     1      -0.387 -12.056  -1.157  0.00  0.00    +0.466 C 
ATOM     37  O   UNL     1       0.667 -12.948  -1.563  0.00  0.00    -0.453 OA
ENDBRANCH  27  29
ENDBRANCH  24  25
ENDBRANCH  10  24
TORSDOF 5
