REMARK  Name = ZINC50784201
REMARK  13 active torsions:
REMARK  status: ('A' for Active; 'I' for Inactive)
REMARK    1  A    between atoms: C_1  and  C_2
REMARK    2  A    between atoms: C_2  and  O_3
REMARK    3  A    between atoms: O_3  and  C_4
REMARK    4  A    between atoms: N_6  and  C_7
REMARK    5  A    between atoms: C_11  and  N_14
REMARK    6  A    between atoms: C_12  and  C_13
REMARK    7  A    between atoms: N_14  and  C_15
REMARK    8  A    between atoms: C_15  and  C_16
REMARK    9  A    between atoms: N_18  and  C_19
REMARK   10  A    between atoms: C_19  and  C_21
REMARK   11  A    between atoms: C_19  and  C_27
REMARK   12  A    between atoms: C_27  and  C_28
REMARK   13  A    between atoms: C_27  and  C_29
REMARK                            x       y       z     vdW  Elec       q    Type
REMARK                         _______ _______ _______ _____ _____    ______ ____
ROOT
ATOM      1  N   UNL     1       3.162  -6.184  -4.673  0.00  0.00    -0.335 N 
ATOM      2  H   UNL     1       3.552  -5.614  -5.354  0.00  0.00    +0.147 HD
ENDROOT
BRANCH   1   7
ATOM      3  C   UNL     1       1.559  -3.686  -2.499  0.00  0.00    +0.041 A 
ATOM      4  C   UNL     1       1.003  -4.507  -1.526  0.00  0.00    +0.024 A 
ATOM      5  C   UNL     1       1.164  -5.877  -1.601  0.00  0.00    +0.004 A 
ATOM      6  C   UNL     1       1.879  -6.435  -2.644  0.00  0.00    +0.023 A 
ATOM      7  C   UNL     1       2.438  -5.620  -3.620  0.00  0.00    +0.032 A 
ATOM      8  C   UNL     1       2.273  -4.243  -3.550  0.00  0.00    -0.008 A 
ATOM      9  C   UNL     1       2.872  -3.356  -4.610  0.00  0.00    +0.047 C 
BRANCH   3  12
ATOM     10  C   UNL     1       0.343  -1.780  -1.758  0.00  0.00    +0.405 C 
ATOM     11  O   UNL     1      -0.518  -2.515  -1.315  0.00  0.00    -0.226 OA
ATOM     12  N   UNL     1       1.395  -2.298  -2.422  0.00  0.00    -0.251 N 
ATOM     13  H   UNL     1       2.039  -1.710  -2.846  0.00  0.00    +0.158 HD
BRANCH  10  14
ATOM     14  O   UNL     1       0.244  -0.448  -1.587  0.00  0.00    -0.450 OA
BRANCH  14  16
ATOM     15  C   UNL     1      -0.836   1.557  -0.780  0.00  0.00    +0.048 C 
ATOM     16  C   UNL     1      -0.897   0.032  -0.874  0.00  0.00    +0.230 C 
ENDBRANCH  14  16
ENDBRANCH  10  14
ENDBRANCH   3  12
ENDBRANCH   1   7
BRANCH   1  17
ATOM     17  C   UNL     1       3.331  -7.638  -4.749  0.00  0.00    +0.197 C 
BRANCH  17  18
ATOM     18  C   UNL     1       4.144  -7.986  -5.969  0.00  0.00    +0.231 C 
ATOM     19  O   UNL     1       4.542  -7.106  -6.703  0.00  0.00    -0.274 OA
ATOM     20  N   UNL     1       4.428  -9.274  -6.245  0.00  0.00    -0.307 N 
ATOM     21  H   UNL     1       4.109  -9.977  -5.658  0.00  0.00    +0.149 HD
BRANCH  20  22
ATOM     22  C   UNL     1       5.218  -9.612  -7.431  0.00  0.00    +0.106 C 
BRANCH  22  23
ATOM     23  C   UNL     1       4.897 -11.020  -7.864  0.00  0.00    -0.027 A 
ATOM     24  C   UNL     1       4.714 -12.009  -6.916  0.00  0.00    +0.005 A 
ATOM     25  C   UNL     1       4.420 -13.300  -7.313  0.00  0.00    +0.000 A 
ATOM     26  C   UNL     1       4.308 -13.602  -8.657  0.00  0.00    +0.000 A 
ATOM     27  C   UNL     1       4.490 -12.612  -9.605  0.00  0.00    +0.000 A 
ATOM     28  C   UNL     1       4.780 -11.320  -9.208  0.00  0.00    +0.005 A 
ENDBRANCH  22  23
BRANCH  22  29
ATOM     29  C   UNL     1       6.707  -9.508  -7.099  0.00  0.00    +0.008 C 
ATOM     30  C   UNL     1       7.533  -9.861  -8.338  0.00  0.00    +0.009 C 
ATOM     31  C   UNL     1       7.033  -8.079  -6.660  0.00  0.00    +0.009 C 
ENDBRANCH  22  29
ENDBRANCH  20  22
ENDBRANCH  17  18
ENDBRANCH   1  17
TORSDOF 9
