REMARK  Name = ZINC35404969
REMARK  3 active torsions:
REMARK  status: ('A' for Active; 'I' for Inactive)
REMARK    1  A    between atoms: C_6  and  C_7
REMARK    2  A    between atoms: N_12  and  S_15
REMARK    3  A    between atoms: S_15  and  C_18
REMARK                            x       y       z     vdW  Elec       q    Type
REMARK                         _______ _______ _______ _____ _____    ______ ____
ROOT
ATOM      1  C   UNL     1      -1.266  -0.763   0.011  0.00  0.00    +0.247 C 
ATOM      2  O   UNL     1      -2.324  -0.178   0.132  0.00  0.00    -0.270 OA
ATOM      3  N   UNL     1      -1.248  -2.107  -0.099  0.00  0.00    -0.295 N 
ATOM      4  C   UNL     1       0.026  -2.839  -0.111  0.00  0.00    +0.125 C 
ATOM      5  C   UNL     1      -0.005  -3.895   1.001  0.00  0.00    +0.128 C 
ATOM      6  N   UNL     1      -1.259  -4.654   0.892  0.00  0.00    -0.174 NA
ATOM      7  C   UNL     1      -2.533  -3.922   0.904  0.00  0.00    +0.128 C 
ATOM      8  C   UNL     1      -2.502  -2.866  -0.202  0.00  0.00    +0.125 C 
ENDROOT
BRANCH   1  14
ATOM      9  C   UNL     1       0.200   1.060   0.866  0.00  0.00    +0.014 A 
ATOM     10  C   UNL     1       1.384   1.766   0.835  0.00  0.00    +0.016 A 
ATOM     11  C   UNL     1       2.375   1.423  -0.069  0.00  0.00    +0.018 A 
ATOM     12  C   UNL     1       2.184   0.369  -0.947  0.00  0.00    +0.016 A 
ATOM     13  C   UNL     1       1.004  -0.344  -0.927  0.00  0.00    +0.014 A 
ATOM     14  C   UNL     1       0.001  -0.003  -0.017  0.00  0.00    +0.037 A 
ATOM     15 BR   UNL     1       3.996   2.396  -0.104  0.00  0.00    -0.050 Br
ENDBRANCH   1  14
BRANCH   6  16
ATOM     16  S   UNL     1      -1.237  -6.304   0.758  0.00  0.00    +0.061 S 
ATOM     17  O   UNL     1      -2.455  -6.677   0.129  0.00  0.00    -0.153 OA
ATOM     18  O   UNL     1       0.033  -6.651   0.224  0.00  0.00    -0.153 OA
BRANCH  16  19
ATOM     19  C   UNL     1      -1.292  -6.961   2.392  0.00  0.00    +0.107 A 
ATOM     20  C   UNL     1      -0.116  -7.199   3.079  0.00  0.00    +0.032 A 
ATOM     21  C   UNL     1      -0.151  -7.714   4.363  0.00  0.00    +0.049 A 
ATOM     22  C   UNL     1      -1.368  -7.991   4.962  0.00  0.00    +0.142 A 
ATOM     23  C   UNL     1      -2.553  -7.750   4.269  0.00  0.00    +0.078 A 
ATOM     24  C   UNL     1      -2.512  -7.230   2.986  0.00  0.00    +0.055 A 
ATOM     25  N   UNL     1      -3.779  -8.037   4.887  0.00  0.00    -0.280 N 
ATOM     26  C   UNL     1      -3.808  -8.235   6.223  0.00  0.00    +0.255 C 
ATOM     27  O   UNL     1      -4.851  -8.516   6.774  0.00  0.00    -0.272 OA
ATOM     28  C   UNL     1      -2.538  -8.107   7.026  0.00  0.00    +0.325 C 
ATOM     29  O   UNL     1      -1.421  -8.496   6.223  0.00  0.00    -0.481 OA
ATOM     30  H   UNL     1      -4.593  -8.093   4.363  0.00  0.00    +0.155 HD
ENDBRANCH  16  19
ENDBRANCH   6  16
TORSDOF 3
