REMARK  Name = ZINC39676962
REMARK  8 active torsions:
REMARK  status: ('A' for Active; 'I' for Inactive)
REMARK    1  A    between atoms: C_1  and  C_2
REMARK    2  A    between atoms: C_5  and  C_33
REMARK    3  A    between atoms: C_6  and  C_8
REMARK    4  A    between atoms: C_8  and  C_9
REMARK    5  A    between atoms: C_9  and  N_10
REMARK    6  A    between atoms: C_11  and  C_13
REMARK    7  A    between atoms: C_24  and  C_26
REMARK    8  A    between atoms: C_26  and  C_32
REMARK                            x       y       z     vdW  Elec       q    Type
REMARK                         _______ _______ _______ _____ _____    ______ ____
ROOT
ATOM      1  C   UNL     1       2.703  -5.130   5.951  0.00  0.00    +0.100 C 
ATOM      2  C   UNL     1       2.265  -4.207   7.110  0.00  0.00    +0.121 C 
ATOM      3  N   UNL     1       3.126  -4.603   8.249  0.00  0.00    -0.300 N 
ATOM      4  C   UNL     1       4.455  -4.851   7.639  0.00  0.00    +0.115 C 
ATOM      5  C   UNL     1       4.141  -5.551   6.302  0.00  0.00    -0.004 C 
ATOM      6  C   UNL     1       4.223  -7.065   6.466  0.00  0.00    -0.010 C 
ATOM      7  C   UNL     1       5.673  -7.464   6.758  0.00  0.00    -0.082 C 
ATOM      8  N   UNL     1       6.535  -7.023   5.655  0.00  0.00    +0.379 N 
ATOM      9  C   UNL     1       6.522  -5.558   5.563  0.00  0.00    -0.082 C 
ATOM     10  C   UNL     1       5.108  -5.079   5.221  0.00  0.00    -0.010 C 
ATOM     11  C   UNL     1       2.780  -4.713   9.547  0.00  0.00    +0.222 C 
ATOM     12  O   UNL     1       3.623  -4.969  10.380  0.00  0.00    -0.275 OA
ATOM     13  H   UNL     1       7.479  -7.340   5.821  0.00  0.00    -0.086 HD
ATOM     14  H   UNL     1       6.198  -7.416   4.789  0.00  0.00    -0.086 HD
ENDROOT
BRANCH  11  15
ATOM     15  C   UNL     1       1.345  -4.517   9.963  0.00  0.00    +0.044 C 
ATOM     16  C   UNL     1       0.854  -3.153   9.474  0.00  0.00    +0.016 C 
ATOM     17  C   UNL     1       1.718  -2.050  10.088  0.00  0.00    +0.001 C 
ATOM     18  C   UNL     1       1.616  -2.111  11.613  0.00  0.00    +0.000 C 
ATOM     19  C   UNL     1       2.107  -3.475  12.102  0.00  0.00    +0.001 C 
ATOM     20  C   UNL     1       1.243  -4.579  11.489  0.00  0.00    +0.016 C 
ATOM     21  C   UNL     1       0.481  -5.620   9.349  0.00  0.00    +0.021 C 
ENDBRANCH  11  15
BRANCH   1  23
ATOM     22  N   UNL     1       2.616  -5.055   3.480  0.00  0.00    -0.315 N 
ATOM     23  C   UNL     1       2.680  -4.379   4.644  0.00  0.00    +0.218 C 
ATOM     24  O   UNL     1       2.720  -3.167   4.641  0.00  0.00    -0.275 OA
ATOM     25  H   UNL     1       2.584  -6.024   3.482  0.00  0.00    +0.149 HD
BRANCH  22  26
ATOM     26  C   UNL     1       2.594  -4.324   2.210  0.00  0.00    +0.109 C 
BRANCH  26  27
ATOM     27  C   UNL     1       2.519  -5.320   1.050  0.00  0.00    +0.054 C 
BRANCH  27  33
ATOM     28  C   UNL     1      -0.047  -3.270  -2.726  0.00  0.00    +0.044 C 
ATOM     29  C   UNL     1       1.268  -3.589  -2.063  0.00  0.00    -0.050 A 
ATOM     30  C   UNL     1       2.454  -3.192  -2.653  0.00  0.00    +0.003 A 
ATOM     31  C   UNL     1       3.660  -3.484  -2.045  0.00  0.00    +0.004 A 
ATOM     32  C   UNL     1       3.681  -4.173  -0.846  0.00  0.00    -0.047 A 
ATOM     33  C   UNL     1       2.496  -4.569  -0.256  0.00  0.00    -0.043 A 
ATOM     34  C   UNL     1       1.289  -4.273  -0.862  0.00  0.00    +0.007 A 
ATOM     35  C   UNL     1       4.996  -4.492  -0.184  0.00  0.00    +0.044 C 
ENDBRANCH  27  33
ENDBRANCH  26  27
ENDBRANCH  22  26
ENDBRANCH   1  23
TORSDOF 5
