REMARK  Name = ZINC09012515
REMARK  7 active torsions:
REMARK  status: ('A' for Active; 'I' for Inactive)
REMARK    1  A    between atoms: C_1  and  C_2
REMARK    2  A    between atoms: C_2  and  O_3
REMARK    3  A    between atoms: O_3  and  C_4
REMARK    4  A    between atoms: C_9  and  C_10
REMARK    5  A    between atoms: C_12  and  C_37
REMARK    6  A    between atoms: C_17  and  C_36
REMARK    7  A    between atoms: C_37  and  C_39
REMARK                            x       y       z     vdW  Elec       q    Type
REMARK                         _______ _______ _______ _____ _____    ______ ____
ROOT
ATOM      1  C   UNL     1       3.086   2.008   0.578  0.00  0.00    +0.074 C 
ATOM      2  C   UNL     1       2.372   3.361   0.857  0.00  0.00    +0.149 C 
ATOM      3  N   UNL     1       0.962   2.979   1.004  0.00  0.00    -0.311 N 
ATOM      4  C   UNL     1      -0.001   3.957   0.923  0.00  0.00    +0.038 A 
ATOM      5  C   UNL     1       0.264   5.306   1.059  0.00  0.00    +0.027 A 
ATOM      6  C   UNL     1      -0.765   6.224   0.955  0.00  0.00    -0.049 A 
ATOM      7  C   UNL     1      -2.062   5.802   0.715  0.00  0.00    +0.004 A 
ATOM      8  C   UNL     1      -2.346   4.457   0.579  0.00  0.00    +0.010 A 
ATOM      9  C   UNL     1      -1.323   3.524   0.684  0.00  0.00    -0.004 A 
ATOM     10  C   UNL     1      -1.584   2.071   0.554  0.00  0.00    +0.007 C 
ATOM     11  C   UNL     1      -0.557   1.287   0.177  0.00  0.00    -0.003 C 
ATOM     12  C   UNL     1       0.745   1.981  -0.079  0.00  0.00    +0.119 C 
ATOM     13  C   UNL     1       1.983   1.100  -0.007  0.00  0.00    +0.127 C 
ATOM     14  C   UNL     1       2.385   0.584  -1.364  0.00  0.00    +0.180 C 
ATOM     15  O   UNL     1       2.647   1.250  -2.342  0.00  0.00    -0.291 OA
ATOM     16  C   UNL     1       2.397  -0.877  -1.273  0.00  0.00    +0.029 A 
ATOM     17  C   UNL     1       2.704  -1.821  -2.259  0.00  0.00    +0.012 A 
ATOM     18  C   UNL     1       2.634  -3.160  -1.895  0.00  0.00    +0.001 A 
ATOM     19  C   UNL     1       2.280  -3.555  -0.620  0.00  0.00    +0.001 A 
ATOM     20  C   UNL     1       1.972  -2.638   0.377  0.00  0.00    +0.012 A 
ATOM     21  C   UNL     1       2.034  -1.283   0.037  0.00  0.00    +0.029 A 
ATOM     22  C   UNL     1       1.766  -0.107   0.867  0.00  0.00    +0.180 C 
ATOM     23  O   UNL     1       1.434  -0.105   2.033  0.00  0.00    -0.291 OA
ATOM     24  C   UNL     1      -0.473   7.694   1.104  0.00  0.00    +0.044 C 
ENDROOT
BRANCH   1  30
ATOM     25  C   UNL     1       5.476   1.747  -0.134  0.00  0.00    +0.124 A 
ATOM     26  C   UNL     1       6.496   1.922  -1.057  0.00  0.00    +0.046 A 
ATOM     27  C   UNL     1       6.236   2.543  -2.263  0.00  0.00    +0.004 A 
ATOM     28  C   UNL     1       4.959   2.991  -2.549  0.00  0.00    +0.001 A 
ATOM     29  C   UNL     1       3.939   2.813  -1.633  0.00  0.00    +0.007 A 
ATOM     30  C   UNL     1       4.196   2.197  -0.423  0.00  0.00    +0.001 A 
BRANCH  25  31
ATOM     31  O   UNL     1       5.730   1.136   1.054  0.00  0.00    -0.492 OA
BRANCH  31  33
ATOM     32  C   UNL     1       7.162   0.039   2.662  0.00  0.00    +0.048 C 
ATOM     33  C   UNL     1       7.071   0.698   1.284  0.00  0.00    +0.225 C 
ENDBRANCH  31  33
ENDBRANCH  25  31
ENDBRANCH   1  30
BRANCH   2  34
ATOM     34  C   UNL     1       2.548   4.304  -0.305  0.00  0.00    +0.151 C 
ATOM     35  O   UNL     1       1.691   4.385  -1.152  0.00  0.00    -0.296 OA
ATOM     36  C   UNL     1       3.793   5.146  -0.409  0.00  0.00    +0.088 C 
ENDBRANCH   2  34
TORSDOF 4
