REMARK  Name = ZINC08440786
REMARK  15 active torsions:
REMARK  status: ('A' for Active; 'I' for Inactive)
REMARK    1  A    between atoms: C_1  and  C_2
REMARK    2  A    between atoms: C_2  and  C_3
REMARK    3  A    between atoms: C_3  and  C_5
REMARK    4  A    between atoms: C_3  and  O_6
REMARK    5  A    between atoms: O_6  and  C_7
REMARK    6  A    between atoms: C_7  and  C_9
REMARK    7  A    between atoms: C_10  and  C_40
REMARK    8  A    between atoms: C_14  and  C_16
REMARK    9  A    between atoms: C_19  and  O_25
REMARK   10  A    between atoms: C_20  and  O_22
REMARK   11  A    between atoms: O_22  and  C_23
REMARK   12  A    between atoms: C_23  and  C_24
REMARK   13  A    between atoms: C_29  and  C_32
REMARK   14  A    between atoms: C_35  and  O_38
REMARK   15  A    between atoms: O_38  and  C_39
REMARK                            x       y       z     vdW  Elec       q    Type
REMARK                         _______ _______ _______ _____ _____    ______ ____
ROOT
ATOM      1  C   UNL     1       3.808  -4.220   8.872  0.00  0.00    +0.154 C 
ATOM      2  C   UNL     1       2.488  -3.972   8.908  0.00  0.00    +0.031 C 
ATOM      3  N   UNL     1       1.908  -3.167   7.968  0.00  0.00    -0.260 NA
ATOM      4  C   UNL     1       2.535  -2.922   6.776  0.00  0.00    +0.049 C 
ATOM      5  C   UNL     1       3.863  -3.128   6.646  0.00  0.00    +0.025 C 
ATOM      6  C   UNL     1       4.684  -3.623   7.811  0.00  0.00    +0.073 C 
ATOM      7  C   UNL     1       4.518  -2.891   5.425  0.00  0.00    +0.162 C 
ATOM      8  O   UNL     1       5.716  -3.078   5.344  0.00  0.00    -0.292 OA
ATOM      9  C   UNL     1       3.764  -2.413   4.213  0.00  0.00    +0.088 C 
ATOM     10  C   UNL     1       2.315  -2.903   4.303  0.00  0.00    +0.032 C 
ATOM     11  C   UNL     1       1.711  -2.414   5.619  0.00  0.00    +0.064 C 
ATOM     12  C   UNL     1       1.641  -4.586   9.993  0.00  0.00    +0.061 C 
ENDROOT
BRANCH   6  13
ATOM     13  C   UNL     1       5.450  -2.468   8.402  0.00  0.00    -0.035 A 
ATOM     14  C   UNL     1       4.769  -1.375   8.906  0.00  0.00    +0.008 A 
ATOM     15  C   UNL     1       5.467  -0.313   9.450  0.00  0.00    +0.049 A 
ATOM     16  C   UNL     1       6.852  -0.343   9.492  0.00  0.00    +0.158 A 
ATOM     17  C   UNL     1       7.537  -1.443   8.985  0.00  0.00    +0.162 A 
ATOM     18  C   UNL     1       6.831  -2.506   8.445  0.00  0.00    +0.053 A 
BRANCH  16  19
ATOM     19  O   UNL     1       7.540   0.701  10.027  0.00  0.00    -0.503 OA
ATOM     20  H   UNL     1       7.707   0.617  10.976  0.00  0.00    +0.292 HD
ENDBRANCH  16  19
BRANCH  17  21
ATOM     21  O   UNL     1       8.896  -1.477   9.023  0.00  0.00    -0.489 OA
BRANCH  21  22
ATOM     22  C   UNL     1       9.532  -2.638   8.484  0.00  0.00    +0.226 C 
ATOM     23  C   UNL     1      11.049  -2.495   8.615  0.00  0.00    +0.048 C 
ENDBRANCH  21  22
ENDBRANCH  17  21
ENDBRANCH   6  13
BRANCH  10  24
ATOM     24  C   UNL     1       1.522  -2.353   3.146  0.00  0.00    -0.043 A 
ATOM     25  C   UNL     1       0.911  -3.216   2.256  0.00  0.00    +0.007 A 
ATOM     26  C   UNL     1       0.183  -2.714   1.194  0.00  0.00    +0.046 A 
ATOM     27  C   UNL     1       0.066  -1.343   1.022  0.00  0.00    +0.120 A 
ATOM     28  C   UNL     1       0.685  -0.479   1.913  0.00  0.00    +0.046 A 
ATOM     29  C   UNL     1       1.407  -0.986   2.976  0.00  0.00    +0.007 A 
BRANCH  27  30
ATOM     30  O   UNL     1      -0.649  -0.846  -0.022  0.00  0.00    -0.495 OA
ATOM     31  C   UNL     1      -0.727   0.576  -0.137  0.00  0.00    +0.277 C 
ENDBRANCH  27  30
ENDBRANCH  10  24
BRANCH   1  32
ATOM     32  C   UNL     1       4.383  -5.062   9.852  0.00  0.00    +0.317 C 
ATOM     33  O   UNL     1       4.719  -6.195   9.560  0.00  0.00    -0.250 OA
BRANCH  32  34
ATOM     34  O   UNL     1       4.560  -4.610  11.111  0.00  0.00    -0.461 OA
BRANCH  34  35
ATOM     35  C   UNL     1       5.146  -5.515  12.049  0.00  0.00    +0.173 C 
ATOM     36  C   UNL     1       4.043  -6.318  12.741  0.00  0.00    +0.052 C 
BRANCH  35  38
ATOM     37  C   UNL     1       7.112  -4.019  12.422  0.00  0.00    +0.007 C 
ATOM     38  C   UNL     1       5.934  -4.724  13.096  0.00  0.00    +0.041 C 
ENDBRANCH  35  38
ENDBRANCH  34  35
ENDBRANCH  32  34
ENDBRANCH   1  32
TORSDOF 10
