REMARK  Name = ZINC12024899
REMARK  5 active torsions:
REMARK  status: ('A' for Active; 'I' for Inactive)
REMARK    1  A    between atoms: C_3  and  C_13
REMARK    2  A    between atoms: C_13  and  N_59
REMARK    3  A    between atoms: C_19  and  C_22
REMARK    4  A    between atoms: C_22  and  N_23
REMARK    5  A    between atoms: C_24  and  C_26
REMARK                            x       y       z     vdW  Elec       q    Type
REMARK                         _______ _______ _______ _____ _____    ______ ____
ROOT
ATOM      1  C   UNL     1      -3.813   1.211   2.217  0.00  0.00    -0.076 C 
ATOM      2  C   UNL     1      -3.658   1.631   3.681  0.00  0.00    +0.016 C 
ATOM      3  C   UNL     1      -3.703   3.156   3.775  0.00  0.00    +0.067 C 
ATOM      4  C   UNL     1      -3.490   3.593   5.235  0.00  0.00    +0.037 C 
ATOM      5  C   UNL     1      -4.808   4.315   5.608  0.00  0.00    +0.036 C 
ATOM      6  C   UNL     1      -5.797   3.751   4.556  0.00  0.00    +0.136 C 
ATOM      7  O   UNL     1      -4.992   3.634   3.363  0.00  0.00    -0.369 OA
ATOM      8  C   UNL     1      -2.615   3.765   2.890  0.00  0.00    +0.016 C 
ATOM      9  C   UNL     1      -2.803   3.278   1.451  0.00  0.00    -0.076 C 
ATOM     10  N   UNL     1      -2.710   1.802   1.429  0.00  0.00    +0.383 N 
ATOM     11  H   UNL     1      -1.815   1.519   1.846  0.00  0.00    -0.081 HD
ENDROOT
BRANCH  10  12
ATOM     12  C   UNL     1      -2.767   1.314   0.036  0.00  0.00    -0.024 C 
BRANCH  12  15
ATOM     13  C   UNL     1      -2.641  -2.376   0.016  0.00  0.00    +0.020 A 
ATOM     14  C   UNL     1      -3.356  -1.161   0.029  0.00  0.00    +0.021 A 
ATOM     15  C   UNL     1      -2.453  -0.160   0.026  0.00  0.00    +0.009 A 
ATOM     16  N   UNL     1      -1.203  -0.713   0.010  0.00  0.00    -0.307 N 
ATOM     17  C   UNL     1      -1.328  -2.073  -0.002  0.00  0.00    +0.093 A 
ATOM     18  C   UNL     1       0.002  -0.004   0.002  0.00  0.00    +0.138 A 
ATOM     19  C   UNL     1       1.207  -0.696  -0.013  0.00  0.00    +0.048 A 
ATOM     20  C   UNL     1       2.393   0.017  -0.021  0.00  0.00    +0.025 A 
ATOM     21  C   UNL     1       2.332   1.405  -0.013  0.00  0.00    +0.059 A 
ATOM     22  C   UNL     1       1.097   2.026   0.003  0.00  0.00    +0.133 A 
ATOM     23  N   UNL     1      -0.016   1.319   0.009  0.00  0.00    -0.236 NA
ATOM     24 CL   UNL     1       3.789   2.347  -0.021  0.00  0.00    -0.082 Cl
ENDBRANCH  12  15
ENDBRANCH  10  12
BRANCH   6  25
ATOM     25  C   UNL     1      -6.956   4.724   4.330  0.00  0.00    +0.136 C 
BRANCH  25  26
ATOM     26  N   UNL     1      -7.934   4.116   3.425  0.00  0.00    -0.306 N 
ATOM     27  C   UNL     1      -9.047   4.795   3.080  0.00  0.00    +0.279 C 
ATOM     28  O   UNL     1      -9.238   5.912   3.522  0.00  0.00    -0.267 OA
ATOM     29  H   UNL     1      -7.782   3.225   3.073  0.00  0.00    +0.149 HD
BRANCH  27  30
ATOM     30  C   UNL     1     -10.026   4.186   2.174  0.00  0.00    +0.189 A 
ATOM     31  C   UNL     1     -11.191   4.758   1.751  0.00  0.00    +0.054 A 
ATOM     32  C   UNL     1     -11.811   3.830   0.900  0.00  0.00    +0.042 A 
ATOM     33  C   UNL     1     -11.011   2.742   0.848  0.00  0.00    +0.196 A 
ATOM     34  O   UNL     1      -9.936   2.961   1.617  0.00  0.00    -0.458 OA
ENDBRANCH  27  30
ENDBRANCH  25  26
ENDBRANCH   6  25
TORSDOF 5
