REMARK  Name = ZINC39405172
REMARK  9 active torsions:
REMARK  status: ('A' for Active; 'I' for Inactive)
REMARK    1  A    between atoms: C_1  and  C_2
REMARK    2  A    between atoms: C_2  and  C_3
REMARK    3  A    between atoms: C_2  and  C_4
REMARK    4  A    between atoms: C_6  and  C_10
REMARK    5  A    between atoms: C_10  and  N_11
REMARK    6  A    between atoms: C_23  and  N_29
REMARK    7  A    between atoms: C_25  and  O_27
REMARK    8  A    between atoms: O_27  and  C_28
REMARK    9  A    between atoms: C_30  and  C_32
REMARK                            x       y       z     vdW  Elec       q    Type
REMARK                         _______ _______ _______ _____ _____    ______ ____
ROOT
ATOM      1  N   UNL     1       2.223  -3.100  -4.522  0.00  0.00    +0.381 N 
ATOM      2  C   UNL     1       3.570  -2.655  -4.899  0.00  0.00    -0.078 C 
ATOM      3  C   UNL     1       3.727  -2.732  -6.420  0.00  0.00    -0.005 C 
ATOM      4  C   UNL     1       3.499  -4.169  -6.881  0.00  0.00    +0.021 C 
ATOM      5  C   UNL     1       2.137  -4.667  -6.404  0.00  0.00    -0.005 C 
ATOM      6  C   UNL     1       2.044  -4.512  -4.884  0.00  0.00    -0.078 C 
ATOM      7  C   UNL     1       3.595  -4.262  -8.385  0.00  0.00    -0.034 A 
ATOM      8  C   UNL     1       2.686  -3.915  -9.370  0.00  0.00    +0.004 A 
ATOM      9  C   UNL     1       2.999  -4.097 -10.702  0.00  0.00    +0.000 A 
ATOM     10  C   UNL     1       4.226  -4.626 -11.056  0.00  0.00    +0.000 A 
ATOM     11  C   UNL     1       5.136  -4.971 -10.076  0.00  0.00    +0.006 A 
ATOM     12  C   UNL     1       4.824  -4.789  -8.739  0.00  0.00    -0.021 A 
ATOM     13  C   UNL     1       5.636  -5.079  -7.494  0.00  0.00    +0.133 C 
ATOM     14  C   UNL     1       4.614  -5.080  -6.336  0.00  0.00    +0.153 C 
ATOM     15  H   UNL     1       1.538  -2.541  -5.007  0.00  0.00    -0.082 HD
ENDROOT
BRANCH  13  16
ATOM     16  N   UNL     1       6.639  -4.032  -7.287  0.00  0.00    -0.299 N 
ATOM     17  C   UNL     1       7.842  -4.122  -7.889  0.00  0.00    +0.280 C 
ATOM     18  O   UNL     1       8.093  -5.074  -8.605  0.00  0.00    -0.267 OA
ATOM     19  H   UNL     1       6.439  -3.274  -6.716  0.00  0.00    +0.150 HD
BRANCH  17  20
ATOM     20  C   UNL     1       8.847  -3.075  -7.682  0.00  0.00    +0.189 A 
ATOM     21  C   UNL     1      10.095  -3.040  -8.233  0.00  0.00    +0.054 A 
ATOM     22  C   UNL     1      10.710  -1.867  -7.768  0.00  0.00    +0.042 A 
ATOM     23  C   UNL     1       9.820  -1.245  -6.963  0.00  0.00    +0.196 A 
ATOM     24  O   UNL     1       8.697  -1.973  -6.918  0.00  0.00    -0.458 OA
ENDBRANCH  17  20
ENDBRANCH  13  16
BRANCH  14  25
ATOM     25  O   UNL     1       4.119  -6.400  -6.096  0.00  0.00    -0.377 OA
ATOM     26  C   UNL     1       4.784  -7.085  -5.033  0.00  0.00    +0.194 C 
ENDBRANCH  14  25
BRANCH   1  27
ATOM     27  C   UNL     1       2.045  -2.942  -3.073  0.00  0.00    -0.046 C 
BRANCH  27  30
ATOM     28  C   UNL     1       0.707  -0.490  -1.238  0.00  0.00    +0.064 C 
ATOM     29  C   UNL     1       1.805  -1.250  -1.237  0.00  0.00    +0.024 C 
ATOM     30  C   UNL     1       2.107  -1.457  -2.710  0.00  0.00    +0.136 C 
ATOM     31  N   UNL     1       1.029  -0.708  -3.378  0.00  0.00    -0.182 NA
ATOM     32  N   UNL     1       0.311  -0.220  -2.502  0.00  0.00    -0.159 NA
BRANCH  28  34
ATOM     33  C   UNL     1      -0.019   1.526   0.010  0.00  0.00    +0.014 C 
ATOM     34  C   UNL     1       0.002  -0.004   0.002  0.00  0.00    +0.033 C 
ATOM     35  C   UNL     1      -1.433  -0.534   0.013  0.00  0.00    +0.014 C 
ENDBRANCH  28  34
ENDBRANCH  27  30
ENDBRANCH   1  27
TORSDOF 6
