REMARK  Name = ZINC06017288
REMARK  6 active torsions:
REMARK  status: ('A' for Active; 'I' for Inactive)
REMARK    1  A    between atoms: C_4  and  C_7
REMARK    2  A    between atoms: C_7  and  C_9
REMARK    3  A    between atoms: C_7  and  S_23
REMARK    4  A    between atoms: N_11  and  C_12
REMARK    5  A    between atoms: C_17  and  C_18
REMARK    6  A    between atoms: S_23  and  C_24
REMARK                            x       y       z     vdW  Elec       q    Type
REMARK                         _______ _______ _______ _____ _____    ______ ____
ROOT
ATOM      1  C   UNL     1      -0.010   1.077  -0.004  0.00  0.00    +0.170 C 
ENDROOT
BRANCH   1   5
ATOM      2  C   UNL     1      -2.034   2.432   3.505  0.00  0.00    +0.000 A 
ATOM      3  C   UNL     1      -1.884   1.077   3.273  0.00  0.00    +0.000 A 
ATOM      4  C   UNL     1      -1.229   0.639   2.137  0.00  0.00    +0.005 A 
ATOM      5  C   UNL     1      -0.724   1.555   1.234  0.00  0.00    -0.025 A 
ATOM      6  C   UNL     1      -0.869   2.910   1.468  0.00  0.00    +0.005 A 
ATOM      7  C   UNL     1      -1.528   3.348   2.602  0.00  0.00    +0.000 A 
ENDBRANCH   1   5
BRANCH   1   8
ATOM      8  C   UNL     1       1.401   1.605  -0.005  0.00  0.00    +0.235 C 
ATOM      9  O   UNL     1       1.665   2.629  -0.600  0.00  0.00    -0.274 OA
ATOM     10  N   UNL     1       2.371   0.940   0.654  0.00  0.00    -0.284 N 
ATOM     11  H   UNL     1       2.116   0.063   1.267  0.00  0.00    +0.155 HD
BRANCH  10  12
ATOM     12  C   UNL     1       3.701   1.365   0.558  0.00  0.00    +0.045 A 
ATOM     13  C   UNL     1       4.122   2.090  -0.549  0.00  0.00    +0.025 A 
ATOM     14  C   UNL     1       5.434   2.508  -0.641  0.00  0.00    +0.022 A 
ATOM     15  C   UNL     1       6.331   2.205   0.369  0.00  0.00    +0.042 A 
ATOM     16  C   UNL     1       5.914   1.483   1.474  0.00  0.00    +0.034 A 
ATOM     17  C   UNL     1       4.601   1.068   1.573  0.00  0.00    +0.077 A 
ATOM     18 CL   UNL     1       7.981   2.732   0.250  0.00  0.00    -0.084 Cl
BRANCH  17  19
ATOM     19  C   UNL     1       4.146   0.287   2.779  0.00  0.00    +0.419 C 
ATOM     20  F   UNL     1       5.222   0.114   3.656  0.00  0.00    -0.166 F 
ATOM     21  F   UNL     1       3.123   0.986   3.429  0.00  0.00    -0.166 F 
ATOM     22  F   UNL     1       3.670  -0.964   2.373  0.00  0.00    -0.166 F 
ENDBRANCH  17  19
ENDBRANCH  10  12
ENDBRANCH   1   8
BRANCH   1  23
ATOM     23  S   UNL     1      -0.882   1.680  -1.476  0.00  0.00    -0.068 S 
BRANCH  23  24
ATOM     24  C   UNL     1      -2.444   0.868  -1.408  0.00  0.00    +0.199 A 
ATOM     25  N   UNL     1      -2.837   0.029  -0.481  0.00  0.00    -0.120 NA
ATOM     26  N   UNL     1      -4.137  -0.388  -0.795  0.00  0.00    -0.110 NA
ATOM     27  C   UNL     1      -4.498   0.212  -1.906  0.00  0.00    +0.235 A 
ATOM     28  N   UNL     1      -3.464   1.008  -2.311  0.00  0.00    -0.255 N 
ATOM     29  C   UNL     1      -3.844   1.655  -3.489  0.00  0.00    +0.075 A 
ATOM     30  C   UNL     1      -3.193   2.558  -4.317  0.00  0.00    +0.028 A 
ATOM     31  C   UNL     1      -3.829   3.044  -5.442  0.00  0.00    +0.002 A 
ATOM     32  C   UNL     1      -5.115   2.633  -5.748  0.00  0.00    +0.002 A 
ATOM     33  C   UNL     1      -5.772   1.734  -4.932  0.00  0.00    +0.028 A 
ATOM     34  C   UNL     1      -5.140   1.240  -3.798  0.00  0.00    +0.066 A 
ATOM     35  N   UNL     1      -5.536   0.340  -2.814  0.00  0.00    -0.322 N 
ATOM     36  H   UNL     1      -6.466  -0.229  -2.669  0.00  0.00    +0.169 HD
ENDBRANCH  23  24
ENDBRANCH   1  23
TORSDOF 6
