REMARK  Name = ZINC39639104
REMARK  11 active torsions:
REMARK  status: ('A' for Active; 'I' for Inactive)
REMARK    1  A    between atoms: C_1  and  C_2
REMARK    2  A    between atoms: C_2  and  C_8
REMARK    3  A    between atoms: C_12  and  C_21
REMARK    4  A    between atoms: N_23  and  C_24
REMARK    5  A    between atoms: C_24  and  C_25
REMARK    6  A    between atoms: C_26  and  O_35
REMARK    7  A    between atoms: C_28  and  O_33
REMARK    8  A    between atoms: C_30  and  O_31
REMARK    9  A    between atoms: O_31  and  C_32
REMARK   10  A    between atoms: O_33  and  C_34
REMARK   11  A    between atoms: O_35  and  C_36
REMARK                            x       y       z     vdW  Elec       q    Type
REMARK                         _______ _______ _______ _____ _____    ______ ____
ROOT
ATOM      1  C   UNL     1      -1.048  -0.043  -0.192  0.00  0.00    +0.222 C 
ATOM      2  O   UNL     1      -1.374  -0.626   0.821  0.00  0.00    -0.275 OA
ATOM      3  N   UNL     1      -1.947   0.148  -1.178  0.00  0.00    -0.300 N 
ATOM      4  C   UNL     1      -1.712   0.731  -2.520  0.00  0.00    +0.121 C 
ATOM      5  C   UNL     1      -2.578  -0.123  -3.473  0.00  0.00    +0.100 C 
ATOM      6  C   UNL     1      -3.681  -0.714  -2.578  0.00  0.00    -0.004 C 
ATOM      7  C   UNL     1      -3.392  -0.182  -1.167  0.00  0.00    +0.115 C 
ATOM      8  C   UNL     1      -5.053  -0.244  -3.051  0.00  0.00    -0.010 C 
ATOM      9  C   UNL     1      -6.136  -0.891  -2.182  0.00  0.00    -0.082 C 
ATOM     10  N   UNL     1      -6.036  -2.352  -2.279  0.00  0.00    +0.379 N 
ATOM     11  C   UNL     1      -4.749  -2.803  -1.737  0.00  0.00    -0.082 C 
ATOM     12  C   UNL     1      -3.608  -2.238  -2.587  0.00  0.00    -0.010 C 
ATOM     13  H   UNL     1      -6.788  -2.775  -1.755  0.00  0.00    -0.086 HD
ATOM     14  H   UNL     1      -6.107  -2.629  -3.247  0.00  0.00    -0.086 HD
ENDROOT
BRANCH   1  16
ATOM     15  C   UNL     1       1.069  -0.323  -1.451  0.00  0.00    +0.021 C 
ATOM     16  C   UNL     1       0.361   0.466  -0.348  0.00  0.00    +0.044 C 
ATOM     17  C   UNL     1       1.117   0.288   0.971  0.00  0.00    +0.016 C 
ATOM     18  C   UNL     1       0.409   1.077   2.074  0.00  0.00    +0.001 C 
ATOM     19  C   UNL     1       0.377   2.560   1.701  0.00  0.00    +0.000 C 
ATOM     20  C   UNL     1      -0.378   2.738   0.382  0.00  0.00    +0.001 C 
ATOM     21  C   UNL     1       0.330   1.949  -0.721  0.00  0.00    +0.016 C 
ENDBRANCH   1  16
BRANCH   5  22
ATOM     22  C   UNL     1      -1.753  -1.223  -4.088  0.00  0.00    +0.218 C 
ATOM     23  O   UNL     1      -0.865  -1.745  -3.448  0.00  0.00    -0.275 OA
ATOM     24  N   UNL     1      -2.001  -1.627  -5.349  0.00  0.00    -0.311 N 
ATOM     25  H   UNL     1      -2.711  -1.210  -5.862  0.00  0.00    +0.149 HD
BRANCH  24  26
ATOM     26  C   UNL     1      -1.198  -2.697  -5.947  0.00  0.00    +0.147 C 
BRANCH  26  27
ATOM     27  C   UNL     1      -1.675  -2.957  -7.353  0.00  0.00    +0.053 A 
ATOM     28  C   UNL     1      -2.676  -3.888  -7.585  0.00  0.00    +0.132 A 
ATOM     29  C   UNL     1      -3.115  -4.127  -8.879  0.00  0.00    +0.091 A 
ATOM     30  C   UNL     1      -2.552  -3.435  -9.941  0.00  0.00    +0.127 A 
ATOM     31  C   UNL     1      -1.552  -2.503  -9.709  0.00  0.00    +0.091 A 
ATOM     32  C   UNL     1      -1.116  -2.261  -8.415  0.00  0.00    +0.132 A 
BRANCH  32  33
ATOM     33  O   UNL     1      -0.139  -1.345  -8.187  0.00  0.00    -0.495 OA
ATOM     34  C   UNL     1       0.392  -0.665  -9.327  0.00  0.00    +0.277 C 
ENDBRANCH  32  33
BRANCH  30  35
ATOM     35  O   UNL     1      -2.981  -3.670 -11.208  0.00  0.00    -0.495 OA
ATOM     36  C   UNL     1      -2.358  -2.921 -12.254  0.00  0.00    +0.277 C 
ENDBRANCH  30  35
BRANCH  28  37
ATOM     37  O   UNL     1      -3.227  -4.566  -6.544  0.00  0.00    -0.495 OA
ATOM     38  C   UNL     1      -4.254  -5.510  -6.856  0.00  0.00    +0.277 C 
ENDBRANCH  28  37
ENDBRANCH  26  27
ENDBRANCH  24  26
ENDBRANCH   5  22
TORSDOF 7
