REMARK  Name = ZINC63176313
REMARK  6 active torsions:
REMARK  status: ('A' for Active; 'I' for Inactive)
REMARK    1  A    between atoms: C_3  and  O_20
REMARK    2  A    between atoms: C_6  and  S_7
REMARK    3  A    between atoms: S_7  and  N_10
REMARK    4  A    between atoms: N_10  and  C_11
REMARK    5  A    between atoms: C_16  and  N_18
REMARK    6  A    between atoms: O_20  and  C_21
REMARK                            x       y       z     vdW  Elec       q    Type
REMARK                         _______ _______ _______ _____ _____    ______ ____
ROOT
ATOM      1  S   UNL     1      -1.513  -0.904   0.012  0.00  0.00    +0.059 S 
ATOM      2  O   UNL     1      -1.220  -2.185   0.553  0.00  0.00    -0.153 OA
ATOM      3  O   UNL     1      -2.492  -0.044   0.577  0.00  0.00    -0.153 OA
ENDROOT
BRANCH   1   9
ATOM      4  C   UNL     1      -0.017   1.378   0.010  0.00  0.00    +0.032 A 
ATOM      5  C   UNL     1       1.170   2.087   0.002  0.00  0.00    +0.049 A 
ATOM      6  C   UNL     1       2.380   1.411  -0.013  0.00  0.00    +0.145 A 
ATOM      7  C   UNL     1       2.397   0.022  -0.021  0.00  0.00    +0.085 A 
ATOM      8  C   UNL     1       1.208  -0.682  -0.013  0.00  0.00    +0.052 A 
ATOM      9  C   UNL     1       0.002  -0.004   0.002  0.00  0.00    +0.107 A 
ATOM     10 CL   UNL     1       3.910  -0.828  -0.040  0.00  0.00    -0.080 Cl
BRANCH   6  11
ATOM     11  O   UNL     1       3.548   2.106  -0.021  0.00  0.00    -0.433 OA
BRANCH  11  12
ATOM     12  C   UNL     1       3.455   3.532  -0.013  0.00  0.00    +0.541 C 
ATOM     13  F   UNL     1       2.755   3.959  -1.146  0.00  0.00    -0.166 F 
ATOM     14  F   UNL     1       2.777   3.948   1.138  0.00  0.00    -0.166 F 
ENDBRANCH  11  12
ENDBRANCH   6  11
ENDBRANCH   1   9
BRANCH   1  15
ATOM     15  N   UNL     1      -1.949  -1.146  -1.567  0.00  0.00    -0.188 NA
ATOM     16  H   UNL     1      -2.756  -0.736  -1.915  0.00  0.00    +0.148 HD
BRANCH  15  17
ATOM     17  C   UNL     1      -1.116  -1.979  -2.438  0.00  0.00    +0.062 C 
ATOM     18  C   UNL     1      -0.173  -1.090  -3.274  0.00  0.00    +0.019 C 
ATOM     19  C   UNL     1      -0.110  -1.794  -4.653  0.00  0.00    -0.000 C 
ATOM     20  C   UNL     1      -1.563  -2.294  -4.847  0.00  0.00    -0.015 C 
ATOM     21  C   UNL     1      -2.000  -2.745  -3.437  0.00  0.00    -0.056 C 
BRANCH  21  22
ATOM     22  N   UNL     1      -3.414  -2.411  -3.217  0.00  0.00    +0.381 N 
ATOM     23  H   UNL     1      -3.550  -1.420  -3.347  0.00  0.00    -0.090 HD
ATOM     24  H   UNL     1      -3.986  -2.918  -3.876  0.00  0.00    -0.090 HD
ATOM     25  H   UNL     1      -3.678  -2.667  -2.277  0.00  0.00    -0.090 HD
ENDBRANCH  21  22
ENDBRANCH  15  17
ENDBRANCH   1  15
TORSDOF 6
