REMARK  Name = ZINC02257646
REMARK  6 active torsions:
REMARK  status: ('A' for Active; 'I' for Inactive)
REMARK    1  A    between atoms: C_1  and  O_2
REMARK    2  A    between atoms: O_2  and  C_3
REMARK    3  A    between atoms: C_6  and  C_9
REMARK    4  A    between atoms: C_20  and  C_22
REMARK    5  A    between atoms: C_32  and  S_34
REMARK    6  A    between atoms: S_34  and  C_35
REMARK                            x       y       z     vdW  Elec       q    Type
REMARK                         _______ _______ _______ _____ _____    ______ ____
ROOT
ATOM      1  C   UNL     1       2.438  -2.258  -4.417  0.00  0.00    +0.159 C 
ATOM      2  C   UNL     1       3.849  -2.649  -4.039  0.00  0.00    +0.025 C 
ATOM      3  C   UNL     1       4.177  -3.957  -4.077  0.00  0.00    +0.058 C 
ATOM      4  C   UNL     1       5.569  -4.325  -3.713  0.00  0.00    +0.040 A 
ATOM      5  C   UNL     1       5.918  -5.634  -3.411  0.00  0.00    +0.013 A 
ATOM      6  C   UNL     1       7.225  -5.932  -3.075  0.00  0.00    +0.001 A 
ATOM      7  C   UNL     1       8.181  -4.931  -3.040  0.00  0.00    +0.004 A 
ATOM      8  C   UNL     1       7.841  -3.625  -3.340  0.00  0.00    +0.046 A 
ATOM      9  C   UNL     1       6.536  -3.312  -3.679  0.00  0.00    +0.131 A 
ATOM     10  O   UNL     1       6.177  -2.039  -3.984  0.00  0.00    -0.479 OA
ATOM     11  C   UNL     1       4.859  -1.620  -3.624  0.00  0.00    +0.234 C 
ATOM     12  N   UNL     1       3.276  -4.904  -4.433  0.00  0.00    -0.326 N 
ATOM     13  C   UNL     1       2.030  -4.652  -4.775  0.00  0.00    +0.216 C 
ATOM     14  N   UNL     1       1.545  -3.362  -4.789  0.00  0.00    -0.209 N 
ATOM     15  N   UNL     1       0.209  -3.439  -5.190  0.00  0.00    -0.239 N 
ATOM     16  C   UNL     1      -0.056  -4.767  -5.396  0.00  0.00    +0.174 C 
ATOM     17  N   UNL     1       1.025  -5.463  -5.151  0.00  0.00    -0.192 NA
ATOM     18  H   UNL     1       3.568  -5.829  -4.437  0.00  0.00    +0.169 HD
ATOM     19  H   UNL     1      -0.408  -2.699  -5.300  0.00  0.00    +0.172 HD
ENDROOT
BRANCH   1  23
ATOM     20  C   UNL     1       0.696  -0.193  -1.105  0.00  0.00    +0.120 A 
ATOM     21  C   UNL     1       1.167   0.519  -2.198  0.00  0.00    +0.046 A 
ATOM     22  C   UNL     1       1.730  -0.150  -3.267  0.00  0.00    +0.009 A 
ATOM     23  C   UNL     1       1.824  -1.530  -3.249  0.00  0.00    -0.021 A 
ATOM     24  C   UNL     1       1.354  -2.243  -2.161  0.00  0.00    +0.009 A 
ATOM     25  C   UNL     1       0.796  -1.577  -1.087  0.00  0.00    +0.046 A 
BRANCH  20  27
ATOM     26  C   UNL     1       0.072   1.888  -0.140  0.00  0.00    +0.277 C 
ATOM     27  O   UNL     1       0.142   0.463  -0.052  0.00  0.00    -0.495 OA
ENDBRANCH  20  27
ENDBRANCH   1  23
BRANCH  11  28
ATOM     28  C   UNL     1       4.789  -1.425  -2.131  0.00  0.00    -0.003 A 
ATOM     29  C   UNL     1       5.247  -2.416  -1.283  0.00  0.00    +0.007 A 
ATOM     30  C   UNL     1       5.182  -2.238   0.086  0.00  0.00    +0.000 A 
ATOM     31  C   UNL     1       4.659  -1.069   0.607  0.00  0.00    +0.000 A 
ATOM     32  C   UNL     1       4.202  -0.078  -0.241  0.00  0.00    +0.000 A 
ATOM     33  C   UNL     1       4.271  -0.254  -1.610  0.00  0.00    +0.007 A 
ENDBRANCH  11  28
BRANCH  16  34
ATOM     34  S   UNL     1      -1.603  -5.433  -5.915  0.00  0.00    -0.092 S 
ATOM     35  C   UNL     1      -1.306  -7.220  -6.000  0.00  0.00    +0.093 C 
ENDBRANCH  16  34
TORSDOF 4
