REMARK  Name = ZINC05956832
REMARK  8 active torsions:
REMARK  status: ('A' for Active; 'I' for Inactive)
REMARK    1  A    between atoms: C_1  and  C_2
REMARK    2  A    between atoms: C_4  and  C_26
REMARK    3  A    between atoms: C_13  and  N_15
REMARK    4  A    between atoms: N_15  and  N_16
REMARK    5  A    between atoms: N_16  and  C_17
REMARK    6  A    between atoms: C_30  and  O_33
REMARK    7  A    between atoms: C_31  and  O_32
REMARK    8  A    between atoms: O_33  and  C_34
REMARK                            x       y       z     vdW  Elec       q    Type
REMARK                         _______ _______ _______ _____ _____    ______ ____
ROOT
ATOM      1  C   UNL     1      -0.115  -4.259   0.126  0.00  0.00    +0.013 C 
ATOM      2  C   UNL     1      -0.071  -2.758   0.420  0.00  0.00    +0.055 C 
ATOM      3  C   UNL     1       1.274  -2.182  -0.030  0.00  0.00    +0.064 C 
ATOM      4  C   UNL     1       1.212  -0.675  -0.015  0.00  0.00    +0.006 A 
ATOM      5  C   UNL     1       2.400   0.039  -0.021  0.00  0.00    +0.057 A 
ATOM      6  C   UNL     1       2.384   1.422  -0.012  0.00  0.00    +0.167 A 
ATOM      7  C   UNL     1       1.168   2.101   0.002  0.00  0.00    +0.170 A 
ATOM      8  C   UNL     1      -0.017   1.387   0.010  0.00  0.00    +0.095 A 
ATOM      9  C   UNL     1       0.002  -0.004   0.002  0.00  0.00    +0.130 A 
ATOM     10  O   UNL     1      -1.185  -0.667   0.016  0.00  0.00    -0.472 OA
ATOM     11  C   UNL     1      -1.184  -2.045  -0.358  0.00  0.00    +0.262 C 
ATOM     12  O   UNL     1       1.417   3.443   0.008  0.00  0.00    -0.452 OA
ATOM     13  C   UNL     1       2.793   3.577   0.411  0.00  0.00    +0.466 C 
ATOM     14  O   UNL     1       3.396   2.341  -0.014  0.00  0.00    -0.453 OA
ENDROOT
BRANCH   3  15
ATOM     15  C   UNL     1       2.358  -2.648   0.907  0.00  0.00    +0.006 A 
ATOM     16  C   UNL     1       2.292  -2.333   2.252  0.00  0.00    +0.008 A 
ATOM     17  C   UNL     1       3.285  -2.759   3.114  0.00  0.00    +0.004 A 
ATOM     18  C   UNL     1       4.348  -3.503   2.636  0.00  0.00    +0.049 A 
ATOM     19  C   UNL     1       4.419  -3.823   1.290  0.00  0.00    +0.162 A 
ATOM     20  C   UNL     1       3.417  -3.398   0.423  0.00  0.00    +0.162 A 
BRANCH  20  21
ATOM     21  O   UNL     1       3.481  -3.713  -0.899  0.00  0.00    -0.503 OA
ATOM     22  H   UNL     1       3.953  -3.062  -1.436  0.00  0.00    +0.292 HD
ENDBRANCH  20  21
BRANCH  19  23
ATOM     23  O   UNL     1       5.464  -4.555   0.818  0.00  0.00    -0.491 OA
ATOM     24  C   UNL     1       6.452  -4.961   1.767  0.00  0.00    +0.277 C 
ENDBRANCH  19  23
ENDBRANCH   3  15
BRANCH  11  25
ATOM     25  N   UNL     1      -2.483  -2.648  -0.028  0.00  0.00    -0.205 NA
ATOM     26  H   UNL     1      -2.868  -2.240   0.810  0.00  0.00    +0.148 HD
BRANCH  25  27
ATOM     27  N   UNL     1      -3.355  -2.535  -1.074  0.00  0.00    -0.277 N 
ATOM     28  H   UNL     1      -3.075  -2.099  -1.894  0.00  0.00    +0.166 HD
BRANCH  27  29
ATOM     29  C   UNL     1      -4.649  -3.047  -0.961  0.00  0.00    +0.041 A 
ATOM     30  C   UNL     1      -5.050  -3.677   0.210  0.00  0.00    +0.024 A 
ATOM     31  C   UNL     1      -6.332  -4.178   0.320  0.00  0.00    +0.002 A 
ATOM     32  C   UNL     1      -7.214  -4.063  -0.740  0.00  0.00    +0.000 A 
ATOM     33  C   UNL     1      -6.817  -3.441  -1.909  0.00  0.00    +0.002 A 
ATOM     34  C   UNL     1      -5.537  -2.933  -2.023  0.00  0.00    +0.024 A 
ENDBRANCH  27  29
ENDBRANCH  25  27
ENDBRANCH  11  25
TORSDOF 6
