REMARK  Name = ZINC34748214
REMARK  7 active torsions:
REMARK  status: ('A' for Active; 'I' for Inactive)
REMARK    1  A    between atoms: C_1  and  C_2
REMARK    2  A    between atoms: C_2  and  C_3
REMARK    3  A    between atoms: C_2  and  C_4
REMARK    4  A    between atoms: C_4  and  N_5
REMARK    5  A    between atoms: N_18  and  C_21
REMARK    6  A    between atoms: C_21  and  C_22
REMARK    7  A    between atoms: N_24  and  C_25
REMARK                            x       y       z     vdW  Elec       q    Type
REMARK                         _______ _______ _______ _____ _____    ______ ____
ROOT
ATOM      1  N   UNL     1      -1.370   0.145  -2.681  0.00  0.00    -0.280 N 
ATOM      2  C   UNL     1      -1.987   1.342  -2.686  0.00  0.00    +0.264 A 
ATOM      3  O   UNL     1      -1.371   2.356  -2.964  0.00  0.00    -0.267 OA
ATOM      4  C   UNL     1      -3.379   1.405  -2.359  0.00  0.00    +0.076 A 
ATOM      5  C   UNL     1      -4.244   2.595  -2.303  0.00  0.00    -0.023 A 
ATOM      6  C   UNL     1      -5.529   2.396  -1.968  0.00  0.00    -0.004 A 
ATOM      7  S   UNL     1      -5.672   0.642  -1.712  0.00  0.00    -0.073 S 
ATOM      8  C   UNL     1      -3.994   0.182  -2.055  0.00  0.00    +0.117 A 
ATOM      9  N   UNL     1      -3.327  -0.967  -2.067  0.00  0.00    -0.208 NA
ATOM     10  C   UNL     1      -2.047  -0.999  -2.377  0.00  0.00    +0.202 A 
ATOM     11  N   UNL     1      -1.384  -2.200  -2.389  0.00  0.00    -0.304 N 
ATOM     12  C   UNL     1      -0.813  -2.761  -1.155  0.00  0.00    +0.089 C 
ATOM     13  C   UNL     1      -1.281  -4.213  -1.018  0.00  0.00    -0.059 C 
ATOM     14  N   UNL     1      -0.935  -4.955  -2.238  0.00  0.00    +0.387 N 
ATOM     15  C   UNL     1      -1.673  -4.407  -3.383  0.00  0.00    -0.059 C 
ATOM     16  C   UNL     1      -1.229  -2.967  -3.635  0.00  0.00    +0.089 C 
ATOM     17  C   UNL     1      -6.314   3.680  -1.938  0.00  0.00    +0.043 C 
ATOM     18  C   UNL     1      -5.240   4.789  -1.884  0.00  0.00    +0.010 C 
ATOM     19  C   UNL     1      -4.036   4.092  -2.548  0.00  0.00    +0.037 C 
ATOM     20  H   UNL     1       0.056  -4.874  -2.409  0.00  0.00    -0.081 HD
ENDROOT
BRANCH   1  21
ATOM     21  C   UNL     1       0.054   0.070  -3.015  0.00  0.00    +0.131 C 
BRANCH  21  23
ATOM     22  C   UNL     1      -0.336   0.920  -5.332  0.00  0.00    +0.009 C 
ATOM     23  C   UNL     1       0.213  -0.243  -4.504  0.00  0.00    +0.003 C 
ATOM     24  C   UNL     1       1.695  -0.445  -4.828  0.00  0.00    +0.009 C 
ENDBRANCH  21  23
ENDBRANCH   1  21
BRANCH  14  25
ATOM     25  C   UNL     1      -1.285  -6.371  -2.064  0.00  0.00    +0.019 C 
BRANCH  25  26
ATOM     26  C   UNL     1      -0.819  -7.154  -3.263  0.00  0.00    +0.201 C 
ATOM     27  O   UNL     1      -0.252  -6.589  -4.174  0.00  0.00    -0.278 OA
ATOM     28  N   UNL     1      -1.034  -8.484  -3.325  0.00  0.00    -0.287 N 
ATOM     29  H   UNL     1      -1.559  -8.922  -2.637  0.00  0.00    +0.155 HD
BRANCH  28  30
ATOM     30  C   UNL     1      -0.500  -9.229  -4.378  0.00  0.00    +0.041 A 
ATOM     31  C   UNL     1       0.618  -8.783  -5.049  0.00  0.00    +0.024 A 
ATOM     32  C   UNL     1       1.158  -9.518  -6.100  0.00  0.00    +0.002 A 
ATOM     33  C   UNL     1       0.600 -10.696  -6.494  0.00  0.00    +0.008 A 
ATOM     34  C   UNL     1      -0.541 -11.186  -5.835  0.00  0.00    -0.016 A 
ATOM     35  C   UNL     1      -1.097 -10.449  -4.761  0.00  0.00    +0.003 A 
ATOM     36  C   UNL     1      -2.233 -10.943  -4.101  0.00  0.00    +0.010 A 
ATOM     37  C   UNL     1      -2.783 -12.123  -4.497  0.00  0.00    +0.001 A 
ATOM     38  C   UNL     1      -2.233 -12.852  -5.550  0.00  0.00    +0.001 A 
ATOM     39  C   UNL     1      -1.139 -12.399  -6.220  0.00  0.00    +0.008 A 
ENDBRANCH  28  30
ENDBRANCH  25  26
ENDBRANCH  14  25
TORSDOF 5
