REMARK  Name = ZINC28134568
REMARK  5 active torsions:
REMARK  status: ('A' for Active; 'I' for Inactive)
REMARK    1  A    between atoms: C_1  and  C_2
REMARK    2  A    between atoms: C_12  and  C_16
REMARK    3  A    between atoms: C_19  and  S_26
REMARK    4  A    between atoms: C_20  and  C_22
REMARK    5  A    between atoms: S_26  and  C_27
REMARK                            x       y       z     vdW  Elec       q    Type
REMARK                         _______ _______ _______ _____ _____    ______ ____
ROOT
ATOM      1  C   UNL     1       2.751  -5.186   0.366  0.00  0.00    -0.017 A 
ATOM      2  C   UNL     1       1.768  -4.206   0.234  0.00  0.00    +0.009 A 
ATOM      3  C   UNL     1       2.129  -2.881   0.125  0.00  0.00    +0.016 A 
ATOM      4  C   UNL     1       3.473  -2.521   0.136  0.00  0.00    +0.024 A 
ATOM      5  C   UNL     1       4.455  -3.498   0.268  0.00  0.00    +0.069 A 
ATOM      6  C   UNL     1       4.098  -4.824   0.382  0.00  0.00    +0.022 A 
ENDROOT
BRANCH   1  18
ATOM      7  C   UNL     1      -4.000 -11.945   2.293  0.00  0.00    +0.109 C 
ATOM      8  C   UNL     1      -3.929 -10.441   2.251  0.00  0.00    +0.213 C 
ATOM      9  O   UNL     1      -4.670  -9.778   2.945  0.00  0.00    -0.276 OA
ATOM     10  N   UNL     1      -3.040  -9.831   1.441  0.00  0.00    -0.299 N 
ATOM     11  C   UNL     1      -2.204 -10.610   0.515  0.00  0.00    +0.126 C 
ATOM     12  C   UNL     1      -0.742 -10.197   0.714  0.00  0.00    +0.125 C 
ATOM     13  N   UNL     1      -0.626  -8.739   0.579  0.00  0.00    -0.314 N 
ATOM     14  C   UNL     1      -1.392  -8.044   1.622  0.00  0.00    +0.125 C 
ATOM     15  C   UNL     1      -2.880  -8.369   1.460  0.00  0.00    +0.126 C 
ATOM     16  C   UNL     1       0.707  -8.342   0.591  0.00  0.00    +0.099 A 
ATOM     17  C   UNL     1       1.023  -6.995   0.473  0.00  0.00    +0.050 A 
ATOM     18  C   UNL     1       2.365  -6.613   0.488  0.00  0.00    -0.013 A 
ATOM     19  C   UNL     1       3.338  -7.612   0.615  0.00  0.00    +0.026 A 
ATOM     20  C   UNL     1       2.940  -8.926   0.732  0.00  0.00    +0.085 A 
ATOM     21  N   UNL     1       1.661  -9.253   0.714  0.00  0.00    -0.350 N 
ATOM     22  H   UNL     1       1.397 -10.317   0.806  0.00  0.00    +0.166 HD
ENDBRANCH   1  18
BRANCH   5  23
ATOM     23  C   UNL     1       5.910  -3.106   0.285  0.00  0.00    +0.418 C 
ATOM     24  F   UNL     1       6.700  -4.251   0.426  0.00  0.00    -0.166 F 
ATOM     25  F   UNL     1       6.233  -2.460  -0.913  0.00  0.00    -0.166 F 
ATOM     26  F   UNL     1       6.147  -2.241   1.359  0.00  0.00    -0.166 F 
ENDBRANCH   5  23
BRANCH   4  27
ATOM     27  S   UNL     1       3.932  -0.826  -0.009  0.00  0.00    -0.089 S 
BRANCH  27  28
ATOM     28  C   UNL     1       2.394   0.035   0.009  0.00  0.00    +0.016 A 
ATOM     29  C   UNL     1       1.799   0.369   1.219  0.00  0.00    +0.019 A 
ATOM     30  C   UNL     1       0.594   1.043   1.234  0.00  0.00    +0.050 A 
ATOM     31  C   UNL     1      -0.026   1.388   0.042  0.00  0.00    +0.162 A 
ATOM     32  C   UNL     1       0.568   1.058  -1.171  0.00  0.00    +0.163 A 
ATOM     33  C   UNL     1       1.777   0.380  -1.185  0.00  0.00    +0.064 A 
ATOM     34  O   UNL     1      -0.021   1.395  -2.350  0.00  0.00    -0.485 OA
ATOM     35  C   UNL     1      -1.410   1.741  -2.301  0.00  0.00    +0.270 C 
ATOM     36  C   UNL     1      -1.623   2.707  -1.128  0.00  0.00    +0.270 C 
ATOM     37  O   UNL     1      -1.219   2.045   0.076  0.00  0.00    -0.485 OA
ENDBRANCH  27  28
ENDBRANCH   4  27
TORSDOF 4
