REMARK  Name = ZINC00623199
REMARK  11 active torsions:
REMARK  status: ('A' for Active; 'I' for Inactive)
REMARK    1  A    between atoms: C_1  and  C_2
REMARK    2  A    between atoms: C_3  and  C_35
REMARK    3  A    between atoms: C_4  and  C_28
REMARK    4  A    between atoms: C_10  and  C_20
REMARK    5  A    between atoms: C_12  and  C_16
REMARK    6  A    between atoms: C_16  and  O_18
REMARK    7  A    between atoms: O_18  and  C_19
REMARK    8  A    between atoms: C_23  and  O_26
REMARK    9  A    between atoms: O_26  and  C_27
REMARK   10  A    between atoms: C_35  and  O_37
REMARK   11  A    between atoms: O_37  and  C_38
REMARK                            x       y       z     vdW  Elec       q    Type
REMARK                         _______ _______ _______ _____ _____    ______ ____
ROOT
ATOM      1  C   UNL     1      -0.020   1.055   0.016  0.00  0.00    +0.061 C 
ATOM      2  C   UNL     1      -0.722   1.557   1.252  0.00  0.00    +0.016 C 
ATOM      3  C   UNL     1      -0.034   1.701   2.398  0.00  0.00    +0.065 C 
ATOM      4  C   UNL     1      -0.701   2.192   3.649  0.00  0.00    +0.092 C 
ATOM      5  C   UNL     1      -2.010   2.871   3.334  0.00  0.00    +0.025 C 
ATOM      6  C   UNL     1      -2.620   2.674   2.146  0.00  0.00    +0.016 C 
ATOM      7  N   UNL     1      -2.051   1.868   1.198  0.00  0.00    -0.321 N 
ATOM      8  C   UNL     1      -3.936   3.339   1.828  0.00  0.00    +0.060 C 
ATOM      9  C   UNL     1      -4.020   4.684   2.554  0.00  0.00    +0.046 C 
ATOM     10  C   UNL     1      -3.870   4.434   4.059  0.00  0.00    +0.176 C 
ATOM     11  C   UNL     1      -2.574   3.713   4.308  0.00  0.00    +0.176 C 
ATOM     12  O   UNL     1      -2.005   3.860   5.371  0.00  0.00    -0.291 OA
ATOM     13  H   UNL     1      -2.677   1.469   0.386  0.00  0.00    +0.152 HD
ENDROOT
BRANCH   4  14
ATOM     14  C   UNL     1      -0.959   1.022   4.564  0.00  0.00    -0.035 A 
ATOM     15  C   UNL     1      -1.764  -0.020   4.143  0.00  0.00    +0.006 A 
ATOM     16  C   UNL     1      -1.996  -1.095   4.979  0.00  0.00    +0.020 A 
ATOM     17  C   UNL     1      -1.432  -1.124   6.242  0.00  0.00    +0.041 A 
ATOM     18  C   UNL     1      -0.631  -0.078   6.665  0.00  0.00    +0.020 A 
ATOM     19  C   UNL     1      -0.395   0.994   5.825  0.00  0.00    +0.006 A 
ATOM     20 CL   UNL     1      -1.728  -2.472   7.295  0.00  0.00    -0.084 Cl
ENDBRANCH   4  14
BRANCH   9  21
ATOM     21  C   UNL     1      -5.354   5.330   2.279  0.00  0.00    -0.042 A 
ATOM     22  C   UNL     1      -6.522   4.675   2.620  0.00  0.00    +0.007 A 
ATOM     23  C   UNL     1      -7.745   5.267   2.373  0.00  0.00    +0.046 A 
ATOM     24  C   UNL     1      -7.801   6.517   1.772  0.00  0.00    +0.120 A 
ATOM     25  C   UNL     1      -6.627   7.170   1.426  0.00  0.00    +0.046 A 
ATOM     26  C   UNL     1      -5.406   6.575   1.679  0.00  0.00    +0.007 A 
BRANCH  24  27
ATOM     27  O   UNL     1      -9.003   7.100   1.524  0.00  0.00    -0.495 OA
ATOM     28  C   UNL     1     -10.170   6.369   1.908  0.00  0.00    +0.277 C 
ENDBRANCH  24  27
ENDBRANCH   9  21
BRANCH  10  29
ATOM     29  C   UNL     1      -3.864   5.752   4.790  0.00  0.00    +0.318 C 
ATOM     30  O   UNL     1      -3.977   6.785   4.174  0.00  0.00    -0.250 OA
BRANCH  29  31
ATOM     31  O   UNL     1      -3.732   5.777   6.126  0.00  0.00    -0.467 OA
ATOM     32  C   UNL     1      -3.733   7.082   6.763  0.00  0.00    +0.280 C 
ENDBRANCH  29  31
ENDBRANCH  10  29
BRANCH   3  33
ATOM     33  C   UNL     1       1.345   1.385   2.424  0.00  0.00    +0.337 C 
ATOM     34  O   UNL     1       1.921   1.088   1.395  0.00  0.00    -0.245 OA
BRANCH  33  35
ATOM     35  O   UNL     1       2.021   1.414   3.592  0.00  0.00    -0.465 OA
ATOM     36  C   UNL     1       3.410   1.083   3.545  0.00  0.00    +0.280 C 
ENDBRANCH  33  35
ENDBRANCH   3  33
TORSDOF 7
