REMARK  Name = ZINC39669320
REMARK  5 active torsions:
REMARK  status: ('A' for Active; 'I' for Inactive)
REMARK    1  A    between atoms: C_11  and  C_14
REMARK    2  A    between atoms: C_14  and  N_15
REMARK    3  A    between atoms: C_16  and  C_18
REMARK    4  A    between atoms: C_29  and  C_31
REMARK    5  A    between atoms: C_34  and  C_37
REMARK                            x       y       z     vdW  Elec       q    Type
REMARK                         _______ _______ _______ _____ _____    ______ ____
ROOT
ATOM      1  C   UNL     1       2.234  -6.732   1.960  0.00  0.00    +0.100 C 
ATOM      2  C   UNL     1       1.440  -6.477   3.260  0.00  0.00    +0.121 C 
ATOM      3  N   UNL     1       0.745  -7.757   3.532  0.00  0.00    -0.296 N 
ATOM      4  C   UNL     1       1.738  -8.799   3.176  0.00  0.00    +0.115 C 
ATOM      5  C   UNL     1       2.429  -8.257   1.909  0.00  0.00    -0.004 C 
ATOM      6  C   UNL     1       3.915  -8.601   1.931  0.00  0.00    -0.010 C 
ATOM      7  C   UNL     1       4.084 -10.119   1.820  0.00  0.00    -0.082 C 
ATOM      8  N   UNL     1       3.470 -10.593   0.574  0.00  0.00    +0.379 N 
ATOM      9  C   UNL     1       2.024 -10.341   0.601  0.00  0.00    -0.082 C 
ATOM     10  C   UNL     1       1.767  -8.832   0.660  0.00  0.00    -0.010 C 
ATOM     11  C   UNL     1      -0.508  -7.934   3.997  0.00  0.00    +0.247 C 
ATOM     12  O   UNL     1      -1.251  -6.980   4.121  0.00  0.00    -0.270 OA
ATOM     13  H   UNL     1       3.880 -10.105  -0.208  0.00  0.00    -0.086 HD
ATOM     14  H   UNL     1       3.635 -11.583   0.473  0.00  0.00    -0.086 HD
ENDROOT
BRANCH  11  15
ATOM     15  C   UNL     1      -0.979  -9.289   4.355  0.00  0.00    +0.037 A 
ATOM     16  C   UNL     1      -0.057 -10.301   4.631  0.00  0.00    +0.013 A 
ATOM     17  C   UNL     1      -0.503 -11.563   4.966  0.00  0.00    +0.013 A 
ATOM     18  C   UNL     1      -1.860 -11.827   5.027  0.00  0.00    +0.055 A 
ATOM     19  C   UNL     1      -2.778 -10.829   4.753  0.00  0.00    +0.013 A 
ATOM     20  C   UNL     1      -2.346  -9.561   4.424  0.00  0.00    +0.013 A 
BRANCH  18  21
ATOM     21  C   UNL     1      -2.340 -13.208   5.392  0.00  0.00    +0.417 C 
ATOM     22  F   UNL     1      -2.497 -13.296   6.779  0.00  0.00    -0.166 F 
ATOM     23  F   UNL     1      -3.567 -13.456   4.767  0.00  0.00    -0.166 F 
ATOM     24  F   UNL     1      -1.401 -14.155   4.969  0.00  0.00    -0.166 F 
ENDBRANCH  18  21
ENDBRANCH  11  15
BRANCH   1  26
ATOM     25  N   UNL     1       4.149  -5.599   0.879  0.00  0.00    -0.315 N 
ATOM     26  C   UNL     1       3.569  -6.035   2.015  0.00  0.00    +0.218 C 
ATOM     27  O   UNL     1       4.122  -5.866   3.081  0.00  0.00    -0.275 OA
ATOM     28  H   UNL     1       3.707  -5.734   0.026  0.00  0.00    +0.149 HD
BRANCH  25  29
ATOM     29  C   UNL     1       5.446  -4.921   0.932  0.00  0.00    +0.109 C 
BRANCH  29  40
ATOM     30  C   UNL     1       4.883  -6.692  -6.044  0.00  0.00    +0.039 A 
ATOM     31  C   UNL     1       6.008  -5.884  -6.090  0.00  0.00    +0.116 A 
ATOM     32  N   UNL     1       6.561  -5.484  -4.957  0.00  0.00    -0.223 NA
ATOM     33  C   UNL     1       6.051  -5.846  -3.789  0.00  0.00    +0.218 A 
ATOM     34  N   UNL     1       4.977  -6.618  -3.711  0.00  0.00    -0.223 NA
ATOM     35  C   UNL     1       4.375  -7.053  -4.806  0.00  0.00    +0.116 A 
ATOM     36  N   UNL     1       6.655  -5.409  -2.623  0.00  0.00    -0.299 N 
ATOM     37  C   UNL     1       7.845  -4.548  -2.674  0.00  0.00    +0.108 C 
ATOM     38  C   UNL     1       7.583  -3.296  -1.830  0.00  0.00    +0.019 C 
ATOM     39  C   UNL     1       7.170  -3.715  -0.417  0.00  0.00    +0.008 C 
ATOM     40  C   UNL     1       5.877  -4.531  -0.483  0.00  0.00    +0.024 C 
ATOM     41  C   UNL     1       6.116  -5.792  -1.311  0.00  0.00    +0.113 C 
ENDBRANCH  29  40
ENDBRANCH  25  29
ENDBRANCH   1  26
TORSDOF 5
