REMARK  Name = ZINC63279748
REMARK  7 active torsions:
REMARK  status: ('A' for Active; 'I' for Inactive)
REMARK    1  A    between atoms: C_1  and  O_2
REMARK    2  A    between atoms: O_2  and  C_3
REMARK    3  A    between atoms: C_7  and  C_12
REMARK    4  A    between atoms: C_12  and  C_13
REMARK    5  A    between atoms: C_13  and  N_14
REMARK    6  A    between atoms: C_15  and  C_17
REMARK    7  A    between atoms: C_24  and  N_27
REMARK                            x       y       z     vdW  Elec       q    Type
REMARK                         _______ _______ _______ _____ _____    ______ ____
ROOT
ATOM      1  N   UNL     1       2.943  -1.863   7.779  0.00  0.00    -0.311 N 
ATOM      2  C   UNL     1       2.282  -1.801   8.952  0.00  0.00    +0.244 C 
ATOM      3  O   UNL     1       1.097  -2.072   8.998  0.00  0.00    -0.270 OA
ATOM      4  H   UNL     1       3.888  -1.647   7.743  0.00  0.00    +0.149 HD
ENDROOT
BRANCH   2   5
ATOM      5  C   UNL     1       2.995  -1.403  10.181  0.00  0.00    +0.038 A 
ATOM      6  C   UNL     1       4.355  -1.082  10.143  0.00  0.00    +0.015 A 
ATOM      7  C   UNL     1       5.023  -0.712  11.280  0.00  0.00    +0.025 A 
ATOM      8  C   UNL     1       4.368  -0.640  12.527  0.00  0.00    +0.043 A 
ATOM      9  C   UNL     1       3.005  -0.966  12.538  0.00  0.00    +0.033 A 
ATOM     10  C   UNL     1       2.322  -1.333  11.406  0.00  0.00    +0.029 A 
ATOM     11  S   UNL     1       2.498  -0.776  14.232  0.00  0.00    -0.079 S 
ATOM     12  C   UNL     1       4.117  -0.258  14.929  0.00  0.00    +0.237 C 
ATOM     13  N   UNL     1       4.962  -0.276  13.727  0.00  0.00    -0.314 N 
ATOM     14  H   UNL     1       5.902  -0.041  13.771  0.00  0.00    +0.149 HD
BRANCH  12  15
ATOM     15  N   UNL     1       4.040   1.090  15.499  0.00  0.00    -0.326 N 
ATOM     16  C   UNL     1       4.248   2.253  14.819  0.00  0.00    +0.088 A 
ATOM     17  C   UNL     1       4.088   3.279  15.680  0.00  0.00    +0.019 A 
ATOM     18  C   UNL     1       3.770   2.728  16.938  0.00  0.00    +0.019 A 
ATOM     19  C   UNL     1       3.741   1.387  16.796  0.00  0.00    +0.088 A 
ENDBRANCH  12  15
ENDBRANCH   2   5
BRANCH   1  20
ATOM     20  C   UNL     1       2.235  -2.258   6.559  0.00  0.00    +0.109 C 
BRANCH  20  21
ATOM     21  C   UNL     1       3.208  -2.249   5.379  0.00  0.00    +0.052 C 
BRANCH  21  26
ATOM     22  C   UNL     1       0.624  -0.617   1.039  0.00  0.00    +0.122 A 
ATOM     23  C   UNL     1       1.200   0.178   2.049  0.00  0.00    +0.046 A 
ATOM     24  C   UNL     1       1.834  -0.371   3.107  0.00  0.00    +0.013 A 
ATOM     25  C   UNL     1       1.923  -1.834   3.206  0.00  0.00    -0.001 A 
ATOM     26  C   UNL     1       2.479  -2.655   4.124  0.00  0.00    -0.040 C 
ATOM     27  C   UNL     1       2.224  -4.064   3.638  0.00  0.00    +0.144 C 
ATOM     28  N   UNL     1       1.482  -3.928   2.379  0.00  0.00    -0.380 N 
ATOM     29  C   UNL     1       1.310  -2.649   2.133  0.00  0.00    +0.046 A 
ATOM     30  C   UNL     1       0.664  -1.974   1.067  0.00  0.00    +0.071 A 
ATOM     31  H   UNL     1       1.170  -4.659   1.823  0.00  0.00    +0.160 HD
BRANCH  22  33
ATOM     32  C   UNL     1      -0.017   1.425   0.010  0.00  0.00    +0.277 C 
ATOM     33  O   UNL     1       0.002  -0.004   0.002  0.00  0.00    -0.495 OA
ENDBRANCH  22  33
ENDBRANCH  21  26
ENDBRANCH  20  21
ENDBRANCH   1  20
TORSDOF 6
