REMARK  Name = ZINC36276373
REMARK  8 active torsions:
REMARK  status: ('A' for Active; 'I' for Inactive)
REMARK    1  A    between atoms: C_1  and  C_2
REMARK    2  A    between atoms: C_2  and  C_3
REMARK    3  A    between atoms: C_8  and  N_9
REMARK    4  A    between atoms: C_10  and  C_12
REMARK    5  A    between atoms: C_12  and  O_13
REMARK    6  A    between atoms: O_13  and  C_14
REMARK    7  A    between atoms: C_21  and  C_23
REMARK    8  A    between atoms: C_26  and  N_29
REMARK                            x       y       z     vdW  Elec       q    Type
REMARK                         _______ _______ _______ _____ _____    ______ ____
ROOT
ATOM      1  C   UNL     1      -1.854  -0.400  -7.204  0.00  0.00    +0.162 A 
ATOM      2  C   UNL     1      -0.586   0.064  -7.399  0.00  0.00    +0.051 A 
ATOM      3  C   UNL     1      -0.108   0.252  -8.706  0.00  0.00    +0.022 A 
ATOM      4  C   UNL     1      -0.896  -0.023  -9.766  0.00  0.00    +0.093 A 
ATOM      5  N   UNL     1      -2.169  -0.488  -9.588  0.00  0.00    -0.305 N 
ATOM      6  C   UNL     1      -2.665  -0.689  -8.326  0.00  0.00    +0.159 A 
ATOM      7  N   UNL     1      -3.904  -1.145  -8.433  0.00  0.00    -0.337 N 
ATOM      8  C   UNL     1      -4.223  -1.251  -9.732  0.00  0.00    +0.065 A 
ATOM      9  C   UNL     1      -3.154  -0.836 -10.469  0.00  0.00    +0.119 A 
ATOM     10  H   UNL     1      -4.487  -1.367  -7.690  0.00  0.00    +0.167 HD
ENDROOT
BRANCH   8  11
ATOM     11  C   UNL     1      -5.521  -1.726 -10.273  0.00  0.00    -0.000 A 
ATOM     12  C   UNL     1      -6.542  -2.105  -9.403  0.00  0.00    +0.012 A 
ATOM     13  C   UNL     1      -7.747  -2.545  -9.908  0.00  0.00    +0.023 A 
ATOM     14  C   UNL     1      -7.944  -2.611 -11.282  0.00  0.00    +0.025 A 
ATOM     15  C   UNL     1      -6.927  -2.233 -12.151  0.00  0.00    +0.023 A 
ATOM     16  C   UNL     1      -5.722  -1.788 -11.650  0.00  0.00    +0.012 A 
BRANCH  14  17
ATOM     17  N   UNL     1      -9.165  -3.058 -11.791  0.00  0.00    -0.358 N 
ATOM     18  H   UNL     1      -9.876  -3.322 -11.185  0.00  0.00    +0.142 HD
ATOM     19  H   UNL     1      -9.303  -3.104 -12.750  0.00  0.00    +0.142 HD
ENDBRANCH  14  17
ENDBRANCH   8  11
BRANCH   1  20
ATOM     20  O   UNL     1      -2.331  -0.587  -5.945  0.00  0.00    -0.479 OA
BRANCH  20  21
ATOM     21  C   UNL     1      -1.451  -0.272  -4.864  0.00  0.00    +0.325 C 
BRANCH  21  23
ATOM     22  N   UNL     1      -1.505  -0.315  -2.391  0.00  0.00    -0.282 N 
ATOM     23  C   UNL     1      -2.147  -0.541  -3.555  0.00  0.00    +0.255 C 
ATOM     24  O   UNL     1      -3.285  -0.961  -3.548  0.00  0.00    -0.272 OA
ATOM     25  H   UNL     1      -0.620   0.082  -2.395  0.00  0.00    +0.155 HD
BRANCH  22  31
ATOM     26  C   UNL     1      -1.349  -1.119  -0.119  0.00  0.00    -0.026 A 
ATOM     27  C   UNL     1      -1.954  -1.445   1.079  0.00  0.00    +0.005 A 
ATOM     28  C   UNL     1      -3.322  -1.313   1.222  0.00  0.00    +0.000 A 
ATOM     29  C   UNL     1      -4.090  -0.854   0.168  0.00  0.00    +0.002 A 
ATOM     30  C   UNL     1      -3.491  -0.525  -1.033  0.00  0.00    +0.023 A 
ATOM     31  C   UNL     1      -2.116  -0.652  -1.178  0.00  0.00    +0.037 A 
BRANCH  26  33
ATOM     32  C   UNL     1       0.819   0.078   0.019  0.00  0.00    +0.009 C 
ATOM     33  C   UNL     1       0.143  -1.263  -0.275  0.00  0.00    +0.033 C 
ENDBRANCH  26  33
ENDBRANCH  22  31
ENDBRANCH  21  23
ENDBRANCH  20  21
ENDBRANCH   1  20
TORSDOF 7
