REMARK  Name = ZINC44225173
REMARK  6 active torsions:
REMARK  status: ('A' for Active; 'I' for Inactive)
REMARK    1  A    between atoms: C_1  and  C_2
REMARK    2  A    between atoms: C_3  and  C_18
REMARK    3  A    between atoms: C_4  and  C_13
REMARK    4  A    between atoms: C_6  and  C_10
REMARK    5  A    between atoms: C_7  and  N_9
REMARK    6  A    between atoms: C_18  and  C_20
REMARK                            x       y       z     vdW  Elec       q    Type
REMARK                         _______ _______ _______ _____ _____    ______ ____
ROOT
ATOM      1  C   UNL     1      -0.038   1.502  -0.026  0.00  0.00    +0.086 C 
ATOM      2  C   UNL     1      -0.007  -0.004  -0.015  0.00  0.00    +0.112 C 
ATOM      3  C   UNL     1      -1.169  -0.679   0.006  0.00  0.00    +0.048 C 
ATOM      4  C   UNL     1      -1.195  -2.183   0.019  0.00  0.00    +0.133 C 
ATOM      5  C   UNL     1       0.148  -2.723  -0.392  0.00  0.00    +0.112 C 
ATOM      6  C   UNL     1       1.250  -1.923  -0.391  0.00  0.00    +0.195 C 
ATOM      7  O   UNL     1       1.179  -0.631  -0.034  0.00  0.00    -0.446 OA
ENDROOT
BRANCH   4   8
ATOM      8  C   UNL     1      -1.523  -2.667   1.408  0.00  0.00    +0.117 A 
ATOM      9  C   UNL     1      -2.580  -3.426   1.748  0.00  0.00    +0.045 A 
ATOM     10  C   UNL     1      -2.499  -3.642   3.143  0.00  0.00    +0.041 A 
ATOM     11  C   UNL     1      -1.396  -3.001   3.572  0.00  0.00    +0.195 A 
ATOM     12  O   UNL     1      -0.806  -2.417   2.516  0.00  0.00    -0.467 OA
ENDBRANCH   4   8
BRANCH   6  13
ATOM     13  N   UNL     1       2.455  -2.446  -0.769  0.00  0.00    -0.329 N 
ATOM     14  H   UNL     1       2.505  -3.351  -1.114  0.00  0.00    +0.145 HD
ATOM     15  H   UNL     1       3.261  -1.911  -0.693  0.00  0.00    +0.145 HD
ENDBRANCH   6  13
BRANCH   5  16
ATOM     16  C   UNL     1       0.267  -4.062  -0.777  0.00  0.00    +0.388 C 
ATOM     17  O   UNL     1       0.631  -4.984   0.116  0.00  0.00    -0.241 OA
ATOM     18  O   UNL     1       0.015  -4.418  -2.038  0.00  0.00    -0.241 OA
ENDBRANCH   5  16
BRANCH   3  19
ATOM     19  C   UNL     1      -2.382   0.033   0.019  0.00  0.00    +0.160 C 
ATOM     20  O   UNL     1      -2.374   1.248   0.009  0.00  0.00    -0.293 OA
ATOM     21  C   UNL     1      -3.693  -0.711   0.043  0.00  0.00    +0.091 C 
ENDBRANCH   3  19
TORSDOF 4
