REMARK  Name = ZINC35746910
REMARK  15 active torsions:
REMARK  status: ('A' for Active; 'I' for Inactive)
REMARK    1  A    between atoms: C_1  and  C_2
REMARK    2  A    between atoms: C_8  and  C_17
REMARK    3  A    between atoms: C_12  and  C_13
REMARK    4  A    between atoms: C_13  and  O_15
REMARK    5  A    between atoms: O_15  and  C_16
REMARK    6  A    between atoms: C_17  and  N_18
REMARK    7  A    between atoms: N_18  and  C_19
REMARK    8  A    between atoms: N_18  and  C_28
REMARK    9  A    between atoms: C_19  and  C_20
REMARK   10  A    between atoms: C_20  and  C_22
REMARK   11  A    between atoms: C_20  and  O_27
REMARK   12  A    between atoms: C_22  and  O_23
REMARK   13  A    between atoms: O_23  and  C_24
REMARK   14  A    between atoms: C_24  and  C_25
REMARK   15  A    between atoms: C_24  and  C_26
REMARK                            x       y       z     vdW  Elec       q    Type
REMARK                         _______ _______ _______ _____ _____    ______ ____
ROOT
ATOM      1  C   UNL     1       0.217  -3.255  -4.342  0.00  0.00    -0.003 C 
ENDROOT
BRANCH   1   9
ATOM      2  C   UNL     1       1.384   0.655   0.914  0.00  0.00    +0.046 C 
ATOM      3  C   UNL     1       1.333  -0.825   0.637  0.00  0.00    -0.015 A 
ATOM      4  C   UNL     1       1.043  -1.288  -0.648  0.00  0.00    +0.076 A 
ATOM      5  C   UNL     1       0.757  -0.514  -1.878  0.00  0.00    +0.260 A 
ATOM      6  O   UNL     1       0.752   0.704  -1.864  0.00  0.00    -0.267 OA
ATOM      7  N   UNL     1       0.504  -1.193  -3.014  0.00  0.00    -0.312 N 
ATOM      8  H   UNL     1       0.315  -0.702  -3.829  0.00  0.00    +0.170 HD
ATOM      9  C   UNL     1       0.508  -2.549  -3.042  0.00  0.00    +0.094 A 
ATOM     10  N   UNL     1       0.756  -3.260  -1.976  0.00  0.00    -0.229 NA
ATOM     11  C   UNL     1       1.018  -2.692  -0.806  0.00  0.00    +0.116 A 
ATOM     12  S   UNL     1       1.393  -3.293   0.822  0.00  0.00    -0.062 S 
ATOM     13  C   UNL     1       1.574  -1.718   1.641  0.00  0.00    +0.102 A 
BRANCH  13  14
ATOM     14  C   UNL     1       1.898  -1.450   3.044  0.00  0.00    +0.346 C 
ATOM     15  O   UNL     1       1.981  -0.303   3.441  0.00  0.00    -0.244 OA
BRANCH  14  16
ATOM     16  O   UNL     1       2.106  -2.474   3.897  0.00  0.00    -0.464 OA
ATOM     17  C   UNL     1       2.418  -2.139   5.250  0.00  0.00    +0.280 C 
ENDBRANCH  14  16
ENDBRANCH  13  14
ENDBRANCH   1   9
BRANCH   1  18
ATOM     18  N   UNL     1       0.106  -4.699  -4.100  0.00  0.00    +0.388 N 
ATOM     19  H   UNL     1       0.773  -4.974  -3.394  0.00  0.00    -0.081 HD
BRANCH  18  20
ATOM     20  C   UNL     1      -1.252  -5.016  -3.640  0.00  0.00    -0.068 C 
ATOM     21  C   UNL     1      -2.256  -4.676  -4.744  0.00  0.00    -0.015 C 
ATOM     22  C   UNL     1      -3.672  -5.006  -4.264  0.00  0.00    -0.002 C 
ATOM     23  C   UNL     1      -3.991  -4.184  -3.014  0.00  0.00    -0.000 C 
ATOM     24  C   UNL     1      -2.987  -4.524  -1.910  0.00  0.00    -0.002 C 
ATOM     25  C   UNL     1      -1.572  -4.194  -2.390  0.00  0.00    -0.015 C 
ENDBRANCH  18  20
BRANCH  18  26
ATOM     26  C   UNL     1       0.383  -5.427  -5.346  0.00  0.00    -0.044 C 
BRANCH  26  27
ATOM     27  C   UNL     1       0.446  -6.928  -5.056  0.00  0.00    +0.124 C 
BRANCH  27  28
ATOM     28  O   UNL     1      -0.852  -7.396  -4.684  0.00  0.00    -0.391 OA
ATOM     29  H   UNL     1      -1.509  -7.337  -5.391  0.00  0.00    +0.210 HD
ENDBRANCH  27  28
BRANCH  27  30
ATOM     30  C   UNL     1       0.915  -7.670  -6.310  0.00  0.00    +0.189 C 
BRANCH  30  31
ATOM     31  O   UNL     1       1.086  -9.056  -6.007  0.00  0.00    -0.375 OA
BRANCH  31  32
ATOM     32  C   UNL     1       1.525  -9.843  -7.116  0.00  0.00    +0.112 C 
ATOM     33  C   UNL     1       3.054  -9.875  -7.145  0.00  0.00    +0.037 C 
ATOM     34  C   UNL     1       0.988 -11.268  -6.974  0.00  0.00    +0.037 C 
ENDBRANCH  31  32
ENDBRANCH  30  31
ENDBRANCH  27  30
ENDBRANCH  26  27
ENDBRANCH  18  26
ENDBRANCH   1  18
TORSDOF 11
