REMARK  Name = ZINC48324296
REMARK  5 active torsions:
REMARK  status: ('A' for Active; 'I' for Inactive)
REMARK    1  A    between atoms: C_4  and  C_7
REMARK    2  A    between atoms: C_7  and  N_8
REMARK    3  A    between atoms: N_16  and  C_20
REMARK    4  A    between atoms: C_20  and  N_21
REMARK    5  A    between atoms: N_24  and  C_27
REMARK                            x       y       z     vdW  Elec       q    Type
REMARK                         _______ _______ _______ _____ _____    ______ ____
ROOT
ATOM      1  N   UNL     1       4.150  -0.980   1.324  0.00  0.00    +0.384 N 
ATOM      2  C   UNL     1       4.405   0.302   1.991  0.00  0.00    -0.078 C 
ATOM      3  C   UNL     1       4.771   0.057   3.457  0.00  0.00    -0.016 C 
ATOM      4  C   UNL     1       6.035  -0.806   3.523  0.00  0.00    +0.031 C 
ATOM      5  C   UNL     1       5.801  -2.097   2.744  0.00  0.00    +0.098 C 
ATOM      6  C   UNL     1       5.376  -1.788   1.312  0.00  0.00    -0.043 C 
ATOM      7  C   UNL     1       7.046  -2.952   2.753  0.00  0.00    +0.246 C 
ATOM      8  O   UNL     1       8.136  -2.669   2.303  0.00  0.00    -0.273 OA
ATOM      9  N   UNL     1       6.691  -4.099   3.370  0.00  0.00    -0.211 N 
ATOM     10  C   UNL     1       5.405  -4.079   3.744  0.00  0.00    +0.310 C 
ATOM     11  O   UNL     1       4.854  -4.997   4.318  0.00  0.00    -0.252 OA
ATOM     12  N   UNL     1       4.792  -2.926   3.414  0.00  0.00    -0.287 N 
ATOM     13  H   UNL     1       3.866  -2.691   3.585  0.00  0.00    +0.151 HD
ATOM     14  H   UNL     1       3.425  -1.477   1.819  0.00  0.00    -0.081 HD
ENDROOT
BRANCH   1  15
ATOM     15  C   UNL     1       3.715  -0.733  -0.058  0.00  0.00    -0.043 C 
BRANCH  15  19
ATOM     16  C   UNL     1      -0.033   1.317  -0.028  0.00  0.00    +0.000 A 
ATOM     17  C   UNL     1       1.148   2.036  -0.025  0.00  0.00    +0.000 A 
ATOM     18  C   UNL     1       2.361   1.373  -0.034  0.00  0.00    +0.002 A 
ATOM     19  C   UNL     1       2.393  -0.009  -0.046  0.00  0.00    -0.064 A 
ATOM     20  C   UNL     1       1.212  -0.728  -0.049  0.00  0.00    +0.002 A 
ATOM     21  C   UNL     1      -0.001  -0.065  -0.041  0.00  0.00    +0.000 A 
ENDBRANCH  15  19
ENDBRANCH   1  15
BRANCH   9  22
ATOM     22  C   UNL     1       7.598  -5.225   3.601  0.00  0.00    +0.205 C 
BRANCH  22  23
ATOM     23  N   UNL     1       8.265  -5.058   4.899  0.00  0.00    -0.283 NA
ATOM     24  C   UNL     1       7.393  -5.491   5.999  0.00  0.00    +0.105 C 
ATOM     25  C   UNL     1       8.048  -5.135   7.337  0.00  0.00    +0.120 C 
ATOM     26  N   UNL     1       9.405  -5.702   7.359  0.00  0.00    -0.327 N 
ATOM     27  C   UNL     1      10.294  -5.424   6.221  0.00  0.00    +0.120 C 
ATOM     28  C   UNL     1       9.550  -5.769   4.926  0.00  0.00    +0.105 C 
BRANCH  26  29
ATOM     29  C   UNL     1       9.838  -6.484   8.432  0.00  0.00    +0.031 A 
ATOM     30  C   UNL     1      11.080  -7.105   8.385  0.00  0.00    +0.023 A 
ATOM     31  C   UNL     1      11.506  -7.877   9.448  0.00  0.00    +0.003 A 
ATOM     32  C   UNL     1      10.697  -8.034  10.559  0.00  0.00    +0.020 A 
ATOM     33  C   UNL     1       9.459  -7.418  10.609  0.00  0.00    +0.043 A 
ATOM     34  C   UNL     1       9.030  -6.638   9.551  0.00  0.00    +0.043 A 
ATOM     35 CL   UNL     1       8.447  -7.618  12.006  0.00  0.00    -0.083 Cl
ENDBRANCH  26  29
ENDBRANCH  22  23
ENDBRANCH   9  22
TORSDOF 5
