REMARK  Name = ZINC19814181
REMARK  9 active torsions:
REMARK  status: ('A' for Active; 'I' for Inactive)
REMARK    1  A    between atoms: C_1  and  C_2
REMARK    2  A    between atoms: C_2  and  C_3
REMARK    3  A    between atoms: C_6  and  N_9
REMARK    4  A    between atoms: C_13  and  C_14
REMARK    5  A    between atoms: C_16  and  C_32
REMARK    6  A    between atoms: N_17  and  C_20
REMARK    7  A    between atoms: C_18  and  C_19
REMARK    8  A    between atoms: C_22  and  C_29
REMARK    9  A    between atoms: C_24  and  C_26
REMARK                            x       y       z     vdW  Elec       q    Type
REMARK                         _______ _______ _______ _____ _____    ______ ____
ROOT
ATOM      1  C   UNL     1       6.746  -2.364  -4.765  0.00  0.00    -0.003 A 
ATOM      2  C   UNL     1       6.280  -2.094  -3.396  0.00  0.00    +0.031 A 
ATOM      3  C   UNL     1       7.381  -1.963  -2.639  0.00  0.00    +0.022 A 
ATOM      4  N   UNL     1       8.490  -2.130  -3.422  0.00  0.00    -0.317 N 
ATOM      5  C   UNL     1       8.132  -2.376  -4.697  0.00  0.00    +0.028 A 
ATOM      6  C   UNL     1       9.073  -2.619  -5.849  0.00  0.00    +0.064 C 
ATOM      7  C   UNL     1       7.393  -1.677  -1.159  0.00  0.00    +0.064 C 
ENDROOT
BRANCH   1  12
ATOM      8  N   UNL     1       3.458  -4.999  -4.660  0.00  0.00    -0.188 N 
ATOM      9  C   UNL     1       4.562  -4.222  -4.650  0.00  0.00    +0.264 C 
ATOM     10  O   UNL     1       5.307  -4.202  -3.688  0.00  0.00    -0.269 OA
ATOM     11  C   UNL     1       4.835  -3.400  -5.841  0.00  0.00    +0.102 C 
ATOM     12  C   UNL     1       5.947  -2.575  -5.913  0.00  0.00    +0.028 C 
ATOM     13  C   UNL     1       3.870  -3.495  -6.956  0.00  0.00    +0.276 C 
ATOM     14  N   UNL     1       2.816  -4.315  -6.819  0.00  0.00    -0.123 NA
ATOM     15  C   UNL     1       2.626  -5.027  -5.737  0.00  0.00    +0.340 C 
ATOM     16  O   UNL     1       1.545  -5.829  -5.684  0.00  0.00    -0.250 OA
ATOM     17  O   UNL     1       4.028  -2.845  -7.976  0.00  0.00    -0.268 OA
BRANCH   8  21
ATOM     18  C   UNL     1       2.588  -7.366  -1.341  0.00  0.00    -0.048 A 
ATOM     19  C   UNL     1       1.745  -6.326  -1.687  0.00  0.00    +0.005 A 
ATOM     20  C   UNL     1       2.031  -5.540  -2.786  0.00  0.00    +0.024 A 
ATOM     21  C   UNL     1       3.165  -5.794  -3.544  0.00  0.00    +0.046 A 
ATOM     22  C   UNL     1       4.010  -6.839  -3.195  0.00  0.00    +0.024 A 
ATOM     23  C   UNL     1       3.722  -7.619  -2.091  0.00  0.00    +0.005 A 
BRANCH  18  25
ATOM     24  C   UNL     1       2.923  -7.612   1.103  0.00  0.00    +0.009 C 
ATOM     25  C   UNL     1       2.274  -8.221  -0.141  0.00  0.00    +0.032 C 
ENDBRANCH  18  25
ENDBRANCH   8  21
ENDBRANCH   1  12
BRANCH   4  26
ATOM     26  C   UNL     1       9.812  -2.059  -2.962  0.00  0.00    +0.048 A 
ATOM     27  C   UNL     1      10.646  -1.044  -3.407  0.00  0.00    +0.041 A 
ATOM     28  C   UNL     1      11.964  -0.970  -2.951  0.00  0.00    +0.066 A 
ATOM     29  C   UNL     1      12.441  -1.918  -2.046  0.00  0.00    +0.030 A 
ATOM     30  C   UNL     1      11.600  -2.937  -1.601  0.00  0.00    +0.066 A 
ATOM     31  C   UNL     1      10.281  -3.001  -2.059  0.00  0.00    +0.041 A 
BRANCH  30  32
ATOM     32  C   UNL     1      12.100  -3.943  -0.644  0.00  0.00    +0.387 C 
ATOM     33  O   UNL     1      13.252  -3.883  -0.241  0.00  0.00    -0.241 OA
ATOM     34  O   UNL     1      11.361  -4.836  -0.254  0.00  0.00    -0.241 OA
ENDBRANCH  30  32
BRANCH  28  35
ATOM     35  C   UNL     1      12.851   0.110  -3.425  0.00  0.00    +0.387 C 
ATOM     36  O   UNL     1      12.431   0.941  -4.219  0.00  0.00    -0.241 OA
ATOM     37  O   UNL     1      14.005   0.174  -3.025  0.00  0.00    -0.241 OA
ENDBRANCH  28  35
ENDBRANCH   4  26
TORSDOF 6
