REMARK  Name = ZINC34830240
REMARK  7 active torsions:
REMARK  status: ('A' for Active; 'I' for Inactive)
REMARK    1  A    between atoms: C_1  and  C_2
REMARK    2  A    between atoms: C_7  and  C_8
REMARK    3  A    between atoms: N_17  and  C_18
REMARK    4  A    between atoms: C_18  and  C_19
REMARK    5  A    between atoms: C_19  and  C_20
REMARK    6  A    between atoms: C_29  and  C_31
REMARK    7  A    between atoms: C_31  and  C_32
REMARK                            x       y       z     vdW  Elec       q    Type
REMARK                         _______ _______ _______ _____ _____    ______ ____
ROOT
ATOM      1  C   UNL     1      -1.369  -1.368   3.551  0.00  0.00    -0.068 C 
ENDROOT
BRANCH   1  10
ATOM      2  C   UNL     1       0.243   0.050   2.492  0.00  0.00    -0.006 C 
ATOM      3  C   UNL     1       1.644   0.640   2.620  0.00  0.00    -0.047 A 
ATOM      4  C   UNL     1       2.341   1.229   1.568  0.00  0.00    +0.010 A 
ATOM      5  C   UNL     1       3.583   1.725   1.772  0.00  0.00    +0.045 A 
ATOM      6  S   UNL     1       3.839   1.376   3.506  0.00  0.00    -0.101 S 
ATOM      7  C   UNL     1       2.280   0.602   3.825  0.00  0.00    -0.010 A 
ATOM      8  C   UNL     1       1.740   0.030   5.095  0.00  0.00    +0.024 C 
ATOM      9  C   UNL     1       0.230  -0.194   4.897  0.00  0.00    -0.072 C 
ATOM     10  N   UNL     1       0.012  -0.871   3.611  0.00  0.00    +0.388 N 
ATOM     11  H   UNL     1       0.648  -1.651   3.536  0.00  0.00    -0.080 HD
BRANCH   2  18
ATOM     12  C   UNL     1      -0.648   1.422   0.111  0.00  0.00    +0.044 C 
ATOM     13  C   UNL     1      -0.299  -0.043   0.050  0.00  0.00    -0.049 A 
ATOM     14  C   UNL     1      -0.400  -0.728  -1.146  0.00  0.00    +0.003 A 
ATOM     15  C   UNL     1      -0.080  -2.072  -1.202  0.00  0.00    +0.000 A 
ATOM     16  C   UNL     1       0.342  -2.730  -0.061  0.00  0.00    +0.000 A 
ATOM     17  C   UNL     1       0.443  -2.044   1.134  0.00  0.00    +0.002 A 
ATOM     18  C   UNL     1       0.127  -0.699   1.189  0.00  0.00    -0.054 A 
ENDBRANCH   2  18
ENDBRANCH   1  10
BRANCH   1  19
ATOM     19  C   UNL     1      -1.580  -2.422   4.640  0.00  0.00    +0.077 C 
BRANCH  19  20
ATOM     20  C   UNL     1      -2.997  -2.931   4.578  0.00  0.00    +0.214 C 
ATOM     21  O   UNL     1      -3.763  -2.494   3.746  0.00  0.00    -0.276 OA
ATOM     22  N   UNL     1      -3.413  -3.873   5.449  0.00  0.00    -0.300 N 
ATOM     23  C   UNL     1      -4.740  -4.380   5.415  0.00  0.00    +0.109 C 
ATOM     24  C   UNL     1      -5.789  -3.510   6.182  0.00  0.00    +0.038 C 
ATOM     25  C   UNL     1      -5.090  -2.968   7.471  0.00  0.00    +0.109 C 
ATOM     26  N   UNL     1      -4.208  -3.889   8.098  0.00  0.00    -0.300 N 
ATOM     27  C   UNL     1      -2.765  -3.776   7.764  0.00  0.00    +0.126 C 
ATOM     28  C   UNL     1      -2.503  -4.431   6.481  0.00  0.00    +0.126 C 
ATOM     29  C   UNL     1      -4.660  -4.823   8.957  0.00  0.00    +0.220 C 
ATOM     30  O   UNL     1      -5.844  -4.891   9.210  0.00  0.00    -0.275 OA
BRANCH  29  31
ATOM     31  C   UNL     1      -3.695  -5.783   9.603  0.00  0.00    +0.138 C 
BRANCH  31  32
ATOM     32  C   UNL     1      -4.449  -6.718  10.513  0.00  0.00    -0.001 A 
ATOM     33  C   UNL     1      -5.005  -7.922  10.229  0.00  0.00    +0.011 A 
ATOM     34  C   UNL     1      -5.656  -8.613  11.233  0.00  0.00    +0.008 A 
ATOM     35  C   UNL     1      -5.721  -8.066  12.472  0.00  0.00    +0.045 A 
ATOM     36  S   UNL     1      -4.837  -6.532  12.245  0.00  0.00    -0.101 S 
ENDBRANCH  31  32
ENDBRANCH  29  31
ENDBRANCH  19  20
ENDBRANCH   1  19
TORSDOF 6
