REMARK  Name = ZINC36722589
REMARK  7 active torsions:
REMARK  status: ('A' for Active; 'I' for Inactive)
REMARK    1  A    between atoms: C_1  and  C_2
REMARK    2  A    between atoms: C_2  and  N_3
REMARK    3  A    between atoms: C_4  and  C_22
REMARK    4  A    between atoms: C_7  and  S_8
REMARK    5  A    between atoms: S_8  and  C_9
REMARK    6  A    between atoms: C_9  and  C_10
REMARK    7  A    between atoms: N_15  and  C_16
REMARK                            x       y       z     vdW  Elec       q    Type
REMARK                         _______ _______ _______ _____ _____    ______ ____
ROOT
ATOM      1  C   UNL     1      -2.783  -0.977  -3.624  0.00  0.00    +0.133 C 
ENDROOT
BRANCH   1   2
ATOM      2  C   UNL     1      -2.736  -0.958  -5.130  0.00  0.00    +0.061 A 
ATOM      3  C   UNL     1      -3.216   0.092  -5.839  0.00  0.00    +0.072 A 
ATOM      4  S   UNL     1      -2.889  -0.454  -7.507  0.00  0.00    -0.060 S 
ATOM      5  C   UNL     1      -2.187  -1.937  -7.133  0.00  0.00    +0.163 A 
ATOM      6  N   UNL     1      -2.219  -1.960  -5.817  0.00  0.00    -0.229 NA
ATOM      7  N   UNL     1      -1.690  -2.899  -8.000  0.00  0.00    -0.294 N 
ATOM      8  H   UNL     1      -1.387  -3.753  -7.655  0.00  0.00    +0.154 HD
BRANCH   7   9
ATOM      9  C   UNL     1      -1.627  -2.637  -9.372  0.00  0.00    +0.033 A 
ATOM     10  C   UNL     1      -1.357  -1.352  -9.823  0.00  0.00    +0.023 A 
ATOM     11  C   UNL     1      -1.295  -1.097 -11.179  0.00  0.00    +0.002 A 
ATOM     12  C   UNL     1      -1.503  -2.120 -12.087  0.00  0.00    +0.000 A 
ATOM     13  C   UNL     1      -1.772  -3.401 -11.640  0.00  0.00    +0.002 A 
ATOM     14  C   UNL     1      -1.829  -3.664 -10.286  0.00  0.00    +0.023 A 
ENDBRANCH   7   9
ENDBRANCH   1   2
BRANCH   1  15
ATOM     15  S   UNL     1      -1.266  -0.235  -2.962  0.00  0.00    -0.080 S 
BRANCH  15  20
ATOM     16  N   UNL     1      -0.586   0.102  -0.269  0.00  0.00    -0.300 N 
ATOM     17  C   UNL     1      -1.173  -0.176   0.946  0.00  0.00    +0.200 A 
ATOM     18  N   UNL     1      -2.332  -0.745   0.691  0.00  0.00    -0.125 NA
ATOM     19  N   UNL     1      -2.504  -0.839  -0.579  0.00  0.00    -0.122 NA
ATOM     20  C   UNL     1      -1.472  -0.332  -1.214  0.00  0.00    +0.192 A 
BRANCH  17  21
ATOM     21  C   UNL     1      -0.611   0.108   2.275  0.00  0.00    +0.172 A 
ATOM     22  C   UNL     1      -1.296   0.093   3.454  0.00  0.00    +0.053 A 
ATOM     23  C   UNL     1      -0.371   0.420   4.464  0.00  0.00    +0.042 A 
ATOM     24  C   UNL     1       0.819   0.616   3.862  0.00  0.00    +0.196 A 
ATOM     25  O   UNL     1       0.672   0.422   2.542  0.00  0.00    -0.460 OA
ENDBRANCH  17  21
BRANCH  16  27
ATOM     26  C   UNL     1       0.533   2.255  -0.581  0.00  0.00    +0.027 C 
ATOM     27  C   UNL     1       0.714   0.738  -0.499  0.00  0.00    +0.122 C 
ENDBRANCH  16  27
ENDBRANCH  15  20
ENDBRANCH   1  15
TORSDOF 6
