REMARK  Name = ZINC12883152
REMARK  6 active torsions:
REMARK  status: ('A' for Active; 'I' for Inactive)
REMARK    1  A    between atoms: C_1  and  C_2
REMARK    2  A    between atoms: C_13  and  C_15
REMARK    3  A    between atoms: C_15  and  C_17
REMARK    4  A    between atoms: C_15  and  O_18
REMARK    5  A    between atoms: N_21  and  C_24
REMARK    6  A    between atoms: C_24  and  C_25
REMARK                            x       y       z     vdW  Elec       q    Type
REMARK                         _______ _______ _______ _____ _____    ______ ____
ROOT
ATOM      1  C   UNL     1       2.536  -5.101  -3.451  0.00  0.00    +0.044 C 
ATOM      2  C   UNL     1       3.131  -3.718  -3.516  0.00  0.00    -0.050 A 
ATOM      3  C   UNL     1       4.409  -3.535  -4.013  0.00  0.00    +0.005 A 
ATOM      4  C   UNL     1       4.958  -2.272  -4.074  0.00  0.00    +0.024 A 
ATOM      5  C   UNL     1       4.230  -1.169  -3.636  0.00  0.00    +0.036 A 
ATOM      6  C   UNL     1       2.945  -1.365  -3.137  0.00  0.00    -0.027 A 
ATOM      7  C   UNL     1       2.401  -2.628  -3.078  0.00  0.00    +0.008 A 
ATOM      8  C   UNL     1       2.440  -0.002  -2.756  0.00  0.00    +0.050 C 
ATOM      9  C   UNL     1       1.158   0.356  -3.517  0.00  0.00    +0.088 C 
ATOM     10  C   UNL     1       0.010   0.034  -2.521  0.00  0.00    +0.075 C 
ATOM     11  C   UNL     1       0.718  -0.497  -1.257  0.00  0.00    -0.028 C 
ATOM     12  C   UNL     1      -0.602   1.383  -2.221  0.00  0.00    +0.224 C 
ATOM     13  O   UNL     1      -1.538   1.578  -1.475  0.00  0.00    -0.275 OA
ATOM     14  N   UNL     1       0.049   2.329  -2.908  0.00  0.00    -0.237 N 
ATOM     15  C   UNL     1       1.053   1.873  -3.665  0.00  0.00    +0.225 C 
ATOM     16  O   UNL     1       1.768   2.557  -4.367  0.00  0.00    -0.275 OA
ATOM     17  C   UNL     1       3.563   0.940  -3.094  0.00  0.00    +0.211 C 
ATOM     18  O   UNL     1       3.569   2.144  -2.944  0.00  0.00    -0.277 OA
ATOM     19  N   UNL     1       4.561   0.188  -3.597  0.00  0.00    -0.286 N 
ATOM     20  H   UNL     1       5.410   0.546  -3.898  0.00  0.00    +0.155 HD
ATOM     21  N   UNL     1       2.073   0.051  -1.351  0.00  0.00    +0.396 N 
ATOM     22  H   UNL     1       2.087   1.021  -1.016  0.00  0.00    -0.083 HD
ATOM     23  H   UNL     1       2.724  -0.514  -0.792  0.00  0.00    -0.083 HD
ENDROOT
BRANCH  11  24
ATOM     24  C   UNL     1       0.002  -0.004   0.002  0.00  0.00    +0.098 C 
ATOM     25  C   UNL     1      -1.389  -0.637   0.079  0.00  0.00    +0.036 C 
BRANCH  24  26
ATOM     26  O   UNL     1       0.759  -0.374   1.156  0.00  0.00    -0.394 OA
ATOM     27  H   UNL     1       0.885  -1.328   1.255  0.00  0.00    +0.210 HD
ENDBRANCH  24  26
ENDBRANCH  11  24
BRANCH  14  28
ATOM     28  C   UNL     1      -0.309   3.748  -2.836  0.00  0.00    +0.151 C 
BRANCH  28  29
ATOM     29  C   UNL     1       0.467   4.406  -1.724  0.00  0.00    -0.026 A 
ATOM     30  C   UNL     1      -0.062   4.452  -0.448  0.00  0.00    +0.009 A 
ATOM     31  C   UNL     1       0.647   5.050   0.577  0.00  0.00    +0.050 A 
ATOM     32  C   UNL     1       1.887   5.615   0.324  0.00  0.00    +0.166 A 
ATOM     33  C   UNL     1       2.417   5.574  -0.963  0.00  0.00    +0.167 A 
ATOM     34  C   UNL     1       1.703   4.968  -1.984  0.00  0.00    +0.054 A 
ATOM     35  O   UNL     1       3.634   6.192  -0.954  0.00  0.00    -0.453 OA
ATOM     36  C   UNL     1       4.025   6.250   0.431  0.00  0.00    +0.466 C 
ATOM     37  O   UNL     1       2.772   6.259   1.140  0.00  0.00    -0.453 OA
ENDBRANCH  28  29
ENDBRANCH  14  28
TORSDOF 4
