REMARK  Name = ZINC09884866
REMARK  10 active torsions:
REMARK  status: ('A' for Active; 'I' for Inactive)
REMARK    1  A    between atoms: C_1  and  C_2
REMARK    2  A    between atoms: C_2  and  C_3
REMARK    3  A    between atoms: C_2  and  C_4
REMARK    4  A    between atoms: C_7  and  C_10
REMARK    5  A    between atoms: C_13  and  C_15
REMARK    6  A    between atoms: N_19  and  C_23
REMARK    7  A    between atoms: C_23  and  C_25
REMARK    8  A    between atoms: C_23  and  C_29
REMARK    9  A    between atoms: C_25  and  C_26
REMARK   10  A    between atoms: C_26  and  C_27
REMARK                            x       y       z     vdW  Elec       q    Type
REMARK                         _______ _______ _______ _____ _____    ______ ____
ROOT
ATOM      1  C   UNL     1       4.508  -1.852  -0.048  0.00  0.00    +0.066 C 
ATOM      2  C   UNL     1       3.697  -2.945   0.058  0.00  0.00    +0.080 C 
ATOM      3  C   UNL     1       2.228  -3.023   0.099  0.00  0.00    +0.259 C 
ATOM      4  O   UNL     1       1.533  -2.024   0.037  0.00  0.00    -0.269 OA
ATOM      5  N   UNL     1       1.698  -4.230   0.202  0.00  0.00    -0.241 N 
ATOM      6  C   UNL     1       2.471  -5.333   0.278  0.00  0.00    +0.121 C 
ATOM      7  S   UNL     1       1.981  -6.967   0.422  0.00  0.00    -0.027 S 
ATOM      8  S   UNL     1       4.128  -4.675   0.192  0.00  0.00    -0.061 S 
ENDROOT
BRANCH   1  12
ATOM      9  C   UNL     1       2.479   1.012  -0.668  0.00  0.00    +0.136 A 
ATOM     10  C   UNL     1       3.700   1.619  -0.590  0.00  0.00    +0.050 A 
ATOM     11  C   UNL     1       4.643   0.617  -0.344  0.00  0.00    +0.050 A 
ATOM     12  C   UNL     1       3.948  -0.578  -0.280  0.00  0.00    +0.130 A 
ATOM     13  O   UNL     1       2.639  -0.310  -0.475  0.00  0.00    -0.455 OA
BRANCH   9  17
ATOM     14  C   UNL     1      -1.217   2.976  -1.383  0.00  0.00    -0.045 A 
ATOM     15  C   UNL     1      -1.188   1.603  -1.212  0.00  0.00    +0.004 A 
ATOM     16  C   UNL     1       0.008   0.959  -0.974  0.00  0.00    +0.012 A 
ATOM     17  C   UNL     1       1.194   1.695  -0.917  0.00  0.00    +0.017 A 
ATOM     18  C   UNL     1       1.159   3.080  -1.096  0.00  0.00    +0.012 A 
ATOM     19  C   UNL     1      -0.045   3.711  -1.327  0.00  0.00    +0.004 A 
BRANCH  14  21
ATOM     20  C   UNL     1      -3.160   3.120  -2.917  0.00  0.00    +0.012 C 
ATOM     21  C   UNL     1      -2.528   3.673  -1.637  0.00  0.00    +0.013 C 
ATOM     22  C   UNL     1      -3.472   3.431  -0.458  0.00  0.00    +0.012 C 
ENDBRANCH  14  21
ENDBRANCH   9  17
ENDBRANCH   1  12
BRANCH   5  23
ATOM     23  C   UNL     1       0.241  -4.372   0.243  0.00  0.00    +0.196 C 
BRANCH  23  24
ATOM     24  C   UNL     1      -0.213  -5.226  -0.913  0.00  0.00    +0.376 C 
ATOM     25  O   UNL     1       0.598  -5.670  -1.691  0.00  0.00    -0.244 OA
ATOM     26  O   UNL     1      -1.518  -5.493  -1.079  0.00  0.00    -0.244 OA
ENDBRANCH  23  24
BRANCH  23  27
ATOM     27  C   UNL     1      -0.171  -5.035   1.559  0.00  0.00    +0.046 C 
BRANCH  27  28
ATOM     28  C   UNL     1       0.178  -4.110   2.727  0.00  0.00    +0.127 C 
BRANCH  28  29
ATOM     29  C   UNL     1      -0.227  -4.763   4.023  0.00  0.00    +0.356 C 
ATOM     30  O   UNL     1      -0.742  -5.856   4.014  0.00  0.00    -0.246 OA
ATOM     31  O   UNL     1      -0.016  -4.130   5.188  0.00  0.00    -0.246 OA
ENDBRANCH  28  29
ENDBRANCH  27  28
ENDBRANCH  23  27
ENDBRANCH   5  23
TORSDOF 8
