REMARK  Name = ZINC08717304
REMARK  11 active torsions:
REMARK  status: ('A' for Active; 'I' for Inactive)
REMARK    1  A    between atoms: C_1  and  C_2
REMARK    2  A    between atoms: C_2  and  C_3
REMARK    3  A    between atoms: C_3  and  O_4
REMARK    4  A    between atoms: O_4  and  C_5
REMARK    5  A    between atoms: C_5  and  C_7
REMARK    6  A    between atoms: C_8  and  C_28
REMARK    7  A    between atoms: C_15  and  C_17
REMARK    8  A    between atoms: C_19  and  O_26
REMARK    9  A    between atoms: C_20  and  O_24
REMARK   10  A    between atoms: O_24  and  C_25
REMARK   11  A    between atoms: O_26  and  C_27
REMARK                            x       y       z     vdW  Elec       q    Type
REMARK                         _______ _______ _______ _____ _____    ______ ____
ROOT
ATOM      1  C   UNL     1       1.273  -3.979   2.451  0.00  0.00    +0.082 C 
ATOM      2  C   UNL     1       2.143  -4.533   3.309  0.00  0.00    +0.020 C 
ATOM      3  N   UNL     1       2.427  -5.876   3.299  0.00  0.00    -0.287 N 
ATOM      4  C   UNL     1       1.990  -6.613   2.206  0.00  0.00    +0.218 A 
ATOM      5  N   UNL     1       2.298  -7.824   1.830  0.00  0.00    -0.201 NA
ATOM      6  C   UNL     1       1.639  -8.124   0.707  0.00  0.00    +0.247 A 
ATOM      7  N   UNL     1       0.898  -7.102   0.355  0.00  0.00    -0.156 NA
ATOM      8  N   UNL     1       1.104  -6.109   1.311  0.00  0.00    -0.221 N 
ATOM      9  C   UNL     1       0.520  -4.773   1.417  0.00  0.00    +0.179 C 
ATOM     10  C   UNL     1       2.831  -3.651   4.319  0.00  0.00    +0.061 C 
ATOM     11  H   UNL     1       2.914  -6.294   4.026  0.00  0.00    +0.155 HD
ENDROOT
BRANCH   9  12
ATOM     12  C   UNL     1      -0.927  -4.883   1.823  0.00  0.00    -0.014 A 
ATOM     13  C   UNL     1      -1.915  -4.383   0.994  0.00  0.00    +0.055 A 
ATOM     14  C   UNL     1      -3.246  -4.483   1.366  0.00  0.00    +0.163 A 
ATOM     15  C   UNL     1      -3.586  -5.086   2.573  0.00  0.00    +0.175 A 
ATOM     16  C   UNL     1      -2.590  -5.585   3.398  0.00  0.00    +0.063 A 
ATOM     17  C   UNL     1      -1.263  -5.487   3.019  0.00  0.00    +0.025 A 
ATOM     18 BR   UNL     1      -3.046  -6.406   5.040  0.00  0.00    -0.046 Br
BRANCH  15  19
ATOM     19  O   UNL     1      -4.891  -5.186   2.942  0.00  0.00    -0.490 OA
ATOM     20  C   UNL     1      -5.593  -6.361   2.532  0.00  0.00    +0.277 C 
ENDBRANCH  15  19
BRANCH  14  21
ATOM     21  O   UNL     1      -4.219  -3.991   0.552  0.00  0.00    -0.491 OA
ATOM     22  C   UNL     1      -3.797  -3.385  -0.671  0.00  0.00    +0.277 C 
ENDBRANCH  14  21
ENDBRANCH   9  12
BRANCH   1  23
ATOM     23  C   UNL     1       1.049  -2.586   2.524  0.00  0.00    +0.339 C 
ATOM     24  O   UNL     1       1.520  -1.849   1.678  0.00  0.00    -0.245 OA
BRANCH  23  25
ATOM     25  O   UNL     1       0.314  -2.073   3.533  0.00  0.00    -0.461 OA
BRANCH  25  26
ATOM     26  C   UNL     1       0.128  -0.657   3.545  0.00  0.00    +0.232 C 
BRANCH  26  28
ATOM     27  C   UNL     1      -0.924   1.253   4.766  0.00  0.00    +0.007 C 
ATOM     28  C   UNL     1      -0.725  -0.264   4.753  0.00  0.00    +0.038 C 
ENDBRANCH  26  28
ENDBRANCH  25  26
ENDBRANCH  23  25
ENDBRANCH   1  23
TORSDOF 7
