REMARK  Name = ZINC15477169
REMARK  8 active torsions:
REMARK  status: ('A' for Active; 'I' for Inactive)
REMARK    1  A    between atoms: C_3  and  C_6
REMARK    2  A    between atoms: C_6  and  C_8
REMARK    3  A    between atoms: C_6  and  N_64
REMARK    4  A    between atoms: C_8  and  N_9
REMARK    5  A    between atoms: C_10  and  C_12
REMARK    6  A    between atoms: N_15  and  C_18
REMARK    7  A    between atoms: C_21  and  C_27
REMARK    8  A    between atoms: C_23  and  N_24
REMARK                            x       y       z     vdW  Elec       q    Type
REMARK                         _______ _______ _______ _____ _____    ______ ____
ROOT
ATOM      1  C   UNL     1       4.179  -1.132  -0.111  0.00  0.00    +0.078 C 
ATOM      2  C   UNL     1       3.948  -0.347   1.183  0.00  0.00    +0.031 C 
ATOM      3  C   UNL     1       2.571   0.319   1.131  0.00  0.00    +0.106 C 
ATOM      4  N   UNL     1       2.504   1.219  -0.027  0.00  0.00    -0.328 N 
ATOM      5  C   UNL     1       2.676   0.480  -1.284  0.00  0.00    +0.106 C 
ATOM      6  C   UNL     1       4.056  -0.180  -1.305  0.00  0.00    +0.031 C 
ENDROOT
BRANCH   4   7
ATOM      7  C   UNL     1       1.309   1.942  -0.031  0.00  0.00    +0.060 A 
ATOM      8  C   UNL     1       0.092   1.275  -0.084  0.00  0.00    +0.026 A 
ATOM      9  C   UNL     1      -1.088   1.993  -0.093  0.00  0.00    +0.014 A 
ATOM     10  C   UNL     1      -1.058   3.374  -0.037  0.00  0.00    +0.057 A 
ATOM     11  C   UNL     1       0.151   4.042   0.016  0.00  0.00    +0.047 A 
ATOM     12  C   UNL     1       1.335   3.330   0.019  0.00  0.00    +0.148 A 
BRANCH  10  13
ATOM     13  C   UNL     1      -2.348   4.155  -0.041  0.00  0.00    +0.417 C 
ATOM     14  F   UNL     1      -2.715   4.443  -1.360  0.00  0.00    -0.166 F 
ATOM     15  F   UNL     1      -3.354   3.396   0.568  0.00  0.00    -0.166 F 
ATOM     16  F   UNL     1      -2.172   5.349   0.666  0.00  0.00    -0.166 F 
ENDBRANCH  10  13
BRANCH  12  17
ATOM     17  N   UNL     1       2.630   4.045   0.077  0.00  0.00    +0.058 N 
ATOM     18  O   UNL     1       2.651   5.262   0.121  0.00  0.00    -0.126 OA
ATOM     19  O   UNL     1       3.673   3.417   0.081  0.00  0.00    -0.126 OA
ENDBRANCH  12  17
ENDBRANCH   4   7
BRANCH   1  21
ATOM     20  N   UNL     1       5.982  -2.480  -1.135  0.00  0.00    -0.316 N 
ATOM     21  C   UNL     1       5.558  -1.740  -0.092  0.00  0.00    +0.216 C 
ATOM     22  O   UNL     1       6.285  -1.564   0.863  0.00  0.00    -0.276 OA
ATOM     23  H   UNL     1       5.401  -2.621  -1.899  0.00  0.00    +0.149 HD
BRANCH  20  24
ATOM     24  C   UNL     1       7.323  -3.071  -1.116  0.00  0.00    +0.096 C 
BRANCH  24  25
ATOM     25  C   UNL     1       7.553  -3.855  -2.410  0.00  0.00    +0.016 C 
BRANCH  25  31
ATOM     26  C   UNL     1       6.398  -5.740  -1.421  0.00  0.00    -0.078 C 
ATOM     27  C   UNL     1       5.182  -6.657  -1.567  0.00  0.00    -0.019 C 
ATOM     28  C   UNL     1       5.316  -7.472  -2.857  0.00  0.00    -0.004 C 
ATOM     29  C   UNL     1       5.446  -6.514  -4.044  0.00  0.00    -0.019 C 
ATOM     30  C   UNL     1       6.654  -5.601  -3.827  0.00  0.00    -0.078 C 
ATOM     31  N   UNL     1       6.453  -4.827  -2.583  0.00  0.00    +0.387 N 
ATOM     32  H   UNL     1       5.564  -4.317  -2.648  0.00  0.00    -0.081 HD
ENDBRANCH  25  31
BRANCH  25  35
ATOM     33  C   UNL     1      10.992  -5.155  -2.656  0.00  0.00    +0.041 A 
ATOM     34  C   UNL     1       9.988  -4.230  -3.024  0.00  0.00    +0.043 A 
ATOM     35  C   UNL     1       8.880  -4.564  -2.338  0.00  0.00    +0.093 A 
ATOM     36  O   UNL     1       9.160  -5.633  -1.575  0.00  0.00    -0.469 OA
ATOM     37  C   UNL     1      10.438  -6.000  -1.768  0.00  0.00    +0.195 A 
ENDBRANCH  25  35
ENDBRANCH  24  25
ENDBRANCH  20  24
ENDBRANCH   1  21
TORSDOF 8
