REMARK  Name = ZINC22735114
REMARK  10 active torsions:
REMARK  status: ('A' for Active; 'I' for Inactive)
REMARK    1  A    between atoms: C_1  and  N_2
REMARK    2  A    between atoms: N_5  and  C_8
REMARK    3  A    between atoms: C_8  and  C_10
REMARK    4  A    between atoms: C_8  and  C_25
REMARK    5  A    between atoms: C_10  and  N_11
REMARK    6  A    between atoms: C_12  and  C_14
REMARK    7  A    between atoms: N_16  and  C_17
REMARK    8  A    between atoms: C_17  and  C_18
REMARK    9  A    between atoms: C_18  and  C_19
REMARK   10  A    between atoms: N_34  and  C_35
REMARK                            x       y       z     vdW  Elec       q    Type
REMARK                         _______ _______ _______ _____ _____    ______ ____
ROOT
ATOM      1  C   UNL     1       3.580  -1.865   4.163  0.00  0.00    +0.104 C 
ENDROOT
BRANCH   1   2
ATOM      2  C   UNL     1       2.568  -1.546   3.092  0.00  0.00    -0.028 A 
ATOM      3  C   UNL     1       1.890  -2.568   2.453  0.00  0.00    +0.007 A 
ATOM      4  C   UNL     1       0.967  -2.274   1.473  0.00  0.00    +0.024 A 
ATOM      5  C   UNL     1       0.711  -0.948   1.118  0.00  0.00    +0.033 A 
ATOM      6  C   UNL     1       1.389   0.071   1.765  0.00  0.00    -0.026 A 
ATOM      7  C   UNL     1       2.318  -0.233   2.748  0.00  0.00    +0.010 A 
ATOM      8  C   UNL     1       1.146   1.524   1.441  0.00  0.00    +0.038 C 
ATOM      9  C   UNL     1       0.403   1.637   0.108  0.00  0.00    +0.024 C 
ATOM     10  C   UNL     1      -0.767   0.645   0.134  0.00  0.00    +0.105 C 
ATOM     11  N   UNL     1      -0.228  -0.716   0.115  0.00  0.00    -0.333 N 
ATOM     12  C   UNL     1      -1.308  -1.710   0.165  0.00  0.00    +0.129 C 
ENDBRANCH   1   2
BRANCH   1  17
ATOM     13  C   UNL     1       3.459  -6.885   6.751  0.00  0.00    -0.096 C 
ATOM     14  N   UNL     1       3.801  -5.602   6.121  0.00  0.00    +0.379 N 
ATOM     15  C   UNL     1       3.408  -5.589   4.705  0.00  0.00    -0.064 C 
ATOM     16  C   UNL     1       3.851  -4.270   4.068  0.00  0.00    +0.066 C 
ATOM     17  N   UNL     1       3.238  -3.148   4.792  0.00  0.00    -0.297 NA
ATOM     18  C   UNL     1       3.631  -3.161   6.208  0.00  0.00    +0.066 C 
ATOM     19  C   UNL     1       3.187  -4.480   6.846  0.00  0.00    -0.064 C 
ATOM     20  H   UNL     1       4.893  -5.482   6.172  0.00  0.00    -0.082 HD
ENDBRANCH   1  17
BRANCH   1  21
ATOM     21  C   UNL     1       4.973  -1.960   3.537  0.00  0.00    +0.128 C 
BRANCH  21  22
ATOM     22  N   UNL     1       5.974  -2.117   4.595  0.00  0.00    -0.306 N 
ATOM     23  C   UNL     1       7.259  -2.365   4.275  0.00  0.00    +0.299 C 
ATOM     24  O   UNL     1       7.587  -2.458   3.110  0.00  0.00    -0.265 OA
ATOM     25  H   UNL     1       5.676  -2.033   5.651  0.00  0.00    +0.149 HD
BRANCH  23  26
ATOM     26  C   UNL     1       8.280  -2.526   5.354  0.00  0.00    +0.299 C 
ATOM     27  O   UNL     1       7.952  -2.432   6.519  0.00  0.00    -0.265 OA
ATOM     28  N   UNL     1       9.566  -2.773   5.034  0.00  0.00    -0.307 N 
ATOM     29  H   UNL     1       9.863  -2.858   3.978  0.00  0.00    +0.149 HD
BRANCH  28  30
ATOM     30  C   UNL     1      10.567  -2.931   6.092  0.00  0.00    +0.109 C 
BRANCH  30  31
ATOM     31  C   UNL     1      11.935  -3.203   5.463  0.00  0.00    +0.049 C 
BRANCH  31  32
ATOM     32  C   UNL     1      12.965  -3.365   6.551  0.00  0.00    -0.072 C 
ATOM     33  C   UNL     1      13.242  -4.564   6.952  0.00  0.00    -0.028 C 
ATOM     34  C   UNL     1      14.235  -4.882   8.031  0.00  0.00    +0.027 C 
ATOM     35  C   UNL     1      15.151  -3.681   8.275  0.00  0.00    +0.004 C 
ATOM     36  C   UNL     1      14.278  -2.431   8.444  0.00  0.00    +0.005 C 
ATOM     37  C   UNL     1      13.610  -2.126   7.100  0.00  0.00    +0.030 C 
ENDBRANCH  31  32
ENDBRANCH  30  31
ENDBRANCH  28  30
ENDBRANCH  23  26
ENDBRANCH  21  22
ENDBRANCH   1  21
TORSDOF 8
