REMARK  Name = ZINC12467566
REMARK  5 active torsions:
REMARK  status: ('A' for Active; 'I' for Inactive)
REMARK    1  A    between atoms: C_1  and  C_2
REMARK    2  A    between atoms: C_2  and  C_20
REMARK    3  A    between atoms: N_3  and  N_4
REMARK    4  A    between atoms: C_5  and  C_7
REMARK    5  A    between atoms: C_9  and  C_13
REMARK                            x       y       z     vdW  Elec       q    Type
REMARK                         _______ _______ _______ _____ _____    ______ ____
ROOT
ATOM      1  C   UNL     1      -1.123   1.899   0.017  0.00  0.00    +0.122 A 
ATOM      2  C   UNL     1      -0.013   1.076   0.008  0.00  0.00    +0.062 A 
ATOM      3  C   UNL     1       1.094   1.944   0.002  0.00  0.00    +0.093 A 
ATOM      4  N   UNL     1       0.632   3.177   0.012  0.00  0.00    -0.173 NA
ATOM      5  N   UNL     1      -0.652   3.183   0.024  0.00  0.00    -0.272 N 
ATOM      6  H   UNL     1      -1.223   4.004   0.037  0.00  0.00    +0.189 HD
ENDROOT
BRANCH   3   7
ATOM      7  C   UNL     1       2.523   1.544  -0.013  0.00  0.00    +0.002 A 
ATOM      8  C   UNL     1       2.871   0.195  -0.018  0.00  0.00    +0.011 A 
ATOM      9  C   UNL     1       4.201  -0.173  -0.037  0.00  0.00    +0.020 A 
ATOM     10  C   UNL     1       5.189   0.797  -0.041  0.00  0.00    +0.041 A 
ATOM     11  C   UNL     1       4.849   2.139  -0.032  0.00  0.00    +0.020 A 
ATOM     12  C   UNL     1       3.521   2.516  -0.018  0.00  0.00    +0.011 A 
ATOM     13 CL   UNL     1       6.861   0.328  -0.058  0.00  0.00    -0.084 Cl
ENDBRANCH   3   7
BRANCH   1  15
ATOM     14  N   UNL     1      -3.512   2.403   0.030  0.00  0.00    -0.201 N 
ATOM     15  C   UNL     1      -2.532   1.478   0.021  0.00  0.00    +0.281 C 
ATOM     16  O   UNL     1      -2.813   0.294   0.016  0.00  0.00    -0.267 OA
ATOM     17  H   UNL     1      -3.288   3.347   0.034  0.00  0.00    +0.178 HD
BRANCH  14  20
ATOM     18  C   UNL     1      -5.452   4.361   0.048  0.00  0.00    +0.068 C 
ATOM     19  C   UNL     1      -5.801   2.895   0.042  0.00  0.00    +0.070 C 
ATOM     20  N   UNL     1      -4.854   2.002   0.034  0.00  0.00    -0.184 NA
BRANCH  19  21
ATOM     21  C   UNL     1      -7.205   2.474   0.046  0.00  0.00    +0.035 A 
ATOM     22  C   UNL     1      -7.734   1.195   0.042  0.00  0.00    +0.017 A 
ATOM     23  C   UNL     1      -9.102   1.053   0.048  0.00  0.00    +0.008 A 
ATOM     24  C   UNL     1      -9.886   2.163   0.058  0.00  0.00    +0.046 A 
ATOM     25  S   UNL     1      -8.681   3.480   0.066  0.00  0.00    -0.095 S 
ENDBRANCH  19  21
ENDBRANCH  14  20
ENDBRANCH   1  15
TORSDOF 4
