REMARK  Name = ZINC09254124
REMARK  10 active torsions:
REMARK  status: ('A' for Active; 'I' for Inactive)
REMARK    1  A    between atoms: C_1  and  C_2
REMARK    2  A    between atoms: C_2  and  O_3
REMARK    3  A    between atoms: O_3  and  C_4
REMARK    4  A    between atoms: C_4  and  C_6
REMARK    5  A    between atoms: C_7  and  C_33
REMARK    6  A    between atoms: C_9  and  O_21
REMARK    7  A    between atoms: C_11  and  C_15
REMARK    8  A    between atoms: C_15  and  N_61
REMARK    9  A    between atoms: O_21  and  C_22
REMARK   10  A    between atoms: C_25  and  N_28
REMARK                            x       y       z     vdW  Elec       q    Type
REMARK                         _______ _______ _______ _____ _____    ______ ____
ROOT
ATOM      1  C   UNL     1       3.405  -2.139  -0.048  0.00  0.00    +0.102 A 
ATOM      2  C   UNL     1       3.536  -0.783  -0.036  0.00  0.00    -0.015 A 
ATOM      3  C   UNL     1       2.393   0.028  -0.058  0.00  0.00    +0.073 A 
ATOM      4  C   UNL     1       2.296   1.450  -0.051  0.00  0.00    +0.232 A 
ATOM      5  N   UNL     1       1.103   2.014  -0.076  0.00  0.00    -0.199 NA
ATOM      6  C   UNL     1      -0.013   1.307  -0.108  0.00  0.00    +0.118 A 
ATOM      7  N   UNL     1       0.009  -0.012  -0.116  0.00  0.00    -0.227 NA
ATOM      8  C   UNL     1       1.155  -0.660  -0.093  0.00  0.00    +0.116 A 
ATOM      9  S   UNL     1       1.635  -2.368  -0.093  0.00  0.00    -0.062 S 
ATOM     10  C   UNL     1       4.906  -0.158   0.002  0.00  0.00    +0.046 C 
ENDROOT
BRANCH   1  11
ATOM     11  C   UNL     1       4.458  -3.159  -0.028  0.00  0.00    +0.346 C 
ATOM     12  O   UNL     1       5.627  -2.826   0.003  0.00  0.00    -0.244 OA
BRANCH  11  13
ATOM     13  O   UNL     1       4.130  -4.468  -0.044  0.00  0.00    -0.461 OA
BRANCH  13  15
ATOM     14  C   UNL     1       4.661  -6.844  -0.046  0.00  0.00    +0.048 C 
ATOM     15  C   UNL     1       5.224  -5.422  -0.023  0.00  0.00    +0.229 C 
ENDBRANCH  13  15
ENDBRANCH  11  13
ENDBRANCH   1  11
BRANCH   6  16
ATOM     16  C   UNL     1      -1.338   2.023  -0.142  0.00  0.00    -0.001 C 
BRANCH  16  22
ATOM     17  C   UNL     1      -2.111   0.973   1.898  0.00  0.00    -0.078 C 
ATOM     18  C   UNL     1      -2.457   1.233   3.366  0.00  0.00    -0.019 C 
ATOM     19  C   UNL     1      -3.667   2.169   3.442  0.00  0.00    -0.004 C 
ATOM     20  C   UNL     1      -3.344   3.468   2.699  0.00  0.00    -0.019 C 
ATOM     21  C   UNL     1      -2.972   3.143   1.250  0.00  0.00    -0.078 C 
ATOM     22  N   UNL     1      -1.787   2.259   1.246  0.00  0.00    +0.384 N 
ATOM     23  H   UNL     1      -1.029   2.715   1.768  0.00  0.00    -0.081 HD
ENDBRANCH  16  22
ENDBRANCH   6  16
BRANCH   4  24
ATOM     24  O   UNL     1       3.414   2.212  -0.019  0.00  0.00    -0.437 OA
BRANCH  24  25
ATOM     25  C   UNL     1       3.270   3.560  -0.116  0.00  0.00    +0.131 A 
ATOM     26  C   UNL     1       3.557   4.205  -1.310  0.00  0.00    +0.048 A 
ATOM     27  C   UNL     1       3.406   5.574  -1.410  0.00  0.00    +0.030 A 
ATOM     28  C   UNL     1       2.978   6.306  -0.311  0.00  0.00    +0.048 A 
ATOM     29  C   UNL     1       2.696   5.662   0.885  0.00  0.00    +0.030 A 
ATOM     30  C   UNL     1       2.841   4.292   0.983  0.00  0.00    +0.048 A 
BRANCH  28  31
ATOM     31  N   UNL     1       2.830   7.698  -0.411  0.00  0.00    -0.306 N 
ATOM     32  C   UNL     1       3.075   8.467  -1.519  0.00  0.00    +0.112 A 
ATOM     33  C   UNL     1       2.803   9.741  -1.178  0.00  0.00    +0.130 A 
ATOM     34  N   UNL     1       2.411   9.757   0.104  0.00  0.00    -0.244 NA
ATOM     35  C   UNL     1       2.423   8.539   0.575  0.00  0.00    +0.204 A 
ENDBRANCH  28  31
ENDBRANCH  24  25
ENDBRANCH   4  24
TORSDOF 8
