REMARK  Name = ZINC22375091
REMARK  12 active torsions:
REMARK  status: ('A' for Active; 'I' for Inactive)
REMARK    1  A    between atoms: C_1  and  C_2
REMARK    2  A    between atoms: C_5  and  N_33
REMARK    3  A    between atoms: C_7  and  N_8
REMARK    4  A    between atoms: N_8  and  C_9
REMARK    5  A    between atoms: N_8  and  S_29
REMARK    6  A    between atoms: C_9  and  C_10
REMARK    7  A    between atoms: N_12  and  C_13
REMARK    8  A    between atoms: C_13  and  C_15
REMARK    9  A    between atoms: C_13  and  C_16
REMARK   10  A    between atoms: C_19  and  N_22
REMARK   11  A    between atoms: C_25  and  C_28
REMARK   12  A    between atoms: S_29  and  C_32
REMARK                            x       y       z     vdW  Elec       q    Type
REMARK                         _______ _______ _______ _____ _____    ______ ____
ROOT
ATOM      1  C   UNL     1       4.342   0.367  -2.474  0.00  0.00    +0.233 C 
ATOM      2  O   UNL     1       4.571  -0.753  -2.067  0.00  0.00    -0.274 OA
ATOM      3  N   UNL     1       3.106   0.890  -2.348  0.00  0.00    -0.307 N 
ATOM      4  H   UNL     1       2.898   1.905  -2.716  0.00  0.00    +0.149 HD
ENDROOT
BRANCH   3   5
ATOM      5  C   UNL     1       2.039   0.106  -1.720  0.00  0.00    +0.100 C 
ATOM      6  C   UNL     1       2.107   0.277  -0.201  0.00  0.00    +0.033 C 
BRANCH   5   7
ATOM      7  C   UNL     1       0.702   0.587  -2.220  0.00  0.00    -0.027 A 
ATOM      8  C   UNL     1      -0.298  -0.326  -2.502  0.00  0.00    +0.007 A 
ATOM      9  C   UNL     1      -1.524   0.111  -2.966  0.00  0.00    +0.023 A 
ATOM     10  C   UNL     1      -1.755   1.470  -3.138  0.00  0.00    +0.030 A 
ATOM     11  C   UNL     1      -0.748   2.384  -2.854  0.00  0.00    +0.023 A 
ATOM     12  C   UNL     1       0.476   1.940  -2.396  0.00  0.00    +0.007 A 
BRANCH  10  13
ATOM     13  N   UNL     1      -2.995   1.915  -3.602  0.00  0.00    -0.330 N 
ATOM     14  C   UNL     1      -3.584   2.889  -2.674  0.00  0.00    +0.105 C 
ATOM     15  C   UNL     1      -4.867   3.462  -3.282  0.00  0.00    +0.022 C 
ATOM     16  C   UNL     1      -5.853   2.322  -3.550  0.00  0.00    -0.011 C 
ATOM     17  C   UNL     1      -5.197   1.298  -4.479  0.00  0.00    +0.022 C 
ATOM     18  C   UNL     1      -3.905   0.787  -3.837  0.00  0.00    +0.105 C 
ATOM     19  C   UNL     1      -7.113   2.881  -4.213  0.00  0.00    +0.007 C 
ENDBRANCH  10  13
ENDBRANCH   5   7
ENDBRANCH   3   5
BRANCH   1  20
ATOM     20  C   UNL     1       5.439   1.173  -3.120  0.00  0.00    +0.226 C 
BRANCH  20  21
ATOM     21  N   UNL     1       6.695   0.422  -3.062  0.00  0.00    -0.198 N 
BRANCH  21  28
ATOM     22  C   UNL     1       8.290   1.290  -5.252  0.00  0.00    +0.046 C 
ATOM     23  C   UNL     1       7.778  -0.124  -5.148  0.00  0.00    -0.028 A 
ATOM     24  C   UNL     1       8.080  -1.042  -6.135  0.00  0.00    +0.007 A 
ATOM     25  C   UNL     1       7.610  -2.339  -6.041  0.00  0.00    +0.033 A 
ATOM     26  C   UNL     1       6.837  -2.721  -4.960  0.00  0.00    +0.128 A 
ATOM     27  C   UNL     1       6.537  -1.810  -3.967  0.00  0.00    +0.057 A 
ATOM     28  C   UNL     1       7.002  -0.504  -4.061  0.00  0.00    +0.056 A 
BRANCH  26  29
ATOM     29  N   UNL     1       6.337  -4.111  -4.864  0.00  0.00    +0.056 N 
ATOM     30  O   UNL     1       6.606  -4.917  -5.736  0.00  0.00    -0.126 OA
ATOM     31  O   UNL     1       5.656  -4.449  -3.912  0.00  0.00    -0.126 OA
ENDBRANCH  26  29
ENDBRANCH  21  28
BRANCH  21  32
ATOM     32  S   UNL     1       7.752   0.671  -1.811  0.00  0.00    +0.043 S 
ATOM     33  O   UNL     1       9.019   0.281  -2.323  0.00  0.00    -0.155 OA
ATOM     34  O   UNL     1       7.518   2.011  -1.401  0.00  0.00    -0.155 OA
ATOM     35  C   UNL     1       7.220  -0.481  -0.515  0.00  0.00    +0.218 C 
ENDBRANCH  21  32
ENDBRANCH  20  21
ENDBRANCH   1  20
TORSDOF 8
