REMARK  Name = ZINC20558430
REMARK  7 active torsions:
REMARK  status: ('A' for Active; 'I' for Inactive)
REMARK    1  A    between atoms: C_1  and  O_2
REMARK    2  A    between atoms: O_2  and  C_3
REMARK    3  A    between atoms: C_8  and  C_9
REMARK    4  A    between atoms: C_11  and  C_35
REMARK    5  A    between atoms: C_12  and  N_34
REMARK    6  A    between atoms: N_19  and  C_26
REMARK    7  A    between atoms: C_26  and  C_27
REMARK                            x       y       z     vdW  Elec       q    Type
REMARK                         _______ _______ _______ _____ _____    ______ ____
ROOT
ATOM      1  C   UNL     1       1.149   3.593   0.010  0.00  0.00    +0.121 C 
ATOM      2  C   UNL     1       0.427   4.088  -1.214  0.00  0.00    +0.099 C 
ATOM      3  C   UNL     1      -0.846   4.540  -1.123  0.00  0.00    +0.199 C 
ATOM      4  O   UNL     1      -1.496   4.555   0.052  0.00  0.00    -0.439 OA
ATOM      5  C   UNL     1      -0.802   4.521   1.222  0.00  0.00    +0.162 C 
ATOM      6  C   UNL     1       0.450   4.075   1.251  0.00  0.00    +0.141 C 
ATOM      7  S   UNL     1       1.312   4.053   2.796  0.00  0.00    +0.076 S 
ATOM      8  O   UNL     1       1.013   2.813   3.421  0.00  0.00    -0.150 OA
ATOM      9  O   UNL     1       2.641   4.484   2.536  0.00  0.00    -0.150 OA
ATOM     10  N   UNL     1       0.582   5.244   3.703  0.00  0.00    -0.198 N 
ATOM     11  C   UNL     1      -0.812   5.344   3.616  0.00  0.00    +0.062 A 
ATOM     12  C   UNL     1      -1.489   4.994   2.447  0.00  0.00    +0.042 A 
ATOM     13  C   UNL     1      -2.885   5.101   2.414  0.00  0.00    +0.013 A 
ATOM     14  C   UNL     1      -3.574   5.550   3.519  0.00  0.00    +0.001 A 
ATOM     15  C   UNL     1      -2.894   5.900   4.673  0.00  0.00    +0.002 A 
ATOM     16  C   UNL     1      -1.518   5.798   4.723  0.00  0.00    +0.025 A 
ENDROOT
BRANCH   1  22
ATOM     17  C   UNL     1       2.380   1.409  -0.013  0.00  0.00    +0.124 A 
ATOM     18  C   UNL     1       2.396   0.022  -0.021  0.00  0.00    +0.046 A 
ATOM     19  C   UNL     1       1.208  -0.681  -0.013  0.00  0.00    +0.004 A 
ATOM     20  C   UNL     1       0.002  -0.004   0.002  0.00  0.00    +0.001 A 
ATOM     21  C   UNL     1      -0.017   1.378   0.010  0.00  0.00    +0.008 A 
ATOM     22  C   UNL     1       1.170   2.086   0.002  0.00  0.00    +0.008 A 
BRANCH  17  24
ATOM     23  C   UNL     1       4.756   1.341  -0.038  0.00  0.00    +0.277 C 
ATOM     24  O   UNL     1       3.548   2.104  -0.022  0.00  0.00    -0.495 OA
ENDBRANCH  17  24
ENDBRANCH   1  22
BRANCH   3  25
ATOM     25  N   UNL     1      -1.485   4.990  -2.251  0.00  0.00    -0.328 N 
ATOM     26  H   UNL     1      -2.519   5.359  -2.187  0.00  0.00    +0.145 HD
ATOM     27  H   UNL     1      -0.962   4.982  -3.219  0.00  0.00    +0.145 HD
ENDBRANCH   3  25
BRANCH   2  28
ATOM     28  C   UNL     1       1.088   4.083  -2.484  0.00  0.00    +0.101 C 
ATOM     29  N   UNL     1       1.613   4.078  -3.491  0.00  0.00    -0.191 NA
ENDBRANCH   2  28
BRANCH  10  30
ATOM     30  C   UNL     1       1.363   6.146   4.553  0.00  0.00    +0.166 C 
BRANCH  30  31
ATOM     31  C   UNL     1       1.659   7.417   3.799  0.00  0.00    -0.028 A 
ATOM     32  C   UNL     1       2.810   7.518   3.041  0.00  0.00    +0.008 A 
ATOM     33  C   UNL     1       3.080   8.681   2.345  0.00  0.00    +0.038 A 
ATOM     34  C   UNL     1       2.202   9.749   2.416  0.00  0.00    +0.123 A 
ATOM     35  C   UNL     1       1.052   9.649   3.180  0.00  0.00    +0.038 A 
ATOM     36  C   UNL     1       0.781   8.482   3.871  0.00  0.00    +0.008 A 
ATOM     37  F   UNL     1       2.468  10.888   1.740  0.00  0.00    -0.205 F 
ENDBRANCH  30  31
ENDBRANCH  10  30
TORSDOF 6
