REMARK  Name = ZINC45408613
REMARK  6 active torsions:
REMARK  status: ('A' for Active; 'I' for Inactive)
REMARK    1  A    between atoms: C_1  and  C_2
REMARK    2  A    between atoms: C_2  and  C_3
REMARK    3  A    between atoms: C_2  and  C_4
REMARK    4  A    between atoms: C_4  and  C_6
REMARK    5  A    between atoms: C_4  and  N_13
REMARK    6  A    between atoms: C_22  and  C_24
REMARK                            x       y       z     vdW  Elec       q    Type
REMARK                         _______ _______ _______ _____ _____    ______ ____
ROOT
ATOM      1  N   UNL     1      -1.409  -1.998   0.005  0.00  0.00    -0.292 N 
ATOM      2  C   UNL     1      -1.314  -2.665  -1.163  0.00  0.00    +0.303 C 
ATOM      3  O   UNL     1      -1.336  -2.055  -2.214  0.00  0.00    -0.253 OA
ATOM      4  N   UNL     1      -1.194  -4.007  -1.164  0.00  0.00    -0.283 N 
ATOM      5  C   UNL     1      -1.286  -4.768   0.090  0.00  0.00    +0.128 C 
ATOM      6  C   UNL     1      -2.381  -5.832  -0.062  0.00  0.00    +0.127 C 
ATOM      7  N   UNL     1      -2.156  -6.561  -1.318  0.00  0.00    -0.296 N 
ATOM      8  C   UNL     1      -2.063  -5.800  -2.572  0.00  0.00    +0.127 C 
ATOM      9  C   UNL     1      -0.975  -4.737  -2.421  0.00  0.00    +0.128 C 
ATOM     10  C   UNL     1      -2.036  -7.903  -1.319  0.00  0.00    +0.245 C 
ATOM     11  O   UNL     1      -2.114  -8.521  -0.278  0.00  0.00    -0.273 OA
ATOM     12  H   UNL     1      -1.464  -2.488   0.840  0.00  0.00    +0.151 HD
ENDROOT
BRANCH  10  13
ATOM     13  C   UNL     1      -1.806  -8.638  -2.615  0.00  0.00    +0.204 C 
ATOM     14  C   UNL     1      -3.037  -8.479  -3.533  0.00  0.00    +0.043 C 
ATOM     15  C   UNL     1      -3.155  -9.890  -4.173  0.00  0.00    +0.031 C 
ATOM     16  C   UNL     1      -2.678 -10.785  -3.001  0.00  0.00    +0.161 C 
ATOM     17  O   UNL     1      -1.633 -10.036  -2.357  0.00  0.00    -0.367 OA
ENDBRANCH  10  13
BRANCH   1  18
ATOM     18  C   UNL     1      -1.429  -0.533   0.013  0.00  0.00    +0.107 C 
BRANCH  18  19
ATOM     19  C   UNL     1      -2.129  -0.047   1.255  0.00  0.00    -0.027 A 
ATOM     20  C   UNL     1      -1.912  -0.681   2.464  0.00  0.00    +0.007 A 
ATOM     21  C   UNL     1      -2.554  -0.236   3.604  0.00  0.00    +0.020 A 
ATOM     22  C   UNL     1      -3.415   0.846   3.535  0.00  0.00    +0.041 A 
ATOM     23  C   UNL     1      -3.632   1.480   2.325  0.00  0.00    +0.020 A 
ATOM     24  C   UNL     1      -2.985   1.037   1.187  0.00  0.00    +0.007 A 
ATOM     25 CL   UNL     1      -4.222   1.405   4.966  0.00  0.00    -0.084 Cl
ENDBRANCH  18  19
BRANCH  18  27
ATOM     26  C   UNL     1      -0.015   1.526   0.004  0.00  0.00    +0.009 C 
ATOM     27  C   UNL     1       0.006  -0.004  -0.004  0.00  0.00    +0.008 C 
ATOM     28  C   UNL     1       0.751  -0.510   1.233  0.00  0.00    +0.009 C 
ENDBRANCH  18  27
ENDBRANCH   1  18
TORSDOF 4
