REMARK  Name = ZINC15779901
REMARK  13 active torsions:
REMARK  status: ('A' for Active; 'I' for Inactive)
REMARK    1  A    between atoms: C_1  and  C_2
REMARK    2  A    between atoms: C_5  and  N_8
REMARK    3  A    between atoms: C_11  and  C_13
REMARK    4  A    between atoms: C_15  and  C_20
REMARK    5  A    between atoms: N_18  and  C_19
REMARK    6  A    between atoms: C_20  and  C_21
REMARK    7  A    between atoms: C_21  and  C_22
REMARK    8  A    between atoms: N_24  and  C_25
REMARK    9  A    between atoms: C_25  and  C_26
REMARK   10  A    between atoms: C_26  and  C_27
REMARK   11  A    between atoms: C_27  and  N_73
REMARK   12  A    between atoms: C_28  and  N_73
REMARK   13  A    between atoms: C_29  and  N_73
REMARK                            x       y       z     vdW  Elec       q    Type
REMARK                         _______ _______ _______ _____ _____    ______ ____
ROOT
ATOM      1  N   UNL     1      13.241   5.052   4.897  0.00  0.00    -0.214 N 
ATOM      2  C   UNL     1      12.120   4.346   5.201  0.00  0.00    +0.165 A 
ATOM      3  C   UNL     1      11.225   4.526   4.141  0.00  0.00    +0.129 A 
ATOM      4  C   UNL     1      11.867   5.367   3.199  0.00  0.00    +0.088 A 
ATOM      5  N   UNL     1      13.049   5.669   3.656  0.00  0.00    -0.168 NA
ATOM      6  C   UNL     1      11.281   5.835   1.891  0.00  0.00    +0.070 C 
ATOM      7  N   UNL     1      10.022   3.933   4.166  0.00  0.00    -0.241 NA
ATOM      8  C   UNL     1       9.663   3.192   5.179  0.00  0.00    +0.107 A 
ATOM      9  C   UNL     1      10.541   2.987   6.271  0.00  0.00    +0.274 A 
ATOM     10  O   UNL     1      10.198   2.290   7.210  0.00  0.00    -0.266 OA
ATOM     11  N   UNL     1      11.761   3.568   6.267  0.00  0.00    -0.293 N 
ATOM     12  C   UNL     1      12.684   3.368   7.387  0.00  0.00    +0.154 C 
ENDROOT
BRANCH   1  17
ATOM     13  C   UNL     1      17.902   5.433   8.112  0.00  0.00    +0.044 C 
ATOM     14  C   UNL     1      16.664   5.332   7.259  0.00  0.00    -0.050 A 
ATOM     15  C   UNL     1      16.166   4.090   6.911  0.00  0.00    +0.005 A 
ATOM     16  C   UNL     1      15.031   3.994   6.129  0.00  0.00    +0.028 A 
ATOM     17  C   UNL     1      14.392   5.146   5.692  0.00  0.00    +0.068 A 
ATOM     18  C   UNL     1      14.898   6.392   6.038  0.00  0.00    +0.028 A 
ATOM     19  C   UNL     1      16.029   6.481   6.825  0.00  0.00    +0.005 A 
ENDBRANCH   1  17
BRANCH   8  20
ATOM     20  C   UNL     1       8.303   2.543   5.183  0.00  0.00    +0.070 C 
BRANCH  20  21
ATOM     21  C   UNL     1       7.554   2.918   3.902  0.00  0.00    +0.102 C 
BRANCH  21  22
ATOM     22  C   UNL     1       6.194   2.270   3.907  0.00  0.00    +0.213 C 
ATOM     23  O   UNL     1       5.856   1.576   4.843  0.00  0.00    -0.276 OA
ATOM     24  N   UNL     1       5.353   2.460   2.871  0.00  0.00    -0.315 N 
ATOM     25  H   UNL     1       5.623   3.015   2.123  0.00  0.00    +0.149 HD
BRANCH  24  26
ATOM     26  C   UNL     1       4.031   1.830   2.876  0.00  0.00    +0.102 C 
BRANCH  26  27
ATOM     27  C   UNL     1       3.283   2.205   1.595  0.00  0.00    +0.000 C 
BRANCH  27  28
ATOM     28  C   UNL     1       1.902   1.546   1.599  0.00  0.00    -0.077 C 
BRANCH  28  30
ATOM     29  C   UNL     1       1.841   1.331  -0.812  0.00  0.00    -0.096 C 
ATOM     30  N   UNL     1       1.185   1.934   0.367  0.00  0.00    +0.380 N 
ATOM     31  H   UNL     1       1.209   2.957   0.275  0.00  0.00    -0.082 HD
BRANCH  30  32
ATOM     32  C   UNL     1      -0.224   1.492   0.441  0.00  0.00    -0.069 C 
ATOM     33  C   UNL     1      -0.899   2.187   1.625  0.00  0.00    -0.015 C 
ATOM     34  C   UNL     1      -2.366   1.757   1.700  0.00  0.00    -0.002 C 
ATOM     35  C   UNL     1      -3.079   2.147   0.405  0.00  0.00    -0.000 C 
ATOM     36  C   UNL     1      -2.404   1.452  -0.779  0.00  0.00    -0.002 C 
ATOM     37  C   UNL     1      -0.937   1.883  -0.854  0.00  0.00    -0.015 C 
ENDBRANCH  30  32
ENDBRANCH  28  30
ENDBRANCH  27  28
ENDBRANCH  26  27
ENDBRANCH  24  26
ENDBRANCH  21  22
ENDBRANCH  20  21
ENDBRANCH   8  20
TORSDOF 9
