REMARK  Name = ZINC20232937
REMARK  11 active torsions:
REMARK  status: ('A' for Active; 'I' for Inactive)
REMARK    1  A    between atoms: C_1  and  C_2
REMARK    2  A    between atoms: C_7  and  N_8
REMARK    3  A    between atoms: C_9  and  C_11
REMARK    4  A    between atoms: C_11  and  C_13
REMARK    5  A    between atoms: C_11  and  N_17
REMARK    6  A    between atoms: C_13  and  C_14
REMARK    7  A    between atoms: C_14  and  C_15
REMARK    8  A    between atoms: C_14  and  C_16
REMARK    9  A    between atoms: N_17  and  S_18
REMARK   10  A    between atoms: S_18  and  C_21
REMARK   11  A    between atoms: C_30  and  C_32
REMARK                            x       y       z     vdW  Elec       q    Type
REMARK                         _______ _______ _______ _____ _____    ______ ____
ROOT
ATOM      1  C   UNL     1       2.498   1.173   0.146  0.00  0.00    +0.163 C 
ENDROOT
BRANCH   1   3
ATOM      2  N   UNL     1       0.233   1.081  -0.843  0.00  0.00    -0.284 N 
ATOM      3  C   UNL     1       1.323   1.815  -0.545  0.00  0.00    +0.236 C 
ATOM      4  O   UNL     1       1.359   2.993  -0.834  0.00  0.00    -0.274 OA
ATOM      5  H   UNL     1       0.234  -0.004  -0.664  0.00  0.00    +0.155 HD
BRANCH   2  12
ATOM      6  C   UNL     1      -1.555  -0.502  -2.390  0.00  0.00    +0.046 C 
ATOM      7  C   UNL     1      -1.800   0.964  -2.142  0.00  0.00    -0.028 A 
ATOM      8  C   UNL     1      -2.922   1.576  -2.666  0.00  0.00    +0.020 A 
ATOM      9  C   UNL     1      -3.144   2.923  -2.444  0.00  0.00    +0.018 A 
ATOM     10  C   UNL     1      -2.248   3.660  -1.691  0.00  0.00    +0.017 A 
ATOM     11  C   UNL     1      -1.127   3.052  -1.159  0.00  0.00    +0.024 A 
ATOM     12  C   UNL     1      -0.902   1.700  -1.381  0.00  0.00    +0.036 A 
ATOM     13 BR   UNL     1      -4.677   3.759  -3.171  0.00  0.00    -0.050 Br
ENDBRANCH   2  12
ENDBRANCH   1   3
BRANCH   1  14
ATOM     14  N   UNL     1       3.548   2.173   0.357  0.00  0.00    -0.178 NA
ATOM     15  H   UNL     1       3.288   3.171   0.739  0.00  0.00    +0.149 HD
BRANCH  14  16
ATOM     16  S   UNL     1       5.080   1.897  -0.207  0.00  0.00    +0.059 S 
ATOM     17  O   UNL     1       5.853   3.037   0.142  0.00  0.00    -0.153 OA
ATOM     18  O   UNL     1       5.433   0.583   0.202  0.00  0.00    -0.153 OA
BRANCH  16  19
ATOM     19  C   UNL     1       4.990   1.869  -1.967  0.00  0.00    +0.106 A 
ATOM     20  C   UNL     1       5.157   3.037  -2.688  0.00  0.00    +0.030 A 
ATOM     21  C   UNL     1       5.087   3.019  -4.065  0.00  0.00    +0.026 A 
ATOM     22  C   UNL     1       4.847   1.821  -4.742  0.00  0.00    +0.040 A 
ATOM     23  C   UNL     1       4.682   0.656  -4.010  0.00  0.00    -0.023 A 
ATOM     24  C   UNL     1       4.758   0.679  -2.630  0.00  0.00    +0.034 A 
ATOM     25  C   UNL     1       4.438  -0.485  -4.971  0.00  0.00    +0.056 C 
ATOM     26  C   UNL     1       4.482   0.165  -6.364  0.00  0.00    +0.118 C 
ATOM     27  N   UNL     1       4.740   1.586  -6.116  0.00  0.00    -0.271 N 
ATOM     28  C   UNL     1       4.855   2.529  -7.072  0.00  0.00    +0.217 C 
ATOM     29  O   UNL     1       5.069   3.682  -6.764  0.00  0.00    -0.276 OA
ATOM     30  C   UNL     1       4.719   2.149  -8.524  0.00  0.00    +0.109 C 
ENDBRANCH  16  19
ENDBRANCH  14  16
ENDBRANCH   1  14
BRANCH   1  31
ATOM     31  C   UNL     1       2.050   0.612   1.497  0.00  0.00    +0.032 C 
BRANCH  31  32
ATOM     32  C   UNL     1       3.216  -0.130   2.153  0.00  0.00    -0.015 C 
ATOM     33  C   UNL     1       2.818  -0.556   3.568  0.00  0.00    +0.007 C 
ATOM     34  C   UNL     1       3.562  -1.370   1.326  0.00  0.00    +0.007 C 
ENDBRANCH  31  32
ENDBRANCH   1  31
TORSDOF 7
