REMARK  Name = ZINC11515606
REMARK  8 active torsions:
REMARK  status: ('A' for Active; 'I' for Inactive)
REMARK    1  A    between atoms: C_1  and  C_2
REMARK    2  A    between atoms: C_2  and  C_4
REMARK    3  A    between atoms: C_2  and  N_11
REMARK    4  A    between atoms: C_12  and  C_14
REMARK    5  A    between atoms: C_14  and  C_16
REMARK    6  A    between atoms: C_14  and  N_59
REMARK    7  A    between atoms: N_19  and  C_22
REMARK    8  A    between atoms: C_25  and  N_32
REMARK                            x       y       z     vdW  Elec       q    Type
REMARK                         _______ _______ _______ _____ _____    ______ ____
ROOT
ATOM      1  C   UNL     1       0.366   1.155   2.492  0.00  0.00    -0.059 C 
ATOM      2  C   UNL     1      -0.146   1.987   3.670  0.00  0.00    +0.086 C 
ATOM      3  N   UNL     1      -1.613   1.923   3.712  0.00  0.00    -0.333 N 
ATOM      4  C   UNL     1      -2.196   2.436   2.464  0.00  0.00    +0.086 C 
ATOM      5  C   UNL     1      -1.685   1.603   1.286  0.00  0.00    -0.059 C 
ATOM      6  N   UNL     1      -0.210   1.695   1.242  0.00  0.00    +0.389 N 
ATOM      7  H   UNL     1       0.061   2.681   1.149  0.00  0.00    -0.081 HD
ENDROOT
BRANCH   3   8
ATOM      8  C   UNL     1      -2.112   2.611   4.816  0.00  0.00    +0.038 A 
ATOM      9  C   UNL     1      -1.282   3.414   5.571  0.00  0.00    +0.026 A 
ATOM     10  C   UNL     1      -1.773   4.109   6.672  0.00  0.00    +0.035 A 
ATOM     11  C   UNL     1      -3.080   4.011   7.043  0.00  0.00    +0.135 A 
ATOM     12  C   UNL     1      -3.956   3.201   6.305  0.00  0.00    +0.032 A 
ATOM     13  C   UNL     1      -3.468   2.492   5.177  0.00  0.00    +0.008 A 
ATOM     14  C   UNL     1      -4.367   1.687   4.456  0.00  0.00    +0.030 A 
ATOM     15  C   UNL     1      -5.663   1.623   4.870  0.00  0.00    +0.111 A 
ATOM     16  N   UNL     1      -6.094   2.296   5.928  0.00  0.00    -0.263 NA
ATOM     17  C   UNL     1      -5.312   3.066   6.647  0.00  0.00    +0.121 A 
BRANCH  11  18
ATOM     18  N   UNL     1      -3.575   4.757   8.223  0.00  0.00    +0.057 N 
ATOM     19  O   UNL     1      -3.155   5.876   8.456  0.00  0.00    -0.126 OA
ATOM     20  O   UNL     1      -4.401   4.250   8.960  0.00  0.00    -0.126 OA
ENDBRANCH  11  18
ENDBRANCH   3   8
BRANCH   6  21
ATOM     21  C   UNL     1       0.309   0.942   0.080  0.00  0.00    +0.016 C 
ATOM     22  C   UNL     1      -0.333  -0.445   0.012  0.00  0.00    -0.004 C 
BRANCH  21  24
ATOM     23  N   UNL     1       0.631   1.420  -2.325  0.00  0.00    -0.310 N 
ATOM     24  C   UNL     1      -0.014   1.707  -1.177  0.00  0.00    +0.200 C 
ATOM     25  O   UNL     1      -0.855   2.581  -1.156  0.00  0.00    -0.278 OA
ATOM     26  H   UNL     1       1.304   0.721  -2.342  0.00  0.00    +0.149 HD
BRANCH  23  28
ATOM     27  C   UNL     1       1.135   3.457  -3.582  0.00  0.00    +0.033 C 
ATOM     28  C   UNL     1       0.317   2.164  -3.548  0.00  0.00    +0.100 C 
BRANCH  28  29
ATOM     29  C   UNL     1       0.658   1.322  -4.750  0.00  0.00    -0.027 A 
ATOM     30  C   UNL     1       1.810   0.558  -4.754  0.00  0.00    +0.008 A 
ATOM     31  C   UNL     1       2.121  -0.219  -5.854  0.00  0.00    +0.038 A 
ATOM     32  C   UNL     1       1.283  -0.224  -6.956  0.00  0.00    +0.123 A 
ATOM     33  C   UNL     1       0.132   0.546  -6.953  0.00  0.00    +0.038 A 
ATOM     34  C   UNL     1      -0.179   1.318  -5.850  0.00  0.00    +0.008 A 
ATOM     35  F   UNL     1       1.589  -0.978  -8.035  0.00  0.00    -0.205 F 
ENDBRANCH  28  29
ENDBRANCH  23  28
ENDBRANCH  21  24
ENDBRANCH   6  21
TORSDOF 6
