REMARK  Name = ZINC41000760
REMARK  13 active torsions:
REMARK  status: ('A' for Active; 'I' for Inactive)
REMARK    1  A    between atoms: C_1  and  C_2
REMARK    2  A    between atoms: C_5  and  C_33
REMARK    3  A    between atoms: C_6  and  O_8
REMARK    4  A    between atoms: O_8  and  C_9
REMARK    5  A    between atoms: C_9  and  C_11
REMARK    6  A    between atoms: C_9  and  C_12
REMARK    7  A    between atoms: N_14  and  C_15
REMARK    8  A    between atoms: C_16  and  C_22
REMARK    9  A    between atoms: C_17  and  C_21
REMARK   10  A    between atoms: C_18  and  C_20
REMARK   11  A    between atoms: C_24  and  C_27
REMARK   12  A    between atoms: C_33  and  C_34
REMARK   13  A    between atoms: C_33  and  C_35
REMARK                            x       y       z     vdW  Elec       q    Type
REMARK                         _______ _______ _______ _____ _____    ______ ____
ROOT
ATOM      1  C   UNL     1      -1.089  -2.932   6.980  0.00  0.00    +0.085 A 
ATOM      2  C   UNL     1      -1.287  -2.529   8.296  0.00  0.00    +0.071 A 
ATOM      3  C   UNL     1      -1.884  -3.489   9.190  0.00  0.00    -0.026 A 
ATOM      4  C   UNL     1      -2.210  -4.701   8.704  0.00  0.00    -0.008 A 
ATOM      5  S   UNL     1      -1.725  -4.598   6.992  0.00  0.00    -0.078 S 
ATOM      6  C   UNL     1      -2.838  -5.863   9.430  0.00  0.00    +0.052 C 
ATOM      7  C   UNL     1      -2.137  -3.144  10.634  0.00  0.00    +0.045 C 
ENDROOT
BRANCH   2   8
ATOM      8  C   UNL     1      -0.904  -1.186   8.755  0.00  0.00    +0.261 A 
ATOM      9  N   UNL     1      -0.360  -0.243   8.015  0.00  0.00    -0.187 NA
ATOM     10  C   UNL     1      -0.143   0.852   8.759  0.00  0.00    +0.202 A 
ATOM     11  N   UNL     1      -0.548   0.620   9.984  0.00  0.00    -0.056 NA
ATOM     12  O   UNL     1      -1.055  -0.706  10.003  0.00  0.00    -0.332 OA
BRANCH  10  13
ATOM     13  C   UNL     1       0.457   2.120   8.273  0.00  0.00    +0.022 A 
ATOM     14  C   UNL     1       0.843   2.246   6.940  0.00  0.00    +0.012 A 
ATOM     15  C   UNL     1       1.400   3.427   6.494  0.00  0.00    +0.001 A 
ATOM     16  C   UNL     1       1.576   4.485   7.368  0.00  0.00    +0.000 A 
ATOM     17  C   UNL     1       1.194   4.366   8.692  0.00  0.00    +0.001 A 
ATOM     18  C   UNL     1       0.630   3.191   9.147  0.00  0.00    +0.012 A 
ENDBRANCH  10  13
ENDBRANCH   2   8
BRANCH   1  21
ATOM     19  C   UNL     1      -0.438  -2.785   4.706  0.00  0.00    +0.258 C 
ATOM     20  O   UNL     1      -0.825  -3.921   4.533  0.00  0.00    -0.271 OA
ATOM     21  N   UNL     1      -0.541  -2.216   5.923  0.00  0.00    -0.276 N 
ATOM     22  H   UNL     1      -0.233  -1.307   6.062  0.00  0.00    +0.155 HD
BRANCH  19  23
ATOM     23  C   UNL     1       0.156  -2.008   3.559  0.00  0.00    +0.256 C 
ATOM     24  C   UNL     1       1.630  -1.718   3.850  0.00  0.00    +0.062 C 
BRANCH  23  25
ATOM     25  O   UNL     1       0.050  -2.776   2.358  0.00  0.00    -0.480 OA
BRANCH  25  31
ATOM     26  C   UNL     1       0.425   1.475  -0.012  0.00  0.00    +0.044 C 
ATOM     27  C   UNL     1       0.214  -0.018  -0.009  0.00  0.00    -0.047 A 
ATOM     28  C   UNL     1       0.005  -0.688  -1.200  0.00  0.00    +0.004 A 
ATOM     29  C   UNL     1      -0.189  -2.057  -1.200  0.00  0.00    +0.008 A 
ATOM     30  C   UNL     1      -0.174  -2.758  -0.010  0.00  0.00    -0.003 A 
ATOM     31  C   UNL     1       0.035  -2.088   1.186  0.00  0.00    +0.125 A 
ATOM     32  C   UNL     1       0.236  -0.715   1.184  0.00  0.00    +0.049 A 
BRANCH  30  33
ATOM     33  C   UNL     1      -0.386  -4.250  -0.011  0.00  0.00    +0.016 C 
ATOM     34  C   UNL     1      -1.757  -4.570  -0.611  0.00  0.00    +0.012 C 
ATOM     35  C   UNL     1       0.706  -4.920  -0.847  0.00  0.00    +0.012 C 
ENDBRANCH  30  33
ENDBRANCH  25  31
ENDBRANCH  23  25
ENDBRANCH  19  23
ENDBRANCH   1  21
TORSDOF 7
