REMARK  Name = ZINC10440460
REMARK  11 active torsions:
REMARK  status: ('A' for Active; 'I' for Inactive)
REMARK    1  A    between atoms: C_1  and  C_2
REMARK    2  A    between atoms: C_2  and  C_3
REMARK    3  A    between atoms: C_10  and  C_12
REMARK    4  A    between atoms: C_15  and  S_18
REMARK    5  A    between atoms: N_16  and  C_17
REMARK    6  A    between atoms: S_18  and  C_19
REMARK    7  A    between atoms: C_19  and  C_20
REMARK    8  A    between atoms: N_22  and  C_23
REMARK    9  A    between atoms: C_26  and  O_32
REMARK   10  A    between atoms: C_28  and  N_29
REMARK   11  A    between atoms: O_32  and  C_33
REMARK                            x       y       z     vdW  Elec       q    Type
REMARK                         _______ _______ _______ _____ _____    ______ ____
ROOT
ATOM      1  C   UNL     1       6.005   2.882   0.050  0.00  0.00    +0.171 A 
ATOM      2  N   UNL     1       5.089   3.824   0.066  0.00  0.00    -0.128 NA
ATOM      3  N   UNL     1       3.917   3.297   0.054  0.00  0.00    -0.122 NA
ATOM      4  C   UNL     1       4.011   1.987   0.036  0.00  0.00    +0.192 A 
ATOM      5  N   UNL     1       5.342   1.675   0.030  0.00  0.00    -0.305 N 
ATOM      6  C   UNL     1       5.938   0.337   0.007  0.00  0.00    +0.153 C 
ENDROOT
BRANCH   1  13
ATOM      7  C   UNL     1      11.864   4.933  -0.735  0.00  0.00    -0.007 C 
ATOM      8  C   UNL     1      12.366   4.007   0.377  0.00  0.00    +0.009 C 
ATOM      9  C   UNL     1      11.598   2.679   0.296  0.00  0.00    +0.043 C 
ATOM     10  C   UNL     1      10.141   2.986   0.168  0.00  0.00    -0.006 A 
ATOM     11  C   UNL     1       9.570   4.183  -0.149  0.00  0.00    -0.036 A 
ATOM     12  C   UNL     1       8.182   4.215  -0.210  0.00  0.00    +0.023 A 
ATOM     13  C   UNL     1       7.464   3.079   0.052  0.00  0.00    +0.057 A 
ATOM     14  S   UNL     1       8.760   1.896   0.389  0.00  0.00    -0.090 S 
ATOM     15  C   UNL     1      10.443   5.404  -0.423  0.00  0.00    +0.039 C 
BRANCH   7  17
ATOM     16  C   UNL     1      12.373   7.003  -2.039  0.00  0.00    +0.004 C 
ATOM     17  C   UNL     1      12.789   6.147  -0.841  0.00  0.00    +0.000 C 
ENDBRANCH   7  17
ENDBRANCH   1  13
BRANCH   4  18
ATOM     18  S   UNL     1       2.670   0.844   0.018  0.00  0.00    -0.077 S 
BRANCH  18  19
ATOM     19  C   UNL     1       1.274   1.996   0.039  0.00  0.00    +0.173 C 
BRANCH  19  20
ATOM     20  C   UNL     1      -0.018   1.220   0.026  0.00  0.00    +0.228 C 
ATOM     21  O   UNL     1       0.003   0.008   0.005  0.00  0.00    -0.275 OA
ATOM     22  N   UNL     1      -1.196   1.874   0.033  0.00  0.00    -0.283 N 
ATOM     23  H   UNL     1      -1.214   2.841   0.115  0.00  0.00    +0.155 HD
BRANCH  22  24
ATOM     24  C   UNL     1      -2.396   1.158  -0.079  0.00  0.00    +0.064 A 
ATOM     25  C   UNL     1      -2.513  -0.096   0.507  0.00  0.00    +0.029 A 
ATOM     26  C   UNL     1      -3.695  -0.801   0.397  0.00  0.00    +0.047 A 
ATOM     27  C   UNL     1      -4.766  -0.257  -0.298  0.00  0.00    +0.122 A 
ATOM     28  C   UNL     1      -4.649   0.996  -0.883  0.00  0.00    +0.080 A 
ATOM     29  C   UNL     1      -3.469   1.704  -0.769  0.00  0.00    +0.151 A 
BRANCH  29  30
ATOM     30  N   UNL     1      -3.346   3.043  -1.389  0.00  0.00    +0.058 N 
ATOM     31  O   UNL     1      -4.317   3.564  -1.909  0.00  0.00    -0.126 OA
ATOM     32  O   UNL     1      -2.276   3.623  -1.378  0.00  0.00    -0.126 OA
ENDBRANCH  29  30
BRANCH  27  33
ATOM     33  O   UNL     1      -5.930  -0.951  -0.405  0.00  0.00    -0.495 OA
ATOM     34  C   UNL     1      -5.980  -2.234   0.222  0.00  0.00    +0.277 C 
ENDBRANCH  27  33
ENDBRANCH  22  24
ENDBRANCH  19  20
ENDBRANCH  18  19
ENDBRANCH   4  18
TORSDOF 8
