REMARK  Name = ZINC12974672
REMARK  12 active torsions:
REMARK  status: ('A' for Active; 'I' for Inactive)
REMARK    1  A    between atoms: C_1  and  C_2
REMARK    2  A    between atoms: C_4  and  C_29
REMARK    3  A    between atoms: C_5  and  N_9
REMARK    4  A    between atoms: C_6  and  C_8
REMARK    5  A    between atoms: C_10  and  C_12
REMARK    6  A    between atoms: C_12  and  N_56
REMARK    7  A    between atoms: C_13  and  N_56
REMARK    8  A    between atoms: C_14  and  C_15
REMARK    9  A    between atoms: C_14  and  N_56
REMARK   10  A    between atoms: C_18  and  C_20
REMARK   11  A    between atoms: C_25  and  O_26
REMARK   12  A    between atoms: O_26  and  C_27
REMARK                            x       y       z     vdW  Elec       q    Type
REMARK                         _______ _______ _______ _____ _____    ______ ____
ROOT
ATOM      1  C   UNL     1       2.844   7.602   1.645  0.00  0.00    -0.095 C 
ATOM      2  N   UNL     1       3.689   7.133   0.527  0.00  0.00    +0.387 N 
ATOM      3  H   UNL     1       3.224   7.361  -0.360  0.00  0.00    -0.081 HD
ENDROOT
BRANCH   2   4
ATOM      4  C   UNL     1       3.872   5.669   0.612  0.00  0.00    +0.019 C 
BRANCH   4   6
ATOM      5  N   UNL     1       2.464   3.653   0.351  0.00  0.00    -0.287 N 
ATOM      6  C   UNL     1       2.550   4.998   0.347  0.00  0.00    +0.201 C 
ATOM      7  O   UNL     1       1.562   5.667   0.130  0.00  0.00    -0.278 OA
ATOM      8  H   UNL     1       3.264   3.116   0.461  0.00  0.00    +0.155 HD
BRANCH   5  13
ATOM      9  C   UNL     1      -2.583   1.137  -0.267  0.00  0.00    +0.044 C 
ATOM     10  C   UNL     1      -1.241   1.803  -0.104  0.00  0.00    -0.050 A 
ATOM     11  C   UNL     1      -0.772   2.658  -1.085  0.00  0.00    +0.008 A 
ATOM     12  C   UNL     1       0.455   3.274  -0.936  0.00  0.00    -0.029 A 
ATOM     13  C   UNL     1       1.220   3.030   0.198  0.00  0.00    +0.039 A 
ATOM     14  C   UNL     1       0.748   2.167   1.178  0.00  0.00    -0.029 A 
ATOM     15  C   UNL     1      -0.480   1.554   1.023  0.00  0.00    +0.008 A 
ATOM     16  C   UNL     1       1.575   1.899   2.409  0.00  0.00    +0.045 C 
ATOM     17  C   UNL     1       0.964   4.210  -2.001  0.00  0.00    +0.045 C 
ENDBRANCH   5  13
ENDBRANCH   4   6
ENDBRANCH   2   4
BRANCH   2  18
ATOM     18  C   UNL     1       5.002   7.810   0.568  0.00  0.00    -0.022 C 
BRANCH  18  19
ATOM     19  C   UNL     1       4.805   9.272   0.260  0.00  0.00    +0.033 A 
ATOM     20  C   UNL     1       4.686  10.171   1.273  0.00  0.00    +0.068 A 
ATOM     21  S   UNL     1       4.482  11.687   0.346  0.00  0.00    -0.075 S 
ATOM     22  C   UNL     1       4.578  10.960  -1.284  0.00  0.00    +0.112 A 
ATOM     23  N   UNL     1       4.755   9.681  -0.986  0.00  0.00    -0.246 NA
BRANCH  22  24
ATOM     24  C   UNL     1       4.490  11.612  -2.608  0.00  0.00    +0.050 A 
ATOM     25  C   UNL     1       4.597  10.851  -3.772  0.00  0.00    +0.029 A 
ATOM     26  C   UNL     1       4.509  11.464  -5.006  0.00  0.00    +0.019 A 
ATOM     27  C   UNL     1       4.326  12.834  -5.092  0.00  0.00    +0.019 A 
ATOM     28  C   UNL     1       4.223  13.598  -3.945  0.00  0.00    +0.047 A 
ATOM     29  C   UNL     1       4.304  12.996  -2.700  0.00  0.00    +0.130 A 
ATOM     30 BR   UNL     1       4.648  10.431  -6.584  0.00  0.00    -0.050 Br
BRANCH  29  31
ATOM     31  O   UNL     1       4.203  13.747  -1.572  0.00  0.00    -0.494 OA
ATOM     32  C   UNL     1       4.015  15.153  -1.744  0.00  0.00    +0.277 C 
ENDBRANCH  29  31
ENDBRANCH  22  24
ENDBRANCH  18  19
ENDBRANCH   2  18
TORSDOF 7
