REMARK  Name = ZINC02896981
REMARK  11 active torsions:
REMARK  status: ('A' for Active; 'I' for Inactive)
REMARK    1  A    between atoms: C_1  and  N_2
REMARK    2  A    between atoms: N_2  and  C_3
REMARK    3  A    between atoms: N_2  and  C_4
REMARK    4  A    between atoms: C_10  and  N_30
REMARK    5  A    between atoms: C_13  and  C_14
REMARK    6  A    between atoms: C_14  and  C_16
REMARK    7  A    between atoms: C_14  and  N_20
REMARK    8  A    between atoms: N_20  and  S_21
REMARK    9  A    between atoms: S_21  and  C_24
REMARK   10  A    between atoms: N_30  and  C_31
REMARK   11  A    between atoms: N_30  and  C_32
REMARK                            x       y       z     vdW  Elec       q    Type
REMARK                         _______ _______ _______ _____ _____    ______ ____
ROOT
ATOM      1  C   UNL     1      -1.183   2.801  -0.308  0.00  0.00    +0.039 A 
ATOM      2  C   UNL     1      -1.067   1.427  -0.247  0.00  0.00    +0.024 A 
ATOM      3  C   UNL     1       0.182   0.824  -0.146  0.00  0.00    +0.002 A 
ATOM      4  C   UNL     1       1.322   1.568  -0.116  0.00  0.00    +0.009 A 
ATOM      5  C   UNL     1       1.247   2.970  -0.181  0.00  0.00    -0.009 A 
ATOM      6  C   UNL     1      -0.019   3.596  -0.278  0.00  0.00    +0.024 A 
ATOM      7  C   UNL     1      -0.092   5.002  -0.343  0.00  0.00    +0.039 A 
ATOM      8  C   UNL     1       1.071   5.743  -0.311  0.00  0.00    +0.024 A 
ATOM      9  C   UNL     1       2.310   5.118  -0.214  0.00  0.00    +0.008 A 
ATOM     10  C   UNL     1       2.409   3.761  -0.151  0.00  0.00    -0.017 A 
ENDROOT
BRANCH   1  12
ATOM     11  C   UNL     1      -3.142   2.952  -1.613  0.00  0.00    +0.129 C 
ATOM     12  N   UNL     1      -2.438   3.397  -0.403  0.00  0.00    -0.335 N 
ATOM     13  C   UNL     1      -3.239   3.132   0.799  0.00  0.00    +0.129 C 
ENDBRANCH   1  12
BRANCH   7  14
ATOM     14  N   UNL     1      -1.328   5.638  -0.440  0.00  0.00    -0.335 N 
ATOM     15  C   UNL     1      -1.547   6.538   0.700  0.00  0.00    +0.129 C 
ATOM     16  C   UNL     1      -1.451   6.360  -1.713  0.00  0.00    +0.129 C 
ENDBRANCH   7  14
BRANCH  10  17
ATOM     17  C   UNL     1       3.763   3.109  -0.047  0.00  0.00    +0.158 C 
BRANCH  17  18
ATOM     18  C   UNL     1       4.247   2.712  -1.443  0.00  0.00    +0.211 C 
ATOM     19 CL   UNL     1       4.511   4.197  -2.432  0.00  0.00    -0.081 Cl
ATOM     20 CL   UNL     1       5.795   1.798  -1.306  0.00  0.00    -0.081 Cl
ATOM     21 CL   UNL     1       3.004   1.675  -2.237  0.00  0.00    -0.081 Cl
ENDBRANCH  17  18
BRANCH  17  22
ATOM     22  N   UNL     1       4.714   4.050   0.550  0.00  0.00    -0.178 NA
ATOM     23  H   UNL     1       5.164   4.704  -0.007  0.00  0.00    +0.149 HD
BRANCH  22  24
ATOM     24  S   UNL     1       5.021   3.996   2.177  0.00  0.00    +0.059 S 
ATOM     25  O   UNL     1       5.994   4.998   2.440  0.00  0.00    -0.153 OA
ATOM     26  O   UNL     1       3.759   3.971   2.828  0.00  0.00    -0.153 OA
BRANCH  24  27
ATOM     27  C   UNL     1       5.791   2.447   2.511  0.00  0.00    +0.105 A 
ATOM     28  C   UNL     1       5.031   1.376   2.942  0.00  0.00    +0.028 A 
ATOM     29  C   UNL     1       5.634   0.159   3.199  0.00  0.00    +0.002 A 
ATOM     30  C   UNL     1       6.999   0.016   3.036  0.00  0.00    +0.000 A 
ATOM     31  C   UNL     1       7.761   1.089   2.610  0.00  0.00    +0.002 A 
ATOM     32  C   UNL     1       7.157   2.304   2.348  0.00  0.00    +0.028 A 
ENDBRANCH  24  27
ENDBRANCH  22  24
ENDBRANCH  17  22
ENDBRANCH  10  17
TORSDOF 7
