REMARK  Name = ZINC01853542
REMARK  6 active torsions:
REMARK  status: ('A' for Active; 'I' for Inactive)
REMARK    1  A    between atoms: C_17  and  S_27
REMARK    2  A    between atoms: N_18  and  C_21
REMARK    3  A    between atoms: C_21  and  C_22
REMARK    4  A    between atoms: S_27  and  C_28
REMARK    5  A    between atoms: C_28  and  C_29
REMARK    6  A    between atoms: C_29  and  C_31
REMARK                            x       y       z     vdW  Elec       q    Type
REMARK                         _______ _______ _______ _____ _____    ______ ____
ROOT
ATOM      1  C   UNL     1      -0.017   1.379   0.010  0.00  0.00    +0.000 A 
ATOM      2  C   UNL     1       1.167   2.095   0.002  0.00  0.00    +0.001 A 
ATOM      3  C   UNL     1       2.377   1.430  -0.025  0.00  0.00    +0.010 A 
ATOM      4  C   UNL     1       2.401   0.040  -0.050  0.00  0.00    +0.004 A 
ATOM      5  C   UNL     1       1.205  -0.679  -0.016  0.00  0.00    -0.037 A 
ATOM      6  C   UNL     1       0.002  -0.004   0.002  0.00  0.00    +0.004 A 
ATOM      7  C   UNL     1       1.232  -2.184   0.029  0.00  0.00    +0.047 C 
ATOM      8  C   UNL     1       2.386  -2.727  -0.813  0.00  0.00    +0.007 C 
ATOM      9  C   UNL     1       2.523  -4.233  -0.572  0.00  0.00    +0.012 C 
ATOM     10  C   UNL     1       1.215  -4.930  -0.953  0.00  0.00    +0.001 C 
ATOM     11  C   UNL     1       0.916  -4.680  -2.432  0.00  0.00    +0.000 C 
ATOM     12  C   UNL     1       0.784  -3.175  -2.679  0.00  0.00    +0.001 C 
ATOM     13  C   UNL     1       2.091  -2.479  -2.296  0.00  0.00    +0.012 C 
ATOM     14  C   UNL     1       3.674  -2.043  -0.443  0.00  0.00    +0.050 A 
ATOM     15  C   UNL     1       3.681  -0.702  -0.092  0.00  0.00    +0.083 A 
ATOM     16  N   UNL     1       4.837  -0.097   0.204  0.00  0.00    -0.223 NA
ATOM     17  C   UNL     1       5.973  -0.765   0.192  0.00  0.00    +0.173 A 
ATOM     18  N   UNL     1       6.017  -2.089  -0.123  0.00  0.00    -0.280 N 
ATOM     19  C   UNL     1       4.884  -2.748  -0.449  0.00  0.00    +0.259 A 
ATOM     20  O   UNL     1       4.914  -3.933  -0.742  0.00  0.00    -0.267 OA
ENDROOT
BRANCH  18  21
ATOM     21  C   UNL     1       7.297  -2.801  -0.107  0.00  0.00    +0.201 C 
BRANCH  21  22
ATOM     22  C   UNL     1       7.535  -3.377   1.265  0.00  0.00    +0.125 A 
ATOM     23  C   UNL     1       7.157  -4.599   1.682  0.00  0.00    +0.046 A 
ATOM     24  C   UNL     1       7.580  -4.723   3.025  0.00  0.00    +0.041 A 
ATOM     25  C   UNL     1       8.191  -3.569   3.349  0.00  0.00    +0.195 A 
ATOM     26  O   UNL     1       8.167  -2.760   2.277  0.00  0.00    -0.466 OA
ENDBRANCH  21  22
ENDBRANCH  18  21
BRANCH  17  27
ATOM     27  S   UNL     1       7.470   0.075   0.592  0.00  0.00    -0.080 S 
BRANCH  27  28
ATOM     28  C   UNL     1       6.940   1.776   0.934  0.00  0.00    +0.157 C 
BRANCH  28  29
ATOM     29  C   UNL     1       8.141   2.613   1.294  0.00  0.00    +0.173 C 
ATOM     30  O   UNL     1       9.244   2.112   1.318  0.00  0.00    -0.291 OA
BRANCH  29  31
ATOM     31  C   UNL     1       7.973   4.039   1.617  0.00  0.00    +0.018 A 
ATOM     32  C   UNL     1       6.701   4.619   1.596  0.00  0.00    +0.012 A 
ATOM     33  C   UNL     1       6.552   5.955   1.900  0.00  0.00    +0.016 A 
ATOM     34  C   UNL     1       7.658   6.723   2.225  0.00  0.00    +0.018 A 
ATOM     35  C   UNL     1       8.921   6.155   2.248  0.00  0.00    +0.016 A 
ATOM     36  C   UNL     1       9.085   4.819   1.951  0.00  0.00    +0.012 A 
ATOM     37 BR   UNL     1       7.443   8.556   2.639  0.00  0.00    -0.050 Br
ENDBRANCH  29  31
ENDBRANCH  28  29
ENDBRANCH  27  28
ENDBRANCH  17  27
TORSDOF 6
