REMARK  Name = ZINC02698716
REMARK  7 active torsions:
REMARK  status: ('A' for Active; 'I' for Inactive)
REMARK    1  A    between atoms: C_1  and  C_2
REMARK    2  A    between atoms: C_5  and  S_8
REMARK    3  A    between atoms: S_8  and  C_11
REMARK    4  A    between atoms: C_19  and  N_20
REMARK    5  A    between atoms: N_23  and  C_26
REMARK    6  A    between atoms: C_29  and  C_33
REMARK    7  A    between atoms: C_31  and  C_32
REMARK                            x       y       z     vdW  Elec       q    Type
REMARK                         _______ _______ _______ _____ _____    ______ ____
ROOT
ATOM      1  C   UNL     1      -2.408   5.115   1.297  0.00  0.00    +0.131 A 
ATOM      2  C   UNL     1      -1.177   5.724   1.499  0.00  0.00    +0.112 A 
ATOM      3  C   UNL     1      -0.043   3.715   1.315  0.00  0.00    +0.048 A 
ATOM      4  C   UNL     1       1.164   2.995   1.323  0.00  0.00    +0.026 A 
ATOM      5  C   UNL     1       1.150   1.649   1.126  0.00  0.00    +0.002 A 
ATOM      6  C   UNL     1      -0.046   0.966   0.917  0.00  0.00    +0.001 A 
ATOM      7  C   UNL     1      -1.235   1.632   0.898  0.00  0.00    +0.012 A 
ATOM      8  C   UNL     1      -1.256   3.019   1.102  0.00  0.00    +0.021 A 
ATOM      9  C   UNL     1      -2.471   3.746   1.094  0.00  0.00    +0.066 A 
ATOM     10  N   UNL     1       0.011   5.078   1.516  0.00  0.00    -0.359 N 
ATOM     11  H   UNL     1       0.898   5.572   1.670  0.00  0.00    +0.165 HD
ENDROOT
BRANCH   9  12
ATOM     12  N   UNL     1      -3.685   3.108   0.889  0.00  0.00    -0.325 N 
ATOM     13  C   UNL     1      -3.956   2.136   1.957  0.00  0.00    +0.124 C 
ATOM     14  C   UNL     1      -5.337   1.513   1.738  0.00  0.00    +0.124 C 
ATOM     15  N   UNL     1      -5.376   0.867   0.418  0.00  0.00    -0.327 N 
ATOM     16  C   UNL     1      -5.105   1.839  -0.650  0.00  0.00    +0.124 C 
ATOM     17  C   UNL     1      -3.724   2.462  -0.430  0.00  0.00    +0.124 C 
BRANCH  15  18
ATOM     18  C   UNL     1      -6.599   0.225   0.212  0.00  0.00    +0.033 A 
ATOM     19  C   UNL     1      -7.783   0.952   0.250  0.00  0.00    +0.023 A 
ATOM     20  C   UNL     1      -8.990   0.314   0.045  0.00  0.00    +0.005 A 
ATOM     21  C   UNL     1      -9.022  -1.047  -0.199  0.00  0.00    -0.050 A 
ATOM     22  C   UNL     1      -7.846  -1.774  -0.238  0.00  0.00    +0.008 A 
ATOM     23  C   UNL     1      -6.635  -1.141  -0.038  0.00  0.00    -0.029 A 
ATOM     24  C   UNL     1      -5.353  -1.933  -0.087  0.00  0.00    +0.045 C 
ATOM     25  C   UNL     1     -10.341  -1.740  -0.423  0.00  0.00    +0.044 C 
ENDBRANCH  15  18
ENDBRANCH   9  12
BRANCH   1  26
ATOM     26  S   UNL     1      -3.883   6.079   1.299  0.00  0.00    +0.028 S 
ATOM     27  O   UNL     1      -4.800   5.416   2.159  0.00  0.00    -0.164 OA
ATOM     28  O   UNL     1      -3.487   7.428   1.502  0.00  0.00    -0.164 OA
BRANCH  26  33
ATOM     29  C   UNL     1      -6.212   5.785  -4.260  0.00  0.00    +0.044 C 
ATOM     30  C   UNL     1      -5.630   5.859  -2.871  0.00  0.00    -0.050 A 
ATOM     31  C   UNL     1      -5.994   4.925  -1.919  0.00  0.00    +0.005 A 
ATOM     32  C   UNL     1      -5.461   4.992  -0.646  0.00  0.00    +0.027 A 
ATOM     33  C   UNL     1      -4.563   5.993  -0.325  0.00  0.00    +0.094 A 
ATOM     34  C   UNL     1      -4.203   6.930  -1.275  0.00  0.00    +0.027 A 
ATOM     35  C   UNL     1      -4.733   6.860  -2.550  0.00  0.00    +0.005 A 
ENDBRANCH  26  33
ENDBRANCH   1  26
TORSDOF 4
