REMARK  Name = ZINC15945708
REMARK  7 active torsions:
REMARK  status: ('A' for Active; 'I' for Inactive)
REMARK    1  A    between atoms: C_1  and  C_2
REMARK    2  A    between atoms: N_6  and  N_7
REMARK    3  A    between atoms: N_8  and  N_9
REMARK    4  A    between atoms: C_10  and  C_11
REMARK    5  A    between atoms: C_16  and  O_17
REMARK    6  A    between atoms: O_17  and  C_18
REMARK    7  A    between atoms: C_18  and  C_19
REMARK                            x       y       z     vdW  Elec       q    Type
REMARK                         _______ _______ _______ _____ _____    ______ ____
ROOT
ATOM      1  C   UNL     1       2.946   2.596  -5.769  0.00  0.00    +0.039 A 
ATOM      2  C   UNL     1       4.257   2.488  -6.240  0.00  0.00    +0.028 A 
ATOM      3  C   UNL     1       4.540   2.778  -7.559  0.00  0.00    +0.020 A 
ATOM      4  C   UNL     1       3.530   3.176  -8.419  0.00  0.00    +0.039 A 
ATOM      5  C   UNL     1       2.228   3.286  -7.964  0.00  0.00    +0.084 A 
ATOM      6  C   UNL     1       1.926   2.993  -6.644  0.00  0.00    +0.148 A 
ATOM      7 CL   UNL     1       0.970   3.786  -9.051  0.00  0.00    -0.080 Cl
ATOM      8 BR   UNL     1       6.315   2.631  -8.195  0.00  0.00    -0.050 Br
ENDROOT
BRANCH   1  10
ATOM      9  N   UNL     1       3.561   1.811  -3.583  0.00  0.00    -0.187 NA
ATOM     10  C   UNL     1       2.637   2.287  -4.362  0.00  0.00    +0.142 C 
BRANCH   9  17
ATOM     11  C   UNL     1       5.713  -0.091   1.740  0.00  0.00    +0.090 C 
ATOM     12  C   UNL     1       5.346   0.346   0.345  0.00  0.00    +0.149 A 
ATOM     13  N   UNL     1       6.159   0.461  -0.667  0.00  0.00    -0.131 NA
ATOM     14  N   UNL     1       5.514   0.856  -1.707  0.00  0.00    -0.110 NA
ATOM     15  C   UNL     1       4.244   1.010  -1.412  0.00  0.00    +0.254 A 
ATOM     16  N   UNL     1       4.099   0.696  -0.091  0.00  0.00    -0.220 N 
ATOM     17  N   UNL     1       3.242   1.418  -2.277  0.00  0.00    -0.204 N 
ATOM     18  H   UNL     1       2.320   1.432  -1.978  0.00  0.00    +0.177 HD
BRANCH  16  19
ATOM     19  N   UNL     1       2.946   0.720   0.640  0.00  0.00    -0.294 N 
ATOM     20  H   UNL     1       2.808   1.622   1.069  0.00  0.00    +0.163 HD
ATOM     21  H   UNL     1       2.152   0.465   0.071  0.00  0.00    +0.163 HD
ENDBRANCH  16  19
ENDBRANCH   9  17
ENDBRANCH   1  10
BRANCH   6  22
ATOM     22  O   UNL     1       0.647   3.095  -6.197  0.00  0.00    -0.485 OA
BRANCH  22  23
ATOM     23  C   UNL     1       0.231   4.371  -5.707  0.00  0.00    +0.264 C 
BRANCH  23  24
ATOM     24  C   UNL     1      -1.167   4.266  -5.153  0.00  0.00    -0.010 A 
ATOM     25  C   UNL     1      -2.255   4.394  -5.996  0.00  0.00    +0.010 A 
ATOM     26  C   UNL     1      -3.537   4.292  -5.489  0.00  0.00    +0.039 A 
ATOM     27  C   UNL     1      -3.731   4.072  -4.136  0.00  0.00    +0.123 A 
ATOM     28  C   UNL     1      -2.640   3.949  -3.293  0.00  0.00    +0.039 A 
ATOM     29  C   UNL     1      -1.359   4.046  -3.802  0.00  0.00    +0.010 A 
ATOM     30  F   UNL     1      -4.984   3.977  -3.640  0.00  0.00    -0.205 F 
ENDBRANCH  23  24
ENDBRANCH  22  23
ENDBRANCH   6  22
TORSDOF 6
