REMARK  Name = ZINC50635072
REMARK  7 active torsions:
REMARK  status: ('A' for Active; 'I' for Inactive)
REMARK    1  A    between atoms: C_1  and  C_2
REMARK    2  A    between atoms: C_2  and  C_3
REMARK    3  A    between atoms: C_3  and  N_4
REMARK    4  A    between atoms: N_4  and  C_5
REMARK    5  A    between atoms: C_8  and  S_11
REMARK    6  A    between atoms: S_11  and  N_14
REMARK    7  A    between atoms: C_17  and  C_20
REMARK                            x       y       z     vdW  Elec       q    Type
REMARK                         _______ _______ _______ _____ _____    ______ ____
ROOT
ATOM      1  C   UNL     1       1.386  -2.671   2.271  0.00  0.00    +0.027 A 
ATOM      2  C   UNL     1       1.984  -1.976   3.315  0.00  0.00    +0.025 A 
ATOM      3  C   UNL     1       2.599  -2.667   4.340  0.00  0.00    +0.031 A 
ATOM      4  C   UNL     1       2.622  -4.050   4.328  0.00  0.00    +0.113 A 
ATOM      5  C   UNL     1       2.029  -4.745   3.291  0.00  0.00    +0.031 A 
ATOM      6  C   UNL     1       1.406  -4.060   2.265  0.00  0.00    +0.025 A 
ENDROOT
BRANCH   4   7
ATOM      7  S   UNL     1       3.410  -4.927   5.637  0.00  0.00    +0.101 S 
ATOM      8  O   UNL     1       3.770  -6.199   5.115  0.00  0.00    -0.146 OA
ATOM      9  O   UNL     1       4.364  -4.040   6.205  0.00  0.00    -0.146 OA
BRANCH   7  10
ATOM     10  N   UNL     1       2.265  -5.201   6.802  0.00  0.00    -0.103 NA
ATOM     11  C   UNL     1       2.586  -5.842   7.898  0.00  0.00    +0.192 A 
ATOM     12  N   UNL     1       1.798  -6.177   8.977  0.00  0.00    -0.336 N 
ATOM     13  C   UNL     1       2.368  -6.856  10.014  0.00  0.00    +0.022 A 
ATOM     14  C   UNL     1       3.659  -7.182   9.973  0.00  0.00    +0.069 A 
ATOM     15  S   UNL     1       4.162  -6.525   8.391  0.00  0.00    -0.057 S 
ATOM     16  C   UNL     1       1.534  -7.237  11.211  0.00  0.00    +0.064 C 
ATOM     17  H   UNL     1       0.858  -5.935   8.999  0.00  0.00    +0.168 HD
ENDBRANCH   7  10
ENDBRANCH   4   7
BRANCH   1  18
ATOM     18  N   UNL     1       0.762  -1.976   1.234  0.00  0.00    -0.344 N 
ATOM     19  H   UNL     1       0.342  -2.462   0.507  0.00  0.00    +0.146 HD
BRANCH  18  20
ATOM     20  C   UNL     1       0.742  -0.511   1.242  0.00  0.00    +0.101 C 
BRANCH  20  22
ATOM     21  C   UNL     1      -0.019   1.526   0.010  0.00  0.00    +0.005 C 
ATOM     22  C   UNL     1       0.002  -0.004   0.002  0.00  0.00    +0.015 C 
ENDBRANCH  20  22
ENDBRANCH  18  20
ENDBRANCH   1  18
TORSDOF 5
