REMARK  Name = ZINC35355709
REMARK  3 active torsions:
REMARK  status: ('A' for Active; 'I' for Inactive)
REMARK    1  A    between atoms: C_5  and  N_8
REMARK    2  A    between atoms: C_6  and  N_7
REMARK    3  A    between atoms: C_12  and  C_15
REMARK                            x       y       z     vdW  Elec       q    Type
REMARK                         _______ _______ _______ _____ _____    ______ ____
ROOT
ATOM      1  C   UNL     1      -0.017   1.382   0.010  0.00  0.00    +0.030 A 
ATOM      2  C   UNL     1       1.170   2.091   0.002  0.00  0.00    -0.024 A 
ATOM      3  C   UNL     1       2.384   1.417  -0.013  0.00  0.00    +0.038 A 
ATOM      4  C   UNL     1       2.409   0.029  -0.021  0.00  0.00    +0.048 A 
ATOM      5  C   UNL     1       1.220  -0.684  -0.013  0.00  0.00    +0.052 A 
ATOM      6  C   UNL     1       0.002  -0.004   0.002  0.00  0.00    +0.046 A 
ATOM      7  N   UNL     1       3.584   2.140  -0.021  0.00  0.00    -0.285 N 
ATOM      8  C   UNL     1       3.604   3.432   0.356  0.00  0.00    +0.218 C 
ATOM      9  O   UNL     1       4.648   4.048   0.330  0.00  0.00    -0.275 OA
ATOM     10  C   UNL     1       2.345   4.121   0.808  0.00  0.00    +0.101 C 
ATOM     11  C   UNL     1       1.149   3.598   0.010  0.00  0.00    +0.046 C 
ATOM     12  H   UNL     1       4.406   1.707  -0.300  0.00  0.00    +0.155 HD
ENDROOT
BRANCH   5  13
ATOM     13  N   UNL     1       1.242  -2.084  -0.020  0.00  0.00    -0.328 N 
ATOM     14  C   UNL     1       1.247  -2.825  -1.288  0.00  0.00    +0.105 C 
ATOM     15  C   UNL     1       2.430  -3.799  -1.286  0.00  0.00    +0.020 C 
ATOM     16  C   UNL     1       2.354  -4.684  -0.040  0.00  0.00    +0.016 C 
ATOM     17  C   UNL     1       2.443  -3.812   1.214  0.00  0.00    +0.092 C 
ATOM     18  C   UNL     1       1.266  -2.839   1.240  0.00  0.00    +0.118 C 
BRANCH  17  19
ATOM     19  C   UNL     1       2.401  -4.688   2.440  0.00  0.00    +0.215 C 
ATOM     20  O   UNL     1       1.515  -4.547   3.256  0.00  0.00    -0.276 OA
ATOM     21  N   UNL     1       3.349  -5.628   2.629  0.00  0.00    -0.329 N 
ATOM     22  H   UNL     1       4.057  -5.741   1.976  0.00  0.00    +0.145 HD
ATOM     23  H   UNL     1       3.322  -6.192   3.418  0.00  0.00    +0.145 HD
ENDBRANCH  17  19
ENDBRANCH   5  13
BRANCH   6  24
ATOM     24  N   UNL     1      -1.202  -0.722   0.009  0.00  0.00    -0.357 N 
ATOM     25  H   UNL     1      -2.049  -0.249   0.020  0.00  0.00    +0.142 HD
ATOM     26  H   UNL     1      -1.189  -1.692   0.004  0.00  0.00    +0.142 HD
ENDBRANCH   6  24
TORSDOF 3
