REMARK  Name = ZINC08748581
REMARK  8 active torsions:
REMARK  status: ('A' for Active; 'I' for Inactive)
REMARK    1  A    between atoms: C_4  and  C_7
REMARK    2  A    between atoms: C_7  and  N_8
REMARK    3  A    between atoms: N_8  and  C_9
REMARK    4  A    between atoms: C_9  and  C_11
REMARK    5  A    between atoms: C_9  and  C_16
REMARK    6  A    between atoms: N_18  and  C_19
REMARK    7  A    between atoms: C_29  and  C_31
REMARK    8  A    between atoms: C_31  and  N_32
REMARK                            x       y       z     vdW  Elec       q    Type
REMARK                         _______ _______ _______ _____ _____    ______ ____
ROOT
ATOM      1  N   UNL     1       1.366  -2.324   0.208  0.00  0.00    -0.279 N 
ATOM      2  C   UNL     1       1.934  -3.461  -0.240  0.00  0.00    +0.235 C 
ATOM      3  O   UNL     1       2.498  -3.475  -1.314  0.00  0.00    -0.274 OA
ENDROOT
BRANCH   1   4
ATOM      4  C   UNL     1       0.799  -2.271   1.558  0.00  0.00    +0.144 C 
BRANCH   4   8
ATOM      5  C   UNL     1      -3.187  -3.806   1.490  0.00  0.00    +0.000 A 
ATOM      6  C   UNL     1      -2.114  -4.672   1.597  0.00  0.00    +0.000 A 
ATOM      7  C   UNL     1      -0.824  -4.175   1.619  0.00  0.00    +0.005 A 
ATOM      8  C   UNL     1      -0.607  -2.813   1.534  0.00  0.00    -0.030 A 
ATOM      9  C   UNL     1      -1.679  -1.947   1.432  0.00  0.00    +0.005 A 
ATOM     10  C   UNL     1      -2.969  -2.444   1.405  0.00  0.00    +0.000 A 
ENDBRANCH   4   8
ENDBRANCH   1   4
BRANCH   1  11
ATOM     11  C   UNL     1       1.316  -1.141  -0.655  0.00  0.00    +0.213 C 
BRANCH  11  12
ATOM     12  C   UNL     1       1.892   0.042   0.081  0.00  0.00    +0.101 A 
ATOM     13  C   UNL     1       2.436   1.116  -0.555  0.00  0.00    +0.094 A 
ATOM     14  S   UNL     1       2.903   2.098   0.794  0.00  0.00    +0.028 S 
ATOM     15  N   UNL     1       2.419   1.160   1.968  0.00  0.00    -0.110 NA
ATOM     16  N   UNL     1       1.909   0.130   1.394  0.00  0.00    -0.144 NA
ENDBRANCH  11  12
BRANCH  11  17
ATOM     17  C   UNL     1      -0.116  -0.852  -1.028  0.00  0.00    +0.240 C 
ATOM     18  O   UNL     1      -0.938  -1.743  -1.014  0.00  0.00    -0.273 OA
ATOM     19  N   UNL     1      -0.482   0.397  -1.376  0.00  0.00    -0.308 N 
ATOM     20  H   UNL     1       0.176   1.110  -1.387  0.00  0.00    +0.149 HD
BRANCH  19  21
ATOM     21  C   UNL     1      -1.872   0.677  -1.745  0.00  0.00    +0.035 C 
ATOM     22  C   UNL     1      -2.789   0.338  -0.568  0.00  0.00    +0.029 C 
ATOM     23  C   UNL     1      -4.241   0.630  -0.953  0.00  0.00    -0.008 C 
ATOM     24  C   UNL     1      -4.388   2.112  -1.303  0.00  0.00    +0.007 C 
ATOM     25  C   UNL     1      -3.470   2.452  -2.479  0.00  0.00    -0.008 C 
ATOM     26  C   UNL     1      -2.018   2.159  -2.094  0.00  0.00    +0.029 C 
ATOM     27  C   UNL     1      -3.858   1.601  -3.690  0.00  0.00    +0.007 C 
ATOM     28  C   UNL     1      -3.711   0.119  -3.341  0.00  0.00    -0.008 C 
ATOM     29  C   UNL     1      -4.629  -0.221  -2.164  0.00  0.00    +0.007 C 
ATOM     30  C   UNL     1      -2.260  -0.173  -2.956  0.00  0.00    +0.029 C 
ENDBRANCH  19  21
ENDBRANCH  11  17
ENDBRANCH   1  11
BRANCH   2  31
ATOM     31  C   UNL     1       1.868  -4.715   0.592  0.00  0.00    +0.212 C 
BRANCH  31  32
ATOM     32  N   UNL     1       2.891  -5.660   0.135  0.00  0.00    -0.225 N 
ATOM     33  C   UNL     1       2.695  -6.592  -0.816  0.00  0.00    +0.254 C 
ATOM     34  O   UNL     1       1.659  -6.780  -1.421  0.00  0.00    -0.270 OA
ATOM     35  C   UNL     1       3.953  -7.346  -1.002  0.00  0.00    +0.049 A 
ATOM     36  C   UNL     1       4.341  -8.393  -1.822  0.00  0.00    +0.014 A 
ATOM     37  C   UNL     1       5.634  -8.886  -1.741  0.00  0.00    +0.001 A 
ATOM     38  C   UNL     1       6.538  -8.340  -0.849  0.00  0.00    +0.001 A 
ATOM     39  C   UNL     1       6.164  -7.292  -0.022  0.00  0.00    +0.014 A 
ATOM     40  C   UNL     1       4.875  -6.789  -0.092  0.00  0.00    +0.049 A 
ATOM     41  C   UNL     1       4.147  -5.713   0.613  0.00  0.00    +0.254 C 
ATOM     42  O   UNL     1       4.606  -4.996   1.479  0.00  0.00    -0.270 OA
ENDBRANCH  31  32
ENDBRANCH   2  31
TORSDOF 8
