REMARK  Name = ZINC37867397
REMARK  9 active torsions:
REMARK  status: ('A' for Active; 'I' for Inactive)
REMARK    1  A    between atoms: C_1  and  C_2
REMARK    2  A    between atoms: C_5  and  O_9
REMARK    3  A    between atoms: O_9  and  C_10
REMARK    4  A    between atoms: C_10  and  C_11
REMARK    5  A    between atoms: N_13  and  N_14
REMARK    6  A    between atoms: N_14  and  C_15
REMARK    7  A    between atoms: C_15  and  C_16
REMARK    8  A    between atoms: C_17  and  C_18
REMARK    9  A    between atoms: N_20  and  C_21
REMARK                            x       y       z     vdW  Elec       q    Type
REMARK                         _______ _______ _______ _____ _____    ______ ____
ROOT
ATOM      1  C   UNL     1       0.171  -9.299  -3.175  0.00  0.00    +0.024 C 
ATOM      2  C   UNL     1       0.582 -10.735  -2.970  0.00  0.00    +0.062 C 
ATOM      3  C   UNL     1       0.076  -8.797  -4.423  0.00  0.00    +0.087 C 
ENDROOT
BRANCH   3   4
ATOM      4  C   UNL     1       0.204  -9.653  -5.542  0.00  0.00    +0.243 C 
ATOM      5  O   UNL     1       0.263 -10.859  -5.382  0.00  0.00    -0.270 OA
ATOM      6  N   UNL     1       0.260  -9.134  -6.784  0.00  0.00    -0.282 N 
ATOM      7  H   UNL     1       0.149  -8.180  -6.917  0.00  0.00    +0.155 HD
BRANCH   6   8
ATOM      8  C   UNL     1       0.478  -9.973  -7.884  0.00  0.00    +0.037 A 
ATOM      9  C   UNL     1      -0.065 -11.251  -7.901  0.00  0.00    +0.027 A 
ATOM     10  C   UNL     1       0.151 -12.080  -8.985  0.00  0.00    +0.051 A 
ATOM     11  C   UNL     1       0.909 -11.638 -10.059  0.00  0.00    +0.162 A 
ATOM     12  C   UNL     1       1.451 -10.358 -10.047  0.00  0.00    +0.164 A 
ATOM     13  C   UNL     1       1.231  -9.526  -8.960  0.00  0.00    +0.072 A 
ATOM     14  O   UNL     1       2.191  -9.905 -11.095  0.00  0.00    -0.485 OA
ATOM     15  C   UNL     1       2.698 -10.892 -12.000  0.00  0.00    +0.270 C 
ATOM     16  C   UNL     1       1.560 -11.865 -12.336  0.00  0.00    +0.270 C 
ATOM     17  O   UNL     1       1.115 -12.471 -11.118  0.00  0.00    -0.485 OA
ENDBRANCH   6   8
ENDBRANCH   3   4
BRANCH   1  18
ATOM     18  N   UNL     1      -0.105  -8.507  -2.096  0.00  0.00    -0.269 N 
ATOM     19  H   UNL     1      -0.036  -8.868  -1.198  0.00  0.00    +0.170 HD
BRANCH  18  22
ATOM     20  C   UNL     1      -0.758  -6.391  -1.223  0.00  0.00    +0.267 C 
ATOM     21  O   UNL     1      -0.673  -6.842  -0.101  0.00  0.00    -0.271 OA
ATOM     22  N   UNL     1      -0.486  -7.172  -2.287  0.00  0.00    -0.234 N 
ATOM     23  H   UNL     1      -0.555  -6.811  -3.184  0.00  0.00    +0.173 HD
BRANCH  20  24
ATOM     24  C   UNL     1      -1.169  -4.955  -1.428  0.00  0.00    +0.326 C 
BRANCH  24  25
ATOM     25  O   UNL     1      -1.401  -4.340  -0.159  0.00  0.00    -0.482 OA
BRANCH  25  30
ATOM     26  C   UNL     1      -2.981   1.067  -0.190  0.00  0.00    +0.044 C 
ATOM     27  C   UNL     1      -2.558  -0.380  -0.181  0.00  0.00    -0.049 A 
ATOM     28  C   UNL     1      -2.317  -1.035  -1.375  0.00  0.00    +0.007 A 
ATOM     29  C   UNL     1      -1.929  -2.361  -1.370  0.00  0.00    +0.047 A 
ATOM     30  C   UNL     1      -1.782  -3.035  -0.166  0.00  0.00    +0.135 A 
ATOM     31  C   UNL     1      -2.024  -2.375   1.030  0.00  0.00    +0.060 A 
ATOM     32  C   UNL     1      -2.407  -1.047   1.020  0.00  0.00    +0.022 A 
ATOM     33 BR   UNL     1      -1.825  -3.290   2.673  0.00  0.00    -0.047 Br
ENDBRANCH  25  30
ENDBRANCH  24  25
ENDBRANCH  20  24
ENDBRANCH  18  22
ENDBRANCH   1  18
TORSDOF 7
