REMARK  Name = ZINC40132688
REMARK  7 active torsions:
REMARK  status: ('A' for Active; 'I' for Inactive)
REMARK    1  A    between atoms: C_1  and  C_2
REMARK    2  A    between atoms: C_4  and  C_31
REMARK    3  A    between atoms: C_11  and  C_12
REMARK    4  A    between atoms: C_15  and  O_18
REMARK    5  A    between atoms: O_18  and  C_19
REMARK    6  A    between atoms: C_19  and  C_21
REMARK    7  A    between atoms: C_22  and  C_23
REMARK                            x       y       z     vdW  Elec       q    Type
REMARK                         _______ _______ _______ _____ _____    ______ ____
ROOT
ATOM      1  C   UNL     1       0.211  -6.819   1.232  0.00  0.00    -0.021 A 
ATOM      2  C   UNL     1       0.307  -6.680  -0.158  0.00  0.00    +0.011 A 
ATOM      3  C   UNL     1       0.421  -7.797  -0.953  0.00  0.00    +0.047 A 
ATOM      4  C   UNL     1       0.442  -9.063  -0.378  0.00  0.00    +0.132 A 
ATOM      5  C   UNL     1       0.347  -9.208   1.001  0.00  0.00    +0.047 A 
ATOM      6  C   UNL     1       0.238  -8.097   1.806  0.00  0.00    +0.011 A 
ENDROOT
BRANCH   1  17
ATOM      7  C   UNL     1       0.275  -5.260   9.505  0.00  0.00    +0.044 C 
ATOM      8  C   UNL     1       0.250  -5.761   8.084  0.00  0.00    -0.049 A 
ATOM      9  C   UNL     1       0.276  -7.123   7.828  0.00  0.00    +0.010 A 
ATOM     10  C   UNL     1       0.253  -7.598   6.534  0.00  0.00    -0.007 A 
ATOM     11  C   UNL     1       0.203  -6.710   5.464  0.00  0.00    +0.142 A 
ATOM     12  C   UNL     1       0.176  -5.332   5.726  0.00  0.00    +0.068 A 
ATOM     13  C   UNL     1       0.195  -4.864   7.039  0.00  0.00    +0.019 A 
ATOM     14  C   UNL     1       0.125  -4.660   4.413  0.00  0.00    +0.231 C 
ATOM     15  O   UNL     1       0.090  -3.462   4.189  0.00  0.00    -0.283 OA
ATOM     16  C   UNL     1       0.127  -5.758   3.437  0.00  0.00    +0.176 C 
ATOM     17  C   UNL     1       0.088  -5.631   2.085  0.00  0.00    +0.058 C 
ATOM     18  O   UNL     1       0.173  -6.920   4.130  0.00  0.00    -0.451 OA
ATOM     19  C   UNL     1       0.283  -9.083   6.278  0.00  0.00    +0.047 C 
ENDBRANCH   1  17
BRANCH   4  20
ATOM     20  O   UNL     1       0.555 -10.162  -1.167  0.00  0.00    -0.423 OA
BRANCH  20  21
ATOM     21  C   UNL     1       1.765 -10.441  -1.696  0.00  0.00    +0.337 C 
ATOM     22  O   UNL     1       2.691  -9.670  -1.535  0.00  0.00    -0.245 OA
BRANCH  21  23
ATOM     23  C   UNL     1       1.962 -11.671  -2.461  0.00  0.00    +0.092 C 
ATOM     24  C   UNL     1       3.172 -11.950  -2.989  0.00  0.00    +0.016 C 
BRANCH  24  25
ATOM     25  C   UNL     1       3.371 -13.188  -3.759  0.00  0.00    -0.006 A 
ATOM     26  C   UNL     1       2.306 -14.075  -3.951  0.00  0.00    +0.009 A 
ATOM     27  C   UNL     1       2.500 -15.232  -4.674  0.00  0.00    +0.001 A 
ATOM     28  C   UNL     1       3.744 -15.519  -5.210  0.00  0.00    +0.001 A 
ATOM     29  C   UNL     1       4.803 -14.648  -5.025  0.00  0.00    +0.020 A 
ATOM     30  C   UNL     1       4.624 -13.481  -4.309  0.00  0.00    +0.048 A 
ATOM     31 CL   UNL     1       5.951 -12.385  -4.085  0.00  0.00    -0.083 Cl
ENDBRANCH  24  25
ENDBRANCH  21  23
ENDBRANCH  20  21
ENDBRANCH   4  20
TORSDOF 5
