REMARK  Name = ZINC11129146
REMARK  6 active torsions:
REMARK  status: ('A' for Active; 'I' for Inactive)
REMARK    1  A    between atoms: C_4  and  C_8
REMARK    2  A    between atoms: C_8  and  O_10
REMARK    3  A    between atoms: O_10  and  C_11
REMARK    4  A    between atoms: C_11  and  C_12
REMARK    5  A    between atoms: N_14  and  C_15
REMARK    6  A    between atoms: C_18  and  N_22
REMARK                            x       y       z     vdW  Elec       q    Type
REMARK                         _______ _______ _______ _____ _____    ______ ____
ROOT
ATOM      1  C   UNL     1      -3.586   3.201  -0.348  0.00  0.00    +0.255 C 
ATOM      2  O   UNL     1      -3.561   2.021  -0.627  0.00  0.00    -0.272 OA
ATOM      3  N   UNL     1      -2.457   3.825   0.045  0.00  0.00    -0.281 N 
ATOM      4  H   UNL     1      -2.491   4.749   0.338  0.00  0.00    +0.155 HD
ENDROOT
BRANCH   3   5
ATOM      5  C   UNL     1      -1.237   3.139   0.029  0.00  0.00    +0.062 A 
ATOM      6  C   UNL     1      -0.812   2.449   1.157  0.00  0.00    +0.042 A 
ATOM      7  C   UNL     1       0.396   1.777   1.140  0.00  0.00    +0.050 A 
ATOM      8  C   UNL     1       1.176   1.783  -0.002  0.00  0.00    +0.128 A 
ATOM      9  C   UNL     1       0.754   2.465  -1.128  0.00  0.00    +0.050 A 
ATOM     10  C   UNL     1      -0.451   3.143  -1.116  0.00  0.00    +0.042 A 
ATOM     11 BR   UNL     1      -1.027   4.076  -2.657  0.00  0.00    -0.048 Br
ATOM     12 BR   UNL     1      -1.881   2.433   2.717  0.00  0.00    -0.048 Br
BRANCH   8  13
ATOM     13  N   UNL     1       2.467   1.058  -0.018  0.00  0.00    +0.056 N 
ATOM     14  O   UNL     1       2.840   0.457   0.974  0.00  0.00    -0.126 OA
ATOM     15  O   UNL     1       3.155   1.062  -1.023  0.00  0.00    -0.126 OA
ENDBRANCH   8  13
ENDBRANCH   3   5
BRANCH   1  16
ATOM     16  C   UNL     1      -4.879   3.970  -0.439  0.00  0.00    +0.328 C 
BRANCH  16  17
ATOM     17  O   UNL     1      -5.939   3.082  -0.881  0.00  0.00    -0.452 OA
BRANCH  17  18
ATOM     18  C   UNL     1      -7.169   3.616  -1.015  0.00  0.00    +0.345 C 
ATOM     19  O   UNL     1      -7.350   4.793  -0.770  0.00  0.00    -0.245 OA
BRANCH  18  23
ATOM     20  C   UNL     1     -10.412   1.191  -2.295  0.00  0.00    +0.006 A 
ATOM     21  C   UNL     1      -9.643   1.859  -3.230  0.00  0.00    +0.039 A 
ATOM     22  C   UNL     1      -8.585   2.650  -2.823  0.00  0.00    +0.140 A 
ATOM     23  C   UNL     1      -8.294   2.775  -1.459  0.00  0.00    +0.129 A 
ATOM     24  C   UNL     1      -9.075   2.091  -0.520  0.00  0.00    +0.140 A 
ATOM     25  C   UNL     1     -10.132   1.308  -0.946  0.00  0.00    +0.039 A 
ATOM     26  F   UNL     1      -8.800   2.199   0.798  0.00  0.00    -0.205 F 
ATOM     27  F   UNL     1      -7.834   3.301  -3.738  0.00  0.00    -0.205 F 
ENDBRANCH  18  23
ENDBRANCH  17  18
ENDBRANCH  16  17
ENDBRANCH   1  16
TORSDOF 6
