REMARK  Name = ZINC23518292
REMARK  12 active torsions:
REMARK  status: ('A' for Active; 'I' for Inactive)
REMARK    1  A    between atoms: C_1  and  C_2
REMARK    2  A    between atoms: C_5  and  N_32
REMARK    3  A    between atoms: C_7  and  N_8
REMARK    4  A    between atoms: C_9  and  C_11
REMARK    5  A    between atoms: C_11  and  C_13
REMARK    6  A    between atoms: C_11  and  S_14
REMARK    7  A    between atoms: S_14  and  C_15
REMARK    8  A    between atoms: C_18  and  C_23
REMARK    9  A    between atoms: N_19  and  C_20
REMARK   10  A    between atoms: C_20  and  C_21
REMARK   11  A    between atoms: C_23  and  O_24
REMARK   12  A    between atoms: O_24  and  C_25
REMARK                            x       y       z     vdW  Elec       q    Type
REMARK                         _______ _______ _______ _____ _____    ______ ____
ROOT
ATOM      1  S   UNL     1      -6.175   2.413   0.956  0.00  0.00    -0.074 S 
ENDROOT
BRANCH   1   2
ATOM      2  C   UNL     1      -7.487   1.248   1.115  0.00  0.00    +0.193 A 
ATOM      3  N   UNL     1      -7.449  -0.020   0.777  0.00  0.00    -0.122 NA
ATOM      4  N   UNL     1      -8.581  -0.574   1.033  0.00  0.00    -0.130 NA
ATOM      5  C   UNL     1      -9.403   0.302   1.537  0.00  0.00    +0.172 A 
ATOM      6  N   UNL     1      -8.736   1.494   1.607  0.00  0.00    -0.299 N 
BRANCH   6   7
ATOM      7  C   UNL     1      -9.255   2.770   2.107  0.00  0.00    +0.152 C 
BRANCH   7   8
ATOM      8  C   UNL     1      -9.882   3.537   0.972  0.00  0.00    -0.013 C 
ATOM      9  C   UNL     1     -11.121   3.951   1.067  0.00  0.00    +0.005 C 
ENDBRANCH   7   8
ENDBRANCH   6   7
BRANCH   5  10
ATOM     10  C   UNL     1     -10.827   0.049   1.963  0.00  0.00    +0.305 C 
BRANCH  10  11
ATOM     11  O   UNL     1     -11.703   0.281   0.859  0.00  0.00    -0.481 OA
BRANCH  11  12
ATOM     12  C   UNL     1     -13.032   0.096   1.076  0.00  0.00    +0.156 A 
ATOM     13  C   UNL     1     -13.483  -0.307   2.325  0.00  0.00    +0.048 A 
ATOM     14  C   UNL     1     -14.834  -0.490   2.545  0.00  0.00    +0.004 A 
ATOM     15  C   UNL     1     -15.738  -0.283   1.519  0.00  0.00    +0.003 A 
ATOM     16  C   UNL     1     -15.293   0.114   0.272  0.00  0.00    +0.042 A 
ATOM     17  C   UNL     1     -13.942   0.304   0.047  0.00  0.00    +0.165 A 
ATOM     18  F   UNL     1     -13.506   0.690  -1.172  0.00  0.00    -0.202 F 
ENDBRANCH  11  12
ENDBRANCH  10  11
ENDBRANCH   5  10
ENDBRANCH   1   2
BRANCH   1  19
ATOM     19  C   UNL     1      -4.894   1.350   0.247  0.00  0.00    +0.137 C 
ATOM     20  C   UNL     1      -5.332   0.879  -1.142  0.00  0.00    +0.029 C 
BRANCH  19  22
ATOM     21  N   UNL     1      -2.433   1.468   0.021  0.00  0.00    -0.284 N 
ATOM     22  C   UNL     1      -3.606   2.123   0.132  0.00  0.00    +0.230 C 
ATOM     23  O   UNL     1      -3.624   3.336   0.139  0.00  0.00    -0.274 OA
ATOM     24  H   UNL     1      -2.423   0.372  -0.077  0.00  0.00    +0.155 HD
BRANCH  21  31
ATOM     25  C   UNL     1      -0.166   0.293  -1.234  0.00  0.00    +0.045 C 
ATOM     26  C   UNL     1      -0.098   1.644  -0.571  0.00  0.00    -0.029 A 
ATOM     27  C   UNL     1       1.087   2.353  -0.565  0.00  0.00    +0.007 A 
ATOM     28  C   UNL     1       1.150   3.593   0.044  0.00  0.00    +0.033 A 
ATOM     29  C   UNL     1       0.027   4.127   0.649  0.00  0.00    +0.128 A 
ATOM     30  C   UNL     1      -1.161   3.424   0.646  0.00  0.00    +0.056 A 
ATOM     31  C   UNL     1      -1.229   2.180   0.031  0.00  0.00    +0.038 A 
BRANCH  29  32
ATOM     32  N   UNL     1       0.098   5.455   1.299  0.00  0.00    +0.056 N 
ATOM     33  O   UNL     1       1.146   6.076   1.302  0.00  0.00    -0.126 OA
ATOM     34  O   UNL     1      -0.890   5.926   1.832  0.00  0.00    -0.126 OA
ENDBRANCH  29  32
ENDBRANCH  21  31
ENDBRANCH  19  22
ENDBRANCH   1  19
TORSDOF 10
