REMARK  Name = ZINC35380546
REMARK  7 active torsions:
REMARK  status: ('A' for Active; 'I' for Inactive)
REMARK    1  A    between atoms: C_1  and  C_2
REMARK    2  A    between atoms: C_8  and  N_10
REMARK    3  A    between atoms: C_11  and  C_13
REMARK    4  A    between atoms: C_13  and  O_14
REMARK    5  A    between atoms: O_14  and  C_15
REMARK    6  A    between atoms: C_15  and  C_17
REMARK    7  A    between atoms: C_19  and  N_25
REMARK                            x       y       z     vdW  Elec       q    Type
REMARK                         _______ _______ _______ _____ _____    ______ ____
ROOT
ATOM      1  C   UNL     1       5.969   1.144   3.881  0.00  0.00    +0.360 C 
ATOM      2  O   UNL     1       6.625   1.484   2.917  0.00  0.00    -0.243 OA
ENDROOT
BRANCH   1   3
ATOM      3  C   UNL     1       6.554   1.220   5.238  0.00  0.00    +0.169 A 
ATOM      4  C   UNL     1       7.854   1.689   5.403  0.00  0.00    +0.095 A 
ATOM      5  C   UNL     1       8.391   1.755   6.689  0.00  0.00    +0.067 A 
ATOM      6  C   UNL     1       7.596   1.347   7.760  0.00  0.00    +0.100 A 
ATOM      7  C   UNL     1       6.310   0.893   7.514  0.00  0.00    +0.150 A 
ATOM      8  N   UNL     1       5.830   0.847   6.289  0.00  0.00    -0.226 NA
ATOM      9 CL   UNL     1       5.315   0.384   8.842  0.00  0.00    -0.060 Cl
ATOM     10 CL   UNL     1       8.211   1.407   9.382  0.00  0.00    -0.078 Cl
ATOM     11 CL   UNL     1       8.794   2.182   4.029  0.00  0.00    -0.079 Cl
BRANCH   5  12
ATOM     12  N   UNL     1       9.689   2.217   6.899  0.00  0.00    -0.356 N 
ATOM     13  H   UNL     1      10.231   2.498   6.145  0.00  0.00    +0.142 HD
ATOM     14  H   UNL     1      10.050   2.258   7.798  0.00  0.00    +0.142 HD
ENDBRANCH   5  12
ENDBRANCH   1   3
BRANCH   1  15
ATOM     15  O   UNL     1       4.709   0.697   3.715  0.00  0.00    -0.451 OA
BRANCH  15  16
ATOM     16  C   UNL     1       4.209   0.649   2.377  0.00  0.00    +0.328 C 
BRANCH  16  18
ATOM     17  N   UNL     1       2.116  -0.004   1.231  0.00  0.00    -0.309 N 
ATOM     18  C   UNL     1       2.795   0.128   2.388  0.00  0.00    +0.251 C 
ATOM     19  O   UNL     1       2.268  -0.174   3.438  0.00  0.00    -0.272 OA
ATOM     20  H   UNL     1       2.538   0.237   0.392  0.00  0.00    +0.149 HD
BRANCH  17  27
ATOM     21  C   UNL     1      -0.019   1.526   0.010  0.00  0.00    +0.009 C 
ATOM     22  C   UNL     1       0.002  -0.004   0.002  0.00  0.00    +0.006 C 
ATOM     23  C   UNL     1       0.718  -0.497  -1.257  0.00  0.00    +0.005 C 
ATOM     24  C   UNL     1       0.739  -2.027  -1.265  0.00  0.00    +0.000 C 
ATOM     25  C   UNL     1       1.479  -2.534  -0.026  0.00  0.00    +0.002 C 
ATOM     26  C   UNL     1       0.763  -2.041   1.233  0.00  0.00    +0.022 C 
ATOM     27  C   UNL     1       0.742  -0.511   1.242  0.00  0.00    +0.076 C 
ENDBRANCH  17  27
ENDBRANCH  16  18
ENDBRANCH  15  16
ENDBRANCH   1  15
TORSDOF 6
