REMARK  Name = ZINC27520261
REMARK  7 active torsions:
REMARK  status: ('A' for Active; 'I' for Inactive)
REMARK    1  A    between atoms: C_1  and  C_2
REMARK    2  A    between atoms: C_2  and  O_3
REMARK    3  A    between atoms: O_3  and  C_4
REMARK    4  A    between atoms: N_12  and  C_13
REMARK    5  A    between atoms: C_14  and  C_22
REMARK    6  A    between atoms: C_24  and  C_26
REMARK    7  A    between atoms: N_28  and  C_29
REMARK                            x       y       z     vdW  Elec       q    Type
REMARK                         _______ _______ _______ _____ _____    ______ ____
ROOT
ATOM      1  C   UNL     1       4.974   3.876  -0.256  0.00  0.00    +0.163 A 
ATOM      2  C   UNL     1       5.070   5.227   0.031  0.00  0.00    +0.049 A 
ATOM      3  C   UNL     1       3.934   5.973   0.309  0.00  0.00    +0.004 A 
ATOM      4  C   UNL     1       2.692   5.380   0.306  0.00  0.00    +0.012 A 
ATOM      5  C   UNL     1       2.576   4.013   0.023  0.00  0.00    +0.022 A 
ATOM      6  C   UNL     1       3.727   3.258  -0.265  0.00  0.00    +0.179 A 
ATOM      7  O   UNL     1       3.614   1.937  -0.548  0.00  0.00    -0.435 OA
ATOM      8  C   UNL     1       2.556   1.279  -0.011  0.00  0.00    +0.212 A 
ATOM      9  N   UNL     1       2.690   0.062   0.480  0.00  0.00    -0.319 N 
ATOM     10  C   UNL     1       1.251   1.966   0.007  0.00  0.00    +0.098 A 
ATOM     11  C   UNL     1       1.267   3.356   0.018  0.00  0.00    +0.030 A 
ATOM     12  H   UNL     1       1.821  -0.456   0.912  0.00  0.00    +0.169 HD
ENDROOT
BRANCH   9  13
ATOM     13  C   UNL     1       3.892  -0.547   0.453  0.00  0.00    +0.098 A 
ATOM     14  C   UNL     1       4.244  -1.819   0.922  0.00  0.00    +0.086 A 
ATOM     15  C   UNL     1       5.626  -2.236   0.762  0.00  0.00    -0.018 A 
ATOM     16  C   UNL     1       6.458  -1.343   0.179  0.00  0.00    -0.004 A 
ATOM     17  S   UNL     1       5.443   0.064  -0.181  0.00  0.00    -0.075 S 
ATOM     18  C   UNL     1       7.920  -1.514  -0.097  0.00  0.00    +0.043 C 
ATOM     19  C   UNL     1       8.431  -2.713   0.715  0.00  0.00    +0.005 C 
ATOM     20  C   UNL     1       7.466  -3.887   0.516  0.00  0.00    +0.005 C 
ATOM     21  C   UNL     1       6.142  -3.596   1.222  0.00  0.00    +0.037 C 
BRANCH  14  22
ATOM     22  C   UNL     1       3.275  -2.679   1.532  0.00  0.00    +0.102 C 
ATOM     23  N   UNL     1       2.507  -3.361   2.016  0.00  0.00    -0.191 NA
ENDBRANCH  14  22
ENDBRANCH   9  13
BRANCH  10  24
ATOM     24  C   UNL     1      -0.014   1.212   0.007  0.00  0.00    +0.253 C 
ATOM     25  O   UNL     1       0.002  -0.004  -0.009  0.00  0.00    -0.270 OA
ATOM     26  N   UNL     1      -1.191   1.870   0.018  0.00  0.00    -0.281 N 
ATOM     27  H   UNL     1      -1.207   2.966   0.109  0.00  0.00    +0.155 HD
BRANCH  26  28
ATOM     28  C   UNL     1      -2.390   1.159  -0.086  0.00  0.00    +0.034 A 
ATOM     29  C   UNL     1      -3.468   1.708  -0.769  0.00  0.00    +0.023 A 
ATOM     30  C   UNL     1      -4.649   1.001  -0.874  0.00  0.00    +0.002 A 
ATOM     31  C   UNL     1      -4.764  -0.247  -0.290  0.00  0.00    +0.000 A 
ATOM     32  C   UNL     1      -3.695  -0.794   0.395  0.00  0.00    +0.002 A 
ATOM     33  C   UNL     1      -2.509  -0.095   0.499  0.00  0.00    +0.023 A 
ENDBRANCH  26  28
ENDBRANCH  10  24
BRANCH   1  34
ATOM     34  O   UNL     1       6.094   3.155  -0.527  0.00  0.00    -0.489 OA
BRANCH  34  36
ATOM     35  C   UNL     1       8.477   2.888  -0.828  0.00  0.00    +0.048 C 
ATOM     36  C   UNL     1       7.339   3.857  -0.500  0.00  0.00    +0.226 C 
ENDBRANCH  34  36
ENDBRANCH   1  34
TORSDOF 6
