REMARK  Name = ZINC08712909
REMARK  8 active torsions:
REMARK  status: ('A' for Active; 'I' for Inactive)
REMARK    1  A    between atoms: N_11  and  C_12
REMARK    2  A    between atoms: C_12  and  C_13
REMARK    3  A    between atoms: N_15  and  C_16
REMARK    4  A    between atoms: N_15  and  C_24
REMARK    5  A    between atoms: C_16  and  C_17
REMARK    6  A    between atoms: C_24  and  C_26
REMARK    7  A    between atoms: C_24  and  C_33
REMARK    8  A    between atoms: N_35  and  C_36
REMARK                            x       y       z     vdW  Elec       q    Type
REMARK                         _______ _______ _______ _____ _____    ______ ____
ROOT
ATOM      1  C   UNL     1      -3.001   1.030   0.164  0.00  0.00    +0.235 C 
ATOM      2  O   UNL     1      -1.844   1.369   0.299  0.00  0.00    -0.274 OA
ATOM      3  N   UNL     1      -3.777   0.838   1.249  0.00  0.00    -0.280 N 
ENDROOT
BRANCH   1   4
ATOM      4  C   UNL     1      -3.570   0.824  -1.216  0.00  0.00    +0.210 C 
BRANCH   4  15
ATOM      5  C   UNL     1       0.440  -0.836  -4.174  0.00  0.00    +0.001 A 
ATOM      6  C   UNL     1      -0.319  -1.548  -3.260  0.00  0.00    +0.002 A 
ATOM      7  C   UNL     1      -1.344  -0.934  -2.564  0.00  0.00    +0.024 A 
ATOM      8  C   UNL     1      -1.625   0.409  -2.775  0.00  0.00    +0.048 A 
ATOM      9  C   UNL     1      -0.853   1.129  -3.702  0.00  0.00    +0.048 A 
ATOM     10  C   UNL     1       0.178   0.500  -4.399  0.00  0.00    +0.014 A 
ATOM     11  C   UNL     1      -1.379   2.507  -3.708  0.00  0.00    +0.250 C 
ATOM     12  O   UNL     1      -0.990   3.445  -4.372  0.00  0.00    -0.282 OA
ATOM     13  C   UNL     1      -2.501   2.494  -2.712  0.00  0.00    +0.292 C 
ATOM     14  O   UNL     1      -3.205   3.435  -2.412  0.00  0.00    -0.266 OA
ATOM     15  N   UNL     1      -2.588   1.247  -2.217  0.00  0.00    -0.255 N 
ENDBRANCH   4  15
ENDBRANCH   1   4
BRANCH   3  16
ATOM     16  C   UNL     1      -5.057   0.137   1.119  0.00  0.00    +0.144 C 
BRANCH  16  17
ATOM     17  C   UNL     1      -4.842  -1.342   1.313  0.00  0.00    -0.030 A 
ATOM     18  C   UNL     1      -3.790  -1.976   0.678  0.00  0.00    +0.008 A 
ATOM     19  C   UNL     1      -3.589  -3.331   0.859  0.00  0.00    +0.038 A 
ATOM     20  C   UNL     1      -4.448  -4.056   1.668  0.00  0.00    +0.123 A 
ATOM     21  C   UNL     1      -5.504  -3.421   2.300  0.00  0.00    +0.038 A 
ATOM     22  C   UNL     1      -5.700  -2.064   2.121  0.00  0.00    +0.008 A 
ATOM     23  F   UNL     1      -4.255  -5.381   1.842  0.00  0.00    -0.205 F 
ENDBRANCH  16  17
ENDBRANCH   3  16
BRANCH   3  24
ATOM     24  C   UNL     1      -3.341   1.330   2.558  0.00  0.00    +0.193 C 
BRANCH  24  25
ATOM     25  C   UNL     1      -3.271   2.836   2.531  0.00  0.00    -0.018 A 
ATOM     26  C   UNL     1      -4.309   3.566   1.984  0.00  0.00    +0.009 A 
ATOM     27  C   UNL     1      -4.248   4.946   1.964  0.00  0.00    +0.038 A 
ATOM     28  C   UNL     1      -3.141   5.597   2.481  0.00  0.00    +0.123 A 
ATOM     29  C   UNL     1      -2.099   4.865   3.023  0.00  0.00    +0.038 A 
ATOM     30  C   UNL     1      -2.165   3.484   3.048  0.00  0.00    +0.009 A 
ATOM     31  F   UNL     1      -3.077   6.947   2.455  0.00  0.00    -0.205 F 
ENDBRANCH  24  25
BRANCH  24  32
ATOM     32  C   UNL     1      -4.325   0.893   3.613  0.00  0.00    +0.242 C 
ATOM     33  O   UNL     1      -5.129   0.018   3.367  0.00  0.00    -0.273 OA
ATOM     34  N   UNL     1      -4.313   1.474   4.829  0.00  0.00    -0.284 N 
ATOM     35  H   UNL     1      -3.659   2.160   5.031  0.00  0.00    +0.155 HD
BRANCH  34  36
ATOM     36  C   UNL     1      -5.245   1.085   5.800  0.00  0.00    +0.037 A 
ATOM     37  C   UNL     1      -6.599   1.059   5.492  0.00  0.00    +0.027 A 
ATOM     38  C   UNL     1      -7.519   0.673   6.448  0.00  0.00    +0.051 A 
ATOM     39  C   UNL     1      -7.094   0.319   7.718  0.00  0.00    +0.166 A 
ATOM     40  C   UNL     1      -5.737   0.349   8.032  0.00  0.00    +0.168 A 
ATOM     41  C   UNL     1      -4.816   0.732   7.072  0.00  0.00    +0.072 A 
ATOM     42  O   UNL     1      -5.581  -0.038   9.332  0.00  0.00    -0.453 OA
ATOM     43  C   UNL     1      -6.885   0.088   9.930  0.00  0.00    +0.466 C 
ATOM     44  O   UNL     1      -7.788  -0.088   8.823  0.00  0.00    -0.453 OA
ENDBRANCH  34  36
ENDBRANCH  24  32
ENDBRANCH   3  24
TORSDOF 8
