REMARK  Name = ZINC66161311
REMARK  4 active torsions:
REMARK  status: ('A' for Active; 'I' for Inactive)
REMARK    1  A    between atoms: C_1  and  N_2
REMARK    2  A    between atoms: N_2  and  C_3
REMARK    3  A    between atoms: C_3  and  C_4
REMARK    4  A    between atoms: N_16  and  C_17
REMARK                            x       y       z     vdW  Elec       q    Type
REMARK                         _______ _______ _______ _____ _____    ______ ____
ROOT
ATOM      1  C   UNL     1      -0.011   1.452   0.005  0.00  0.00    +0.134 C 
ATOM      2  N   UNL     1       0.013  -0.013  -0.005  0.00  0.00    -0.280 N 
ATOM      3  C   UNL     1       0.027  -0.679  -1.177  0.00  0.00    +0.307 C 
ATOM      4  O   UNL     1       0.047  -1.894  -1.185  0.00  0.00    -0.252 OA
ATOM      5  N   UNL     1       0.019   0.003  -2.340  0.00  0.00    -0.267 N 
ATOM      6  H   UNL     1       0.086   0.971  -2.335  0.00  0.00    +0.156 HD
ENDROOT
BRANCH   5   7
ATOM      7  C   UNL     1      -0.086  -0.685  -3.555  0.00  0.00    +0.073 A 
ATOM      8  C   UNL     1      -0.680  -1.939  -3.594  0.00  0.00    +0.026 A 
ATOM      9  C   UNL     1      -0.783  -2.617  -4.793  0.00  0.00    +0.005 A 
ATOM     10  C   UNL     1      -0.295  -2.050  -5.956  0.00  0.00    +0.041 A 
ATOM     11  C   UNL     1       0.299  -0.799  -5.923  0.00  0.00    +0.160 A 
ATOM     12  C   UNL     1       0.399  -0.112  -4.724  0.00  0.00    +0.179 A 
ATOM     13  F   UNL     1       0.973   1.111  -4.691  0.00  0.00    -0.201 F 
ATOM     14  F   UNL     1       0.775  -0.247  -7.060  0.00  0.00    -0.202 F 
ENDBRANCH   5   7
BRANCH   2  15
ATOM     15  C   UNL     1       0.022  -0.754   1.258  0.00  0.00    +0.205 C 
BRANCH  15  16
ATOM     16  C   UNL     1      -1.396  -1.032   1.688  0.00  0.00    +0.236 C 
ATOM     17  O   UNL     1      -2.322  -0.648   1.006  0.00  0.00    -0.274 OA
ATOM     18  N   UNL     1      -1.634  -1.706   2.830  0.00  0.00    -0.269 N 
ATOM     19  C   UNL     1      -2.943  -1.872   3.282  0.00  0.00    +0.125 A 
ATOM     20  C   UNL     1      -3.175  -2.476   4.512  0.00  0.00    +0.045 A 
ATOM     21  C   UNL     1      -4.478  -2.634   4.949  0.00  0.00    +0.020 A 
ATOM     22  C   UNL     1      -5.509  -2.180   4.136  0.00  0.00    +0.036 A 
ATOM     23  C   UNL     1      -5.205  -1.589   2.925  0.00  0.00    +0.128 A 
ATOM     24  N   UNL     1      -3.951  -1.448   2.538  0.00  0.00    -0.239 NA
ATOM     25 BR   UNL     1      -7.310  -2.369   4.681  0.00  0.00    -0.049 Br
ATOM     26  H   UNL     1      -0.895  -2.076   3.338  0.00  0.00    +0.156 HD
ENDBRANCH  15  16
ENDBRANCH   2  15
TORSDOF 3
