REMARK  Name = ZINC20503844
REMARK  7 active torsions:
REMARK  status: ('A' for Active; 'I' for Inactive)
REMARK    1  A    between atoms: C_1  and  C_2
REMARK    2  A    between atoms: C_5  and  S_8
REMARK    3  A    between atoms: S_8  and  N_11
REMARK    4  A    between atoms: N_11  and  C_12
REMARK    5  A    between atoms: C_12  and  C_13
REMARK    6  A    between atoms: C_22  and  C_24
REMARK    7  A    between atoms: C_24  and  N_25
REMARK                            x       y       z     vdW  Elec       q    Type
REMARK                         _______ _______ _______ _____ _____    ______ ____
ROOT
ATOM      1  C   UNL     1       1.114   3.441   4.951  0.00  0.00    +0.072 C 
ATOM      2  C   UNL     1       1.419   1.941   4.917  0.00  0.00    +0.024 C 
ATOM      3  C   UNL     1       2.202   1.623   3.637  0.00  0.00    -0.006 C 
ATOM      4  C   UNL     1       3.494   2.448   3.637  0.00  0.00    +0.019 C 
ATOM      5  C   UNL     1       3.132   3.934   3.706  0.00  0.00    +0.085 C 
ATOM      6  N   UNL     1       1.670   4.078   3.749  0.00  0.00    -0.298 NA
ATOM      7  C   UNL     1       1.051   3.537   2.528  0.00  0.00    +0.086 C 
ATOM      8  C   UNL     1       1.354   2.039   2.429  0.00  0.00    -0.010 C 
ENDROOT
BRANCH   1   9
ATOM      9  C   UNL     1      -0.400   3.654   4.988  0.00  0.00    +0.124 C 
BRANCH   9  10
ATOM     10  N   UNL     1      -0.694   5.087   4.897  0.00  0.00    -0.188 NA
ATOM     11  H   UNL     1       0.055   5.823   5.223  0.00  0.00    +0.148 HD
BRANCH  10  12
ATOM     12  S   UNL     1      -2.229   5.596   4.541  0.00  0.00    +0.058 S 
ATOM     13  O   UNL     1      -2.198   7.017   4.552  0.00  0.00    -0.153 OA
ATOM     14  O   UNL     1      -2.651   4.852   3.407  0.00  0.00    -0.153 OA
BRANCH  12  19
ATOM     15  C   UNL     1      -5.773   3.915   9.126  0.00  0.00    +0.044 C 
ATOM     16  C   UNL     1      -4.889   4.335   7.980  0.00  0.00    -0.050 A 
ATOM     17  C   UNL     1      -4.264   5.568   8.005  0.00  0.00    +0.005 A 
ATOM     18  C   UNL     1      -3.452   5.953   6.955  0.00  0.00    +0.029 A 
ATOM     19  C   UNL     1      -3.264   5.105   5.880  0.00  0.00    +0.105 A 
ATOM     20  C   UNL     1      -3.893   3.874   5.852  0.00  0.00    +0.029 A 
ATOM     21  C   UNL     1      -4.701   3.487   6.904  0.00  0.00    +0.005 A 
ENDBRANCH  12  19
ENDBRANCH  10  12
ENDBRANCH   9  10
ENDBRANCH   1   9
BRANCH   8  22
ATOM     22  C   UNL     1       0.044   1.250   2.425  0.00  0.00    -0.074 C 
BRANCH  22  23
ATOM     23  N   UNL     1      -0.715   1.567   1.208  0.00  0.00    +0.381 N 
ATOM     24  C   UNL     1      -2.069   1.035   1.276  0.00  0.00    -0.074 C 
ATOM     25  C   UNL     1      -2.881   1.397   0.043  0.00  0.00    -0.007 C 
ATOM     26  C   UNL     1      -2.160   0.956  -1.234  0.00  0.00    +0.011 C 
ATOM     27  C   UNL     1      -0.771   1.602  -1.226  0.00  0.00    +0.020 C 
ATOM     28  C   UNL     1      -0.013   1.086   0.008  0.00  0.00    -0.069 C 
ATOM     29  C   UNL     1      -0.920   3.099  -1.074  0.00  0.00    +0.023 A 
ATOM     30  C   UNL     1       0.069   3.881  -1.584  0.00  0.00    +0.022 A 
ATOM     31  C   UNL     1       0.030   5.271  -1.427  0.00  0.00    +0.007 A 
ATOM     32  C   UNL     1      -1.006   5.826  -0.734  0.00  0.00    +0.070 A 
ATOM     33  C   UNL     1      -2.010   4.992  -0.223  0.00  0.00    +0.251 A 
ATOM     34  O   UNL     1      -2.916   5.474   0.438  0.00  0.00    -0.268 OA
ATOM     35  N   UNL     1      -1.987   3.656  -0.455  0.00  0.00    -0.312 N 
ATOM     36  C   UNL     1      -3.156   2.890  -0.023  0.00  0.00    +0.126 C 
ATOM     37  H   UNL     1      -0.803   2.661   1.137  0.00  0.00    -0.082 HD
ENDBRANCH  22  23
ENDBRANCH   8  22
TORSDOF 6
