REMARK  Name = ZINC36346318
REMARK  19 active torsions:
REMARK  status: ('A' for Active; 'I' for Inactive)
REMARK    1  A    between atoms: C_1  and  C_2
REMARK    2  A    between atoms: C_2  and  C_3
REMARK    3  A    between atoms: C_3  and  C_5
REMARK    4  A    between atoms: C_3  and  N_6
REMARK    5  A    between atoms: N_6  and  C_7
REMARK    6  A    between atoms: N_6  and  C_28
REMARK    7  A    between atoms: C_7  and  C_8
REMARK    8  A    between atoms: C_9  and  C_27
REMARK    9  A    between atoms: N_11  and  C_21
REMARK   10  A    between atoms: C_12  and  O_13
REMARK   11  A    between atoms: O_13  and  C_14
REMARK   12  A    between atoms: C_28  and  C_29
REMARK   13  A    between atoms: C_29  and  C_31
REMARK   14  A    between atoms: C_29  and  O_37
REMARK   15  A    between atoms: C_31  and  O_32
REMARK   16  A    between atoms: O_32  and  C_33
REMARK   17  A    between atoms: C_33  and  C_34
REMARK   18  A    between atoms: C_33  and  C_35
REMARK   19  A    between atoms: C_33  and  C_36
REMARK                            x       y       z     vdW  Elec       q    Type
REMARK                         _______ _______ _______ _____ _____    ______ ____
ROOT
ATOM      1  C   UNL     1       3.490  -1.884  -2.001  0.00  0.00    +0.021 A 
ATOM      2  C   UNL     1       4.460  -2.365  -1.116  0.00  0.00    +0.065 A 
ATOM      3  N   UNL     1       4.294  -3.656  -0.981  0.00  0.00    -0.168 NA
ATOM      4  N   UNL     1       3.210  -4.048  -1.776  0.00  0.00    -0.200 N 
ATOM      5  C   UNL     1       2.724  -2.937  -2.393  0.00  0.00    +0.225 A 
ATOM      6  C   UNL     1       5.518  -1.536  -0.434  0.00  0.00    +0.068 C 
ENDROOT
BRANCH   4   7
ATOM      7  C   UNL     1       2.711  -5.351  -1.909  0.00  0.00    +0.069 A 
ATOM      8  C   UNL     1       1.340  -5.574  -1.911  0.00  0.00    +0.028 A 
ATOM      9  C   UNL     1       0.851  -6.859  -2.042  0.00  0.00    +0.002 A 
ATOM     10  C   UNL     1       1.725  -7.923  -2.171  0.00  0.00    +0.000 A 
ATOM     11  C   UNL     1       3.091  -7.704  -2.168  0.00  0.00    +0.002 A 
ATOM     12  C   UNL     1       3.585  -6.420  -2.043  0.00  0.00    +0.028 A 
ENDBRANCH   4   7
BRANCH   1  13
ATOM     13  C   UNL     1       3.319  -0.452  -2.437  0.00  0.00    -0.035 C 
BRANCH  13  14
ATOM     14  N   UNL     1       2.953   0.373  -1.277  0.00  0.00    +0.386 N 
ATOM     15  H   UNL     1       3.566   0.157  -0.505  0.00  0.00    -0.081 HD
BRANCH  14  16
ATOM     16  C   UNL     1       1.564   0.091  -0.894  0.00  0.00    -0.071 C 
ATOM     17  C   UNL     1       0.693   0.020  -2.150  0.00  0.00    -0.013 C 
BRANCH  16  19
ATOM     18  C   UNL     1       2.325  -1.157   1.132  0.00  0.00    +0.002 C 
ATOM     19  C   UNL     1       1.500  -1.246  -0.153  0.00  0.00    -0.019 C 
ENDBRANCH  16  19
ENDBRANCH  14  16
BRANCH  14  20
ATOM     20  C   UNL     1       3.087   1.794  -1.626  0.00  0.00    -0.044 C 
BRANCH  20  21
ATOM     21  C   UNL     1       2.988   2.642  -0.356  0.00  0.00    +0.124 C 
BRANCH  21  22
ATOM     22  O   UNL     1       1.659   2.567   0.164  0.00  0.00    -0.391 OA
ATOM     23  H   UNL     1       0.990   2.967  -0.407  0.00  0.00    +0.210 HD
ENDBRANCH  21  22
BRANCH  21  24
ATOM     24  C   UNL     1       3.325   4.097  -0.687  0.00  0.00    +0.189 C 
BRANCH  24  25
ATOM     25  O   UNL     1       3.346   4.867   0.517  0.00  0.00    -0.372 OA
BRANCH  25  26
ATOM     26  C   UNL     1       3.653   6.248   0.319  0.00  0.00    +0.061 C 
ATOM     27  C   UNL     1       2.604   6.877  -0.600  0.00  0.00    +0.041 C 
ATOM     28  C   UNL     1       3.649   6.971   1.667  0.00  0.00    +0.041 C 
ATOM     29  C   UNL     1       5.036   6.376  -0.324  0.00  0.00    +0.041 C 
ENDBRANCH  25  26
ENDBRANCH  24  25
ENDBRANCH  21  24
ENDBRANCH  20  21
ENDBRANCH  14  20
ENDBRANCH  13  14
ENDBRANCH   1  13
BRANCH   5  30
ATOM     30  O   UNL     1       1.669  -2.889  -3.246  0.00  0.00    -0.438 OA
BRANCH  30  31
ATOM     31  C   UNL     1       1.903  -3.122  -4.564  0.00  0.00    +0.133 A 
ATOM     32  C   UNL     1       3.167  -3.510  -4.987  0.00  0.00    +0.046 A 
ATOM     33  C   UNL     1       3.404  -3.747  -6.327  0.00  0.00    +0.006 A 
ATOM     34  C   UNL     1       2.384  -3.599  -7.248  0.00  0.00    +0.038 A 
ATOM     35  C   UNL     1       1.121  -3.212  -6.830  0.00  0.00    +0.127 A 
ATOM     36  C   UNL     1       0.878  -2.979  -5.487  0.00  0.00    +0.084 A 
ATOM     37  F   UNL     1       0.126  -3.067  -7.731  0.00  0.00    -0.205 F 
ENDBRANCH  30  31
ENDBRANCH   5  30
TORSDOF 13
