REMARK  Name = ZINC13337137
REMARK  15 active torsions:
REMARK  status: ('A' for Active; 'I' for Inactive)
REMARK    1  A    between atoms: C_1  and  C_2
REMARK    2  A    between atoms: C_2  and  C_4
REMARK    3  A    between atoms: C_2  and  N_6
REMARK    4  A    between atoms: N_6  and  S_7
REMARK    5  A    between atoms: S_7  and  C_10
REMARK    6  A    between atoms: C_13  and  C_16
REMARK    7  A    between atoms: C_16  and  C_33
REMARK    8  A    between atoms: N_17  and  N_18
REMARK    9  A    between atoms: C_19  and  C_21
REMARK   10  A    between atoms: C_21  and  O_22
REMARK   11  A    between atoms: O_22  and  C_23
REMARK   12  A    between atoms: C_26  and  C_29
REMARK   13  A    between atoms: C_29  and  C_30
REMARK   14  A    between atoms: C_29  and  C_31
REMARK   15  A    between atoms: C_29  and  C_32
REMARK                            x       y       z     vdW  Elec       q    Type
REMARK                         _______ _______ _______ _____ _____    ______ ____
ROOT
ATOM      1  C   UNL     1       2.199   3.804   6.662  0.00  0.00    +0.063 C 
ATOM      2  N   UNL     1       3.151   3.289   7.377  0.00  0.00    -0.184 NA
ATOM      3  C   UNL     1       0.871   4.129   7.296  0.00  0.00    +0.068 C 
ENDROOT
BRANCH   1   7
ATOM      4  C   UNL     1       2.825   4.573   2.535  0.00  0.00    +0.105 A 
ATOM      5  C   UNL     1       1.606   4.878   3.115  0.00  0.00    +0.029 A 
ATOM      6  C   UNL     1       1.394   4.625   4.454  0.00  0.00    +0.011 A 
ATOM      7  C   UNL     1       2.416   4.071   5.228  0.00  0.00    -0.002 A 
ATOM      8  C   UNL     1       3.646   3.771   4.637  0.00  0.00    +0.011 A 
ATOM      9  C   UNL     1       3.842   4.024   3.295  0.00  0.00    +0.029 A 
BRANCH   4  10
ATOM     10  S   UNL     1       3.084   4.892   0.822  0.00  0.00    +0.059 S 
ATOM     11  O   UNL     1       4.487   5.030   0.642  0.00  0.00    -0.153 OA
ATOM     12  O   UNL     1       2.165   5.911   0.454  0.00  0.00    -0.153 OA
BRANCH  10  13
ATOM     13  N   UNL     1       2.634   3.529  -0.004  0.00  0.00    -0.176 NA
ATOM     14  H   UNL     1       3.297   3.018  -0.495  0.00  0.00    +0.149 HD
BRANCH  13  16
ATOM     15  C   UNL     1       0.522   3.639  -1.233  0.00  0.00    +0.038 C 
ATOM     16  C   UNL     1       1.235   3.094   0.007  0.00  0.00    +0.186 C 
BRANCH  16  17
ATOM     17  C   UNL     1       1.177   1.588  -0.001  0.00  0.00    +0.374 C 
ATOM     18  O   UNL     1       2.199   0.944  -0.014  0.00  0.00    -0.245 OA
ATOM     19  O   UNL     1      -0.011   0.963   0.007  0.00  0.00    -0.245 OA
ENDBRANCH  16  17
ENDBRANCH  13  16
ENDBRANCH  10  13
ENDBRANCH   4  10
ENDBRANCH   1   7
BRANCH   2  20
ATOM     20  N   UNL     1       2.944   3.035   8.740  0.00  0.00    -0.204 N 
ATOM     21  C   UNL     1       3.933   2.500   9.483  0.00  0.00    +0.270 C 
ATOM     22  O   UNL     1       5.002   2.238   8.973  0.00  0.00    -0.270 OA
ATOM     23  H   UNL     1       2.090   3.244   9.148  0.00  0.00    +0.177 HD
BRANCH  21  24
ATOM     24  C   UNL     1       3.711   2.227  10.948  0.00  0.00    +0.326 C 
BRANCH  24  25
ATOM     25  O   UNL     1       4.897   1.665  11.513  0.00  0.00    -0.483 OA
BRANCH  25  26
ATOM     26  C   UNL     1       4.864   1.357  12.837  0.00  0.00    +0.121 A 
ATOM     27  C   UNL     1       3.716   1.598  13.578  0.00  0.00    +0.046 A 
ATOM     28  C   UNL     1       3.684   1.280  14.922  0.00  0.00    +0.008 A 
ATOM     29  C   UNL     1       4.798   0.733  15.531  0.00  0.00    -0.042 A 
ATOM     30  C   UNL     1       5.945   0.497  14.796  0.00  0.00    +0.008 A 
ATOM     31  C   UNL     1       5.981   0.808  13.450  0.00  0.00    +0.046 A 
BRANCH  29  32
ATOM     32  C   UNL     1       4.762   0.392  16.998  0.00  0.00    -0.013 C 
ATOM     33  C   UNL     1       5.842   1.188  17.733  0.00  0.00    +0.015 C 
ATOM     34  C   UNL     1       3.388   0.749  17.571  0.00  0.00    +0.015 C 
ATOM     35  C   UNL     1       5.017  -1.105  17.181  0.00  0.00    +0.015 C 
ENDBRANCH  29  32
ENDBRANCH  25  26
ENDBRANCH  24  25
ENDBRANCH  21  24
ENDBRANCH   2  20
TORSDOF 10
