REMARK  Name = ZINC31001976
REMARK  7 active torsions:
REMARK  status: ('A' for Active; 'I' for Inactive)
REMARK    1  A    between atoms: C_1  and  C_2
REMARK    2  A    between atoms: C_2  and  C_3
REMARK    3  A    between atoms: C_2  and  N_4
REMARK    4  A    between atoms: N_7  and  C_8
REMARK    5  A    between atoms: C_11  and  N_14
REMARK    6  A    between atoms: C_15  and  C_17
REMARK    7  A    between atoms: C_18  and  C_19
REMARK                            x       y       z     vdW  Elec       q    Type
REMARK                         _______ _______ _______ _____ _____    ______ ____
ROOT
ATOM      1  C   UNL     1      -1.523   1.776   0.308  0.00  0.00    +0.035 A 
ATOM      2  C   UNL     1      -1.279   3.129   0.108  0.00  0.00    +0.025 A 
ATOM      3  C   UNL     1      -2.322   4.032   0.155  0.00  0.00    +0.025 A 
ATOM      4  C   UNL     1      -3.613   3.590   0.413  0.00  0.00    +0.034 A 
ATOM      5  C   UNL     1      -3.856   2.238   0.619  0.00  0.00    +0.025 A 
ATOM      6  C   UNL     1      -2.814   1.334   0.567  0.00  0.00    +0.025 A 
ENDROOT
BRANCH   1  10
ATOM      7  N   UNL     1       0.365  -1.230  -0.375  0.00  0.00    -0.297 N 
ATOM      8  C   UNL     1      -0.670  -0.377  -0.243  0.00  0.00    +0.304 C 
ATOM      9  O   UNL     1      -1.788  -0.722  -0.574  0.00  0.00    -0.253 OA
ATOM     10  N   UNL     1      -0.466   0.859   0.255  0.00  0.00    -0.269 N 
ATOM     11  H   UNL     1       1.377  -0.918  -0.076  0.00  0.00    +0.151 HD
ATOM     12  H   UNL     1       0.531   1.147   0.621  0.00  0.00    +0.156 HD
BRANCH   7  14
ATOM     13  C   UNL     1       1.442  -3.093  -1.538  0.00  0.00    +0.027 C 
ATOM     14  C   UNL     1       0.144  -2.573  -0.917  0.00  0.00    +0.068 C 
ATOM     15  C   UNL     1      -0.295  -3.511   0.209  0.00  0.00    +0.027 C 
ENDBRANCH   7  14
ENDBRANCH   1  10
BRANCH   4  16
ATOM     16  N   UNL     1      -4.669   4.507   0.466  0.00  0.00    -0.282 N 
ATOM     17  C   UNL     1      -5.683   4.318   1.334  0.00  0.00    +0.241 C 
ATOM     18  O   UNL     1      -5.723   3.307   2.013  0.00  0.00    -0.270 OA
ATOM     19  H   UNL     1      -4.672   5.382  -0.200  0.00  0.00    +0.155 HD
BRANCH  17  20
ATOM     20  C   UNL     1      -6.700   5.293   1.458  0.00  0.00    +0.071 C 
ATOM     21  C   UNL     1      -7.720   5.103   2.332  0.00  0.00    +0.051 C 
BRANCH  21  22
ATOM     22  C   UNL     1      -8.738   6.078   2.455  0.00  0.00    +0.129 A 
ATOM     23  C   UNL     1      -9.831   6.011   3.295  0.00  0.00    +0.050 A 
ATOM     24  C   UNL     1     -10.566   7.187   3.088  0.00  0.00    +0.057 A 
ATOM     25  C   UNL     1      -9.913   7.907   2.146  0.00  0.00    +0.171 A 
ATOM     26  O   UNL     1      -8.816   7.237   1.768  0.00  0.00    -0.449 OA
ATOM     27 BR   UNL     1     -10.462   9.586   1.471  0.00  0.00    -0.008 Br
ENDBRANCH  21  22
ENDBRANCH  17  20
ENDBRANCH   4  16
TORSDOF 5
