REMARK  Name = ZINC20637835
REMARK  10 active torsions:
REMARK  status: ('A' for Active; 'I' for Inactive)
REMARK    1  A    between atoms: C_1  and  C_2
REMARK    2  A    between atoms: C_2  and  C_3
REMARK    3  A    between atoms: C_7  and  C_35
REMARK    4  A    between atoms: C_8  and  N_9
REMARK    5  A    between atoms: C_10  and  C_29
REMARK    6  A    between atoms: N_12  and  C_15
REMARK    7  A    between atoms: C_15  and  N_16
REMARK    8  A    between atoms: N_19  and  C_22
REMARK    9  A    between atoms: C_22  and  C_23
REMARK   10  A    between atoms: C_35  and  C_36
REMARK                            x       y       z     vdW  Elec       q    Type
REMARK                         _______ _______ _______ _____ _____    ______ ____
ROOT
ATOM      1  N   UNL     1      -1.200  -0.722   0.010  0.00  0.00    -0.271 N 
ATOM      2  C   UNL     1      -1.907  -1.132  -1.105  0.00  0.00    +0.169 A 
ATOM      3  N   UNL     1      -2.971  -1.772  -0.709  0.00  0.00    -0.152 NA
ATOM      4  N   UNL     1      -2.972  -1.788   0.692  0.00  0.00    -0.257 N 
ATOM      5  C   UNL     1      -1.865  -1.138   1.107  0.00  0.00    +0.181 A 
ATOM      6  S   UNL     1      -1.391  -0.885   2.732  0.00  0.00    -0.011 S 
ENDROOT
BRANCH   1  12
ATOM      7  C   UNL     1      -0.017   1.384   0.010  0.00  0.00    -0.023 A 
ATOM      8  C   UNL     1       1.171   2.090   0.002  0.00  0.00    +0.005 A 
ATOM      9  C   UNL     1       2.377   1.415  -0.013  0.00  0.00    +0.001 A 
ATOM     10  C   UNL     1       2.400   0.032  -0.021  0.00  0.00    +0.005 A 
ATOM     11  C   UNL     1       1.216  -0.679  -0.013  0.00  0.00    -0.023 A 
ATOM     12  C   UNL     1       0.002  -0.004   0.002  0.00  0.00    +0.057 A 
BRANCH   7  14
ATOM     13  C   UNL     1      -1.831   2.253   1.460  0.00  0.00    +0.009 C 
ATOM     14  C   UNL     1      -1.331   2.121   0.020  0.00  0.00    +0.034 C 
ENDBRANCH   7  14
BRANCH  11  15
ATOM     15  C   UNL     1       1.240  -2.186  -0.022  0.00  0.00    +0.034 C 
ATOM     16  C   UNL     1       1.110  -2.690  -1.461  0.00  0.00    +0.009 C 
ENDBRANCH  11  15
ENDBRANCH   1  12
BRANCH   2  17
ATOM     17  C   UNL     1      -1.521  -0.884  -2.512  0.00  0.00    +0.038 A 
ATOM     18  C   UNL     1      -2.127  -1.598  -3.552  0.00  0.00    +0.014 A 
ATOM     19  C   UNL     1      -1.730  -1.329  -4.850  0.00  0.00    +0.020 A 
ATOM     20  C   UNL     1      -0.757  -0.373  -5.076  0.00  0.00    +0.111 A 
ATOM     21  N   UNL     1      -0.203   0.285  -4.076  0.00  0.00    -0.263 NA
ATOM     22  C   UNL     1      -0.551   0.068  -2.824  0.00  0.00    +0.122 A 
ENDBRANCH   2  17
BRANCH   4  23
ATOM     23  C   UNL     1      -3.987  -2.404   1.551  0.00  0.00    +0.072 C 
BRANCH  23  24
ATOM     24  N   UNL     1      -3.616  -3.799   1.824  0.00  0.00    +0.394 N 
ATOM     25  C   UNL     1      -3.664  -4.606   0.597  0.00  0.00    -0.061 C 
ATOM     26  C   UNL     1      -3.196  -6.030   0.908  0.00  0.00    +0.066 C 
ATOM     27  N   UNL     1      -4.056  -6.609   1.950  0.00  0.00    -0.302 NA
ATOM     28  C   UNL     1      -4.008  -5.801   3.177  0.00  0.00    +0.066 C 
ATOM     29  C   UNL     1      -4.476  -4.378   2.866  0.00  0.00    -0.061 C 
ATOM     30  H   UNL     1      -2.581  -3.806   2.195  0.00  0.00    -0.079 HD
BRANCH  27  31
ATOM     31  C   UNL     1      -3.685  -8.004   2.223  0.00  0.00    +0.119 C 
BRANCH  31  32
ATOM     32  C   UNL     1      -3.506  -8.740   0.920  0.00  0.00    -0.031 A 
ATOM     33  C   UNL     1      -4.572  -9.395   0.323  0.00  0.00    +0.024 A 
ATOM     34  C   UNL     1      -4.372 -10.057  -0.874  0.00  0.00    +0.111 A 
ATOM     35  N   UNL     1      -3.182 -10.077  -1.442  0.00  0.00    -0.263 NA
ATOM     36  C   UNL     1      -2.144  -9.469  -0.900  0.00  0.00    +0.111 A 
ATOM     37  C   UNL     1      -2.270  -8.784   0.293  0.00  0.00    +0.024 A 
ENDBRANCH  31  32
ENDBRANCH  27  31
ENDBRANCH  23  24
ENDBRANCH   4  23
TORSDOF 8
