REMARK  Name = ZINC35667941
REMARK  11 active torsions:
REMARK  status: ('A' for Active; 'I' for Inactive)
REMARK    1  A    between atoms: C_1  and  C_2
REMARK    2  A    between atoms: C_2  and  O_3
REMARK    3  A    between atoms: O_3  and  C_4
REMARK    4  A    between atoms: C_6  and  C_20
REMARK    5  A    between atoms: C_9  and  O_10
REMARK    6  A    between atoms: O_10  and  C_11
REMARK    7  A    between atoms: C_11  and  C_12
REMARK    8  A    between atoms: C_17  and  C_18
REMARK    9  A    between atoms: CA_21  and  C_22
REMARK   10  A    between atoms: CA_21  and  N_25
REMARK   11  A    between atoms: C_26  and  C_28
REMARK                            x       y       z     vdW  Elec       q    Type
REMARK                         _______ _______ _______ _____ _____    ______ ____
ROOT
ATOM      1  C   UNL     1      -1.425  -1.808   0.285  0.00  0.00    +0.164 A 
ATOM      2  C   UNL     1      -0.328  -2.648   0.265  0.00  0.00    +0.057 A 
ATOM      3  C   UNL     1      -0.507  -4.024   0.080  0.00  0.00    -0.018 A 
ATOM      4  C   UNL     1      -1.798  -4.541  -0.085  0.00  0.00    +0.027 A 
ATOM      5  C   UNL     1      -2.886  -3.696  -0.064  0.00  0.00    +0.064 A 
ATOM      6  C   UNL     1      -2.707  -2.331   0.126  0.00  0.00    +0.176 A 
ATOM      7 BR   UNL     1      -4.629  -4.396  -0.286  0.00  0.00    -0.046 Br
ENDROOT
BRANCH   3   8
ATOM      8  C   UNL     1       0.654  -4.922   0.057  0.00  0.00    +0.038 C 
ATOM      9  CA  UNL     1       0.580  -6.143   0.643  0.00  0.00    +0.123 C 
BRANCH   9  10
ATOM     10  N   UNL     1       1.703  -6.979   0.667  0.00  0.00    -0.276 N 
ATOM     11  C   UNL     1       1.665  -8.141   1.348  0.00  0.00    +0.248 C 
ATOM     12  O   UNL     1       0.631  -8.501   1.877  0.00  0.00    -0.270 OA
ATOM     13  H   UNL     1       2.509  -6.721   0.193  0.00  0.00    +0.155 HD
BRANCH  11  14
ATOM     14  C   UNL     1       2.879  -8.977   1.452  0.00  0.00    +0.037 A 
ATOM     15  C   UNL     1       4.069  -8.563   0.851  0.00  0.00    +0.013 A 
ATOM     16  C   UNL     1       5.199  -9.348   0.952  0.00  0.00    +0.001 A 
ATOM     17  C   UNL     1       5.154 -10.544   1.647  0.00  0.00    +0.000 A 
ATOM     18  C   UNL     1       3.978 -10.960   2.245  0.00  0.00    +0.001 A 
ATOM     19  C   UNL     1       2.842 -10.181   2.157  0.00  0.00    +0.013 A 
ENDBRANCH  11  14
ENDBRANCH   9  10
BRANCH   9  20
ATOM     20  C   UNL     1      -0.676  -6.587   1.250  0.00  0.00    +0.400 C 
ATOM     21  O   UNL     1      -1.421  -7.339   0.635  0.00  0.00    -0.239 OA
ATOM     22  OXT UNL     1      -0.980  -6.207   2.374  0.00  0.00    -0.239 OA
ENDBRANCH   9  20
ENDBRANCH   3   8
BRANCH   1  23
ATOM     23  O   UNL     1      -1.254  -0.471   0.466  0.00  0.00    -0.489 OA
BRANCH  23  25
ATOM     24  C   UNL     1       0.080   1.514   0.812  0.00  0.00    +0.048 C 
ATOM     25  C   UNL     1       0.088  -0.004   0.622  0.00  0.00    +0.226 C 
ENDBRANCH  23  25
ENDBRANCH   1  23
BRANCH   6  26
ATOM     26  O   UNL     1      -3.784  -1.504   0.151  0.00  0.00    -0.483 OA
BRANCH  26  27
ATOM     27  C   UNL     1      -4.206  -0.950  -1.096  0.00  0.00    +0.265 C 
BRANCH  27  28
ATOM     28  C   UNL     1      -5.405  -0.065  -0.873  0.00  0.00    -0.007 A 
ATOM     29  C   UNL     1      -5.913   0.103   0.402  0.00  0.00    +0.007 A 
ATOM     30  C   UNL     1      -7.012   0.915   0.607  0.00  0.00    +0.000 A 
ATOM     31  C   UNL     1      -7.604   1.560  -0.463  0.00  0.00    +0.000 A 
ATOM     32  C   UNL     1      -7.096   1.394  -1.737  0.00  0.00    +0.004 A 
ATOM     33  C   UNL     1      -5.994   0.585  -1.942  0.00  0.00    -0.044 A 
ATOM     34  C   UNL     1      -5.436   0.407  -3.331  0.00  0.00    +0.044 C 
ENDBRANCH  27  28
ENDBRANCH  26  27
ENDBRANCH   6  26
TORSDOF 9
