REMARK  Name = ZINC10719944
REMARK  7 active torsions:
REMARK  status: ('A' for Active; 'I' for Inactive)
REMARK    1  A    between atoms: C_1  and  C_2
REMARK    2  A    between atoms: C_5  and  S_9
REMARK    3  A    between atoms: C_7  and  C_8
REMARK    4  A    between atoms: S_9  and  C_12
REMARK    5  A    between atoms: C_12  and  C_17
REMARK    6  A    between atoms: N_19  and  C_20
REMARK    7  A    between atoms: C_20  and  C_21
REMARK                            x       y       z     vdW  Elec       q    Type
REMARK                         _______ _______ _______ _____ _____    ______ ____
ROOT
ATOM      1  C   UNL     1      -4.297   2.379  -2.246  0.00  0.00    +0.241 C 
ATOM      2  O   UNL     1      -3.758   1.889  -3.216  0.00  0.00    -0.273 OA
ATOM      3  N   UNL     1      -4.716   1.589  -1.237  0.00  0.00    -0.309 N 
ATOM      4  H   UNL     1      -5.212   1.971  -0.496  0.00  0.00    +0.149 HD
ENDROOT
BRANCH   1   5
ATOM      5  C   UNL     1      -4.499   3.870  -2.169  0.00  0.00    +0.168 C 
ATOM      6  C   UNL     1      -3.697   4.571  -3.285  0.00  0.00    +0.039 C 
ATOM      7  C   UNL     1      -4.725   4.764  -4.428  0.00  0.00    +0.003 C 
ATOM      8  C   UNL     1      -6.025   5.113  -3.663  0.00  0.00    +0.003 C 
ATOM      9  C   UNL     1      -5.980   4.214  -2.409  0.00  0.00    +0.039 C 
BRANCH   5  10
ATOM     10  S   UNL     1      -3.974   4.485  -0.546  0.00  0.00    +0.011 S 
ATOM     11  O   UNL     1      -4.691   3.821   0.485  0.00  0.00    -0.168 OA
ATOM     12  O   UNL     1      -3.881   5.903  -0.566  0.00  0.00    -0.168 OA
BRANCH  10  17
ATOM     13  C   UNL     1       1.719   2.580   0.065  0.00  0.00    +0.044 C 
ATOM     14  C   UNL     1       0.297   3.057  -0.087  0.00  0.00    -0.047 A 
ATOM     15  C   UNL     1      -0.740   2.319   0.452  0.00  0.00    +0.005 A 
ATOM     16  C   UNL     1      -2.045   2.752   0.307  0.00  0.00    +0.027 A 
ATOM     17  C   UNL     1      -2.311   3.929  -0.367  0.00  0.00    +0.090 A 
ATOM     18  C   UNL     1      -1.274   4.667  -0.906  0.00  0.00    +0.030 A 
ATOM     19  C   UNL     1       0.030   4.230  -0.767  0.00  0.00    -0.046 A 
ATOM     20  C   UNL     1       1.161   5.035  -1.354  0.00  0.00    +0.044 C 
ENDBRANCH  10  17
ENDBRANCH   5  10
ENDBRANCH   1   5
BRANCH   3  21
ATOM     21  C   UNL     1      -4.421   0.154  -1.259  0.00  0.00    +0.141 C 
BRANCH  21  22
ATOM     22  C   UNL     1      -5.108  -0.517  -0.098  0.00  0.00    -0.014 A 
ATOM     23  C   UNL     1      -6.368  -1.079  -0.258  0.00  0.00    +0.010 A 
ATOM     24  C   UNL     1      -6.963  -1.686   0.833  0.00  0.00    +0.042 A 
ATOM     25  C   UNL     1      -6.283  -1.714   2.046  0.00  0.00    +0.099 A 
ATOM     26  C   UNL     1      -4.488  -0.586   1.134  0.00  0.00    +0.089 A 
ATOM     27  N   UNL     1      -6.869  -2.321   3.151  0.00  0.00    -0.312 N 
ATOM     28  C   UNL     1      -7.992  -1.520   3.659  0.00  0.00    +0.134 C 
ATOM     29  C   UNL     1      -8.645  -2.252   4.834  0.00  0.00    +0.178 C 
ATOM     30  O   UNL     1      -7.659  -2.502   5.840  0.00  0.00    -0.377 OA
ATOM     31  C   UNL     1      -6.551  -3.280   5.380  0.00  0.00    +0.178 C 
ATOM     32  C   UNL     1      -5.878  -2.558   4.210  0.00  0.00    +0.134 C 
ATOM     33  N   UNL     1      -5.045  -1.169   2.228  0.00  0.00    -0.349 N 
ATOM     34  H   UNL     1      -4.565  -1.198   3.135  0.00  0.00    +0.167 HD
ENDBRANCH  21  22
ENDBRANCH   3  21
TORSDOF 5
