REMARK  Name = ZINC39696188
REMARK  9 active torsions:
REMARK  status: ('A' for Active; 'I' for Inactive)
REMARK    1  A    between atoms: C_1  and  C_2
REMARK    2  A    between atoms: C_2  and  C_3
REMARK    3  A    between atoms: C_6  and  C_9
REMARK    4  A    between atoms: C_9  and  C_11
REMARK    5  A    between atoms: C_9  and  N_12
REMARK    6  A    between atoms: C_13  and  C_15
REMARK    7  A    between atoms: C_26  and  C_28
REMARK    8  A    between atoms: C_33  and  S_34
REMARK    9  A    between atoms: S_34  and  C_35
REMARK                            x       y       z     vdW  Elec       q    Type
REMARK                         _______ _______ _______ _____ _____    ______ ____
ROOT
ATOM      1  C   UNL     1       5.155  -4.803  -4.890  0.00  0.00    +0.100 C 
ATOM      2  C   UNL     1       4.691  -5.622  -3.665  0.00  0.00    +0.121 C 
ATOM      3  N   UNL     1       4.063  -6.835  -4.241  0.00  0.00    -0.296 N 
ATOM      4  C   UNL     1       4.933  -7.190  -5.388  0.00  0.00    +0.115 C 
ATOM      5  C   UNL     1       5.317  -5.837  -6.017  0.00  0.00    -0.004 C 
ATOM      6  C   UNL     1       6.764  -5.870  -6.500  0.00  0.00    -0.010 C 
ATOM      7  C   UNL     1       6.888  -6.862  -7.660  0.00  0.00    -0.082 C 
ATOM      8  N   UNL     1       5.996  -6.454  -8.752  0.00  0.00    +0.379 N 
ATOM      9  C   UNL     1       4.599  -6.515  -8.306  0.00  0.00    -0.082 C 
ATOM     10  C   UNL     1       4.378  -5.508  -7.174  0.00  0.00    -0.010 C 
ATOM     11  C   UNL     1       2.953  -7.471  -3.818  0.00  0.00    +0.249 C 
ATOM     12  O   UNL     1       2.288  -6.999  -2.916  0.00  0.00    -0.270 OA
ATOM     13  H   UNL     1       6.218  -5.510  -9.031  0.00  0.00    -0.086 HD
ATOM     14  H   UNL     1       6.124  -7.074  -9.538  0.00  0.00    -0.086 HD
ENDROOT
BRANCH  11  15
ATOM     15  C   UNL     1       2.543  -8.738  -4.451  0.00  0.00    +0.069 A 
ATOM     16  C   UNL     1       3.502  -9.655  -4.896  0.00  0.00    +0.017 A 
ATOM     17  C   UNL     1       3.067 -10.829  -5.482  0.00  0.00    +0.020 A 
ATOM     18  C   UNL     1       1.709 -11.064  -5.611  0.00  0.00    +0.112 A 
ATOM     19  N   UNL     1       0.820 -10.188  -5.186  0.00  0.00    -0.248 NA
ATOM     20  C   UNL     1       1.182  -9.050  -4.612  0.00  0.00    +0.114 A 
BRANCH  20  21
ATOM     21  S   UNL     1      -0.049  -7.919  -4.056  0.00  0.00    -0.069 S 
BRANCH  21  22
ATOM     22  C   UNL     1      -1.565  -8.642  -4.589  0.00  0.00    +0.014 A 
ATOM     23  C   UNL     1      -2.299  -9.440  -3.720  0.00  0.00    +0.015 A 
ATOM     24  C   UNL     1      -3.487 -10.004  -4.141  0.00  0.00    +0.001 A 
ATOM     25  C   UNL     1      -3.945  -9.777  -5.426  0.00  0.00    +0.000 A 
ATOM     26  C   UNL     1      -3.216  -8.984  -6.294  0.00  0.00    +0.001 A 
ATOM     27  C   UNL     1      -2.031  -8.411  -5.877  0.00  0.00    +0.015 A 
ENDBRANCH  21  22
ENDBRANCH  20  21
ENDBRANCH  11  15
BRANCH   1  29
ATOM     28  N   UNL     1       4.488  -2.614  -5.828  0.00  0.00    -0.308 N 
ATOM     29  C   UNL     1       4.115  -3.779  -5.262  0.00  0.00    +0.219 C 
ATOM     30  O   UNL     1       2.941  -4.003  -5.052  0.00  0.00    -0.275 OA
ATOM     31  H   UNL     1       5.426  -2.435  -5.995  0.00  0.00    +0.149 HD
BRANCH  28  32
ATOM     32  C   UNL     1       3.476  -1.619  -6.190  0.00  0.00    +0.100 C 
ATOM     33  C   UNL     1       2.914  -1.943  -7.575  0.00  0.00    +0.033 C 
BRANCH  32  37
ATOM     34  C   UNL     1       5.256   2.264  -6.245  0.00  0.00    -0.048 A 
ATOM     35  C   UNL     1       3.985   2.094  -5.729  0.00  0.00    +0.004 A 
ATOM     36  C   UNL     1       3.409   0.838  -5.712  0.00  0.00    +0.006 A 
ATOM     37  C   UNL     1       4.104  -0.249  -6.210  0.00  0.00    -0.027 A 
ATOM     38  C   UNL     1       5.374  -0.078  -6.726  0.00  0.00    +0.006 A 
ATOM     39  C   UNL     1       5.949   1.179  -6.748  0.00  0.00    +0.004 A 
BRANCH  34  41
ATOM     40  C   UNL     1       5.529   4.339  -7.574  0.00  0.00    +0.009 C 
ATOM     41  C   UNL     1       5.884   3.634  -6.264  0.00  0.00    +0.032 C 
ENDBRANCH  34  41
ENDBRANCH  32  37
ENDBRANCH  28  32
ENDBRANCH   1  29
TORSDOF 7
