REMARK  Name = ZINC09056583
REMARK  10 active torsions:
REMARK  status: ('A' for Active; 'I' for Inactive)
REMARK    1  A    between atoms: C_1  and  C_2
REMARK    2  A    between atoms: C_5  and  N_8
REMARK    3  A    between atoms: N_8  and  C_9
REMARK    4  A    between atoms: N_8  and  S_22
REMARK    5  A    between atoms: C_9  and  C_10
REMARK    6  A    between atoms: N_12  and  N_13
REMARK    7  A    between atoms: C_14  and  C_15
REMARK    8  A    between atoms: C_18  and  C_20
REMARK    9  A    between atoms: S_22  and  C_25
REMARK   10  A    between atoms: C_28  and  C_31
REMARK                            x       y       z     vdW  Elec       q    Type
REMARK                         _______ _______ _______ _____ _____    ______ ____
ROOT
ATOM      1  N   UNL     1       0.133   0.146  -0.265  0.00  0.00    -0.194 N 
ENDROOT
BRANCH   1   6
ATOM      2  C   UNL     1       1.404  -3.282   4.069  0.00  0.00    +0.044 C 
ATOM      3  C   UNL     1       1.067  -2.371   2.917  0.00  0.00    -0.050 A 
ATOM      4  C   UNL     1       0.509  -2.894   1.765  0.00  0.00    +0.005 A 
ATOM      5  C   UNL     1       0.198  -2.062   0.707  0.00  0.00    +0.025 A 
ATOM      6  C   UNL     1       0.446  -0.699   0.802  0.00  0.00    +0.052 A 
ATOM      7  C   UNL     1       1.010  -0.177   1.959  0.00  0.00    +0.025 A 
ATOM      8  C   UNL     1       1.314  -1.014   3.015  0.00  0.00    +0.005 A 
ENDBRANCH   1   6
BRANCH   1   9
ATOM      9  S   UNL     1      -0.930   1.397  -0.048  0.00  0.00    +0.075 S 
ATOM     10  O   UNL     1      -1.484   1.686  -1.324  0.00  0.00    -0.150 OA
ATOM     11  O   UNL     1      -1.736   1.056   1.072  0.00  0.00    -0.150 OA
BRANCH   9  12
ATOM     12  C   UNL     1       0.015   2.808   0.422  0.00  0.00    +0.109 A 
ATOM     13  C   UNL     1       0.149   3.135   1.759  0.00  0.00    +0.029 A 
ATOM     14  C   UNL     1       0.894   4.240   2.128  0.00  0.00    +0.005 A 
ATOM     15  C   UNL     1       1.497   5.022   1.160  0.00  0.00    -0.050 A 
ATOM     16  C   UNL     1       1.358   4.697  -0.176  0.00  0.00    +0.005 A 
ATOM     17  C   UNL     1       0.617   3.590  -0.545  0.00  0.00    +0.029 A 
ATOM     18  C   UNL     1       2.305   6.228   1.562  0.00  0.00    +0.044 C 
ENDBRANCH   9  12
ENDBRANCH   1   9
BRANCH   1  19
ATOM     19  C   UNL     1       0.745  -0.075  -1.578  0.00  0.00    +0.228 C 
BRANCH  19  20
ATOM     20  C   UNL     1       2.090   0.602  -1.625  0.00  0.00    +0.251 C 
ATOM     21  O   UNL     1       2.498   1.209  -0.658  0.00  0.00    -0.272 OA
ATOM     22  N   UNL     1       2.840   0.532  -2.743  0.00  0.00    -0.206 N 
ATOM     23  H   UNL     1       2.514   0.046  -3.517  0.00  0.00    +0.177 HD
BRANCH  22  24
ATOM     24  N   UNL     1       4.091   1.161  -2.787  0.00  0.00    -0.185 NA
ATOM     25  C   UNL     1       4.816   1.094  -3.865  0.00  0.00    +0.176 C 
BRANCH  25  26
ATOM     26  C   UNL     1       6.124   1.753  -3.912  0.00  0.00    +0.149 A 
ATOM     27  C   UNL     1       6.983   1.756  -4.972  0.00  0.00    +0.066 A 
ATOM     28  C   UNL     1       8.108   2.506  -4.580  0.00  0.00    +0.059 A 
ATOM     29  C   UNL     1       7.891   2.913  -3.312  0.00  0.00    +0.117 A 
ATOM     30  O   UNL     1       6.693   2.456  -2.912  0.00  0.00    -0.458 OA
ATOM     31  C   UNL     1       8.836   3.742  -2.482  0.00  0.00    +0.087 C 
ATOM     32 BR   UNL     1       9.639   2.868  -5.630  0.00  0.00    -0.047 Br
ENDBRANCH  25  26
ENDBRANCH  22  24
ENDBRANCH  19  20
ENDBRANCH   1  19
TORSDOF 7
