REMARK  Name = ZINC50205190
REMARK  4 active torsions:
REMARK  status: ('A' for Active; 'I' for Inactive)
REMARK    1  A    between atoms: C_6  and  C_7
REMARK    2  A    between atoms: C_7  and  C_9
REMARK    3  A    between atoms: C_9  and  C_10
REMARK    4  A    between atoms: C_9  and  C_12
REMARK                            x       y       z     vdW  Elec       q    Type
REMARK                         _______ _______ _______ _____ _____    ______ ____
ROOT
ATOM      1  C   UNL     1      -2.577  -0.029   0.028  0.00  0.00    +0.230 C 
ENDROOT
BRANCH   1   2
ATOM      2  C   UNL     1      -3.607  -0.864   0.744  0.00  0.00    +0.159 A 
ATOM      3  N   UNL     1      -3.901  -2.066   0.280  0.00  0.00    -0.192 NA
ATOM      4  C   UNL     1      -4.794  -2.847   0.862  0.00  0.00    +0.282 A 
ATOM      5  O   UNL     1      -5.066  -4.073   0.355  0.00  0.00    -0.265 OA
ATOM      6  C   UNL     1      -5.464  -2.384   2.025  0.00  0.00    +0.077 A 
ATOM      7  C   UNL     1      -6.482  -3.064   2.829  0.00  0.00    -0.023 A 
ATOM      8  C   UNL     1      -6.962  -2.398   3.898  0.00  0.00    -0.004 A 
ATOM      9  S   UNL     1      -6.104  -0.847   3.902  0.00  0.00    -0.073 S 
ATOM     10  C   UNL     1      -5.098  -1.094   2.462  0.00  0.00    +0.116 A 
ATOM     11  N   UNL     1      -4.191  -0.382   1.824  0.00  0.00    -0.223 NA
ATOM     12  C   UNL     1      -8.000  -2.871   4.871  0.00  0.00    +0.043 C 
ATOM     13  C   UNL     1      -8.716  -4.085   4.264  0.00  0.00    +0.005 C 
ATOM     14  C   UNL     1      -7.662  -5.058   3.727  0.00  0.00    +0.005 C 
ATOM     15  C   UNL     1      -6.989  -4.463   2.490  0.00  0.00    +0.037 C 
ENDBRANCH   1   2
BRANCH   1  16
ATOM     16  C   UNL     1      -1.260  -0.761   0.011  0.00  0.00    +0.187 C 
ATOM     17  O   UNL     1      -1.240  -1.973   0.004  0.00  0.00    -0.290 OA
BRANCH  16  23
ATOM     18  C   UNL     1      -0.017   1.394   0.010  0.00  0.00    +0.012 A 
ATOM     19  C   UNL     1       1.170   2.097   0.002  0.00  0.00    +0.007 A 
ATOM     20  C   UNL     1       2.376   1.423  -0.013  0.00  0.00    -0.017 A 
ATOM     21  C   UNL     1       2.402   0.035  -0.021  0.00  0.00    -0.016 A 
ATOM     22  C   UNL     1       1.227  -0.680  -0.014  0.00  0.00    +0.017 A 
ATOM     23  C   UNL     1       0.002  -0.004   0.002  0.00  0.00    +0.020 A 
ATOM     24  C   UNL     1       3.854  -0.385  -0.038  0.00  0.00    +0.195 C 
ATOM     25  O   UNL     1       4.596   0.773  -0.461  0.00  0.00    -0.371 OA
ATOM     26  C   UNL     1       3.811   1.898  -0.025  0.00  0.00    +0.195 C 
ENDBRANCH  16  23
ENDBRANCH   1  16
BRANCH   1  27
ATOM     27  C   UNL     1      -3.020   0.217  -1.354  0.00  0.00    +0.082 C 
ATOM     28  N   UNL     1      -3.362   0.407  -2.421  0.00  0.00    -0.195 NA
ENDBRANCH   1  27
TORSDOF 4
