REMARK  Name = ZINC08790354
REMARK  11 active torsions:
REMARK  status: ('A' for Active; 'I' for Inactive)
REMARK    1  A    between atoms: C_1  and  C_2
REMARK    2  A    between atoms: C_9  and  C_31
REMARK    3  A    between atoms: C_10  and  C_17
REMARK    4  A    between atoms: C_15  and  C_16
REMARK    5  A    between atoms: C_17  and  C_18
REMARK    6  A    between atoms: C_18  and  C_19
REMARK    7  A    between atoms: N_21  and  C_22
REMARK    8  A    between atoms: C_24  and  C_29
REMARK    9  A    between atoms: C_24  and  C_30
REMARK   10  A    between atoms: C_25  and  C_27
REMARK   11  A    between atoms: C_25  and  C_28
REMARK                            x       y       z     vdW  Elec       q    Type
REMARK                         _______ _______ _______ _____ _____    ______ ____
ROOT
ATOM      1  C   UNL     1      -0.234   7.694  -3.790  0.00  0.00    +0.052 C 
ENDROOT
BRANCH   1  11
ATOM      2  C   UNL     1      -4.854  14.412  -2.813  0.00  0.00    +0.047 C 
ATOM      3  C   UNL     1      -3.396  14.563  -3.164  0.00  0.00    -0.005 A 
ATOM      4  C   UNL     1      -2.727  15.708  -3.348  0.00  0.00    +0.199 A 
ATOM      5  O   UNL     1      -1.442  15.454  -3.651  0.00  0.00    -0.462 OA
ATOM      6  C   UNL     1      -1.206  14.126  -3.680  0.00  0.00    +0.141 A 
ATOM      7  C   UNL     1      -2.423  13.482  -3.376  0.00  0.00    +0.024 A 
ATOM      8  C   UNL     1      -2.494  12.097  -3.332  0.00  0.00    +0.023 A 
ATOM      9  C   UNL     1      -1.348  11.345  -3.591  0.00  0.00    +0.022 A 
ATOM     10  C   UNL     1      -1.388   9.880  -3.559  0.00  0.00    -0.030 A 
ATOM     11  C   UNL     1      -0.242   9.201  -3.816  0.00  0.00    +0.041 A 
ATOM     12  C   UNL     1       0.942   9.909  -4.113  0.00  0.00    +0.341 A 
ATOM     13  O   UNL     1       1.962   9.287  -4.346  0.00  0.00    -0.245 OA
ATOM     14  O   UNL     1       0.973  11.250  -4.146  0.00  0.00    -0.422 OA
ATOM     15  C   UNL     1      -0.131  11.990  -3.896  0.00  0.00    +0.146 A 
ATOM     16  C   UNL     1      -0.071  13.372  -3.938  0.00  0.00    +0.035 A 
ATOM     17  C   UNL     1       1.230  14.059  -4.262  0.00  0.00    +0.051 C 
ATOM     18  C   UNL     1      -2.667   9.148  -3.245  0.00  0.00    +0.045 C 
ENDBRANCH   1  11
BRANCH   1  19
ATOM     19  C   UNL     1       0.105   7.210  -2.379  0.00  0.00    +0.100 C 
BRANCH  19  20
ATOM     20  C   UNL     1       0.113   5.703  -2.353  0.00  0.00    +0.214 C 
ATOM     21  O   UNL     1      -0.129   5.078  -3.364  0.00  0.00    -0.276 OA
ATOM     22  N   UNL     1       0.389   5.051  -1.207  0.00  0.00    -0.313 N 
ATOM     23  H   UNL     1       0.582   5.550  -0.398  0.00  0.00    +0.149 HD
BRANCH  22  24
ATOM     24  C   UNL     1       0.396   3.583  -1.181  0.00  0.00    +0.070 C 
ATOM     25  C   UNL     1       1.298   3.104  -0.042  0.00  0.00    +0.009 C 
ATOM     26  C   UNL     1       1.320   1.577  -0.002  0.00  0.00    -0.072 C 
ATOM     27  C   UNL     1      -1.042   1.551  -0.852  0.00  0.00    -0.072 C 
ATOM     28  C   UNL     1      -1.022   3.076  -0.918  0.00  0.00    +0.009 C 
ATOM     29  C   UNL     1      -0.944   0.975  -2.269  0.00  0.00    -0.010 C 
ATOM     30  C   UNL     1      -2.415   1.129  -0.282  0.00  0.00    -0.010 C 
ATOM     31  C   UNL     1       2.035   1.156   1.301  0.00  0.00    -0.010 C 
ATOM     32  C   UNL     1       2.151   1.041  -1.172  0.00  0.00    -0.010 C 
ATOM     33  N   UNL     1      -0.027   0.947   0.053  0.00  0.00    +0.386 N 
ATOM     34  H   UNL     1      -0.375   1.022   1.016  0.00  0.00    -0.084 HD
ATOM     35  H   UNL     1       0.074  -0.044  -0.199  0.00  0.00    -0.084 HD
ENDBRANCH  22  24
ENDBRANCH  19  20
ENDBRANCH   1  19
TORSDOF 4
