REMARK  Name = ZINC37035108
REMARK  5 active torsions:
REMARK  status: ('A' for Active; 'I' for Inactive)
REMARK    1  A    between atoms: C_4  and  S_8
REMARK    2  A    between atoms: C_5  and  N_7
REMARK    3  A    between atoms: S_8  and  C_9
REMARK    4  A    between atoms: C_9  and  C_10
REMARK    5  A    between atoms: C_11  and  N_19
REMARK                            x       y       z     vdW  Elec       q    Type
REMARK                         _______ _______ _______ _____ _____    ______ ____
ROOT
ATOM      1  C   UNL     1       6.568  -0.087  -0.065  0.00  0.00    +0.101 A 
ATOM      2  C   UNL     1       7.300  -0.411   1.024  0.00  0.00    +0.224 A 
ATOM      3  N   UNL     1       8.487  -0.923   0.574  0.00  0.00    -0.280 N 
ATOM      4  C   UNL     1       9.588  -1.406   1.220  0.00  0.00    +0.095 A 
ATOM      5  C   UNL     1      10.649  -1.863   0.523  0.00  0.00    +0.018 A 
ATOM      6  C   UNL     1      10.634  -1.847  -0.882  0.00  0.00    +0.005 A 
ATOM      7  C   UNL     1       9.543  -1.369  -1.538  0.00  0.00    +0.047 A 
ATOM      8  C   UNL     1       8.442  -0.895  -0.796  0.00  0.00    +0.140 A 
ATOM      9  N   UNL     1       7.271  -0.391  -1.158  0.00  0.00    -0.229 NA
ENDROOT
BRANCH   2  10
ATOM     10  N   UNL     1       6.894  -0.243   2.438  0.00  0.00    +0.076 N 
ATOM     11  O   UNL     1       7.146   0.786   3.021  0.00  0.00    -0.125 OA
ATOM     12  O   UNL     1       6.312  -1.135   3.010  0.00  0.00    -0.125 OA
ENDBRANCH   2  10
BRANCH   1  13
ATOM     13  C   UNL     1       5.186   0.513  -0.047  0.00  0.00    +0.133 C 
BRANCH  13  14
ATOM     14  S   UNL     1       3.950  -0.815  -0.042  0.00  0.00    -0.117 S 
BRANCH  14  18
ATOM     15  C   UNL     1      -0.017   1.379   0.010  0.00  0.00    +0.002 A 
ATOM     16  C   UNL     1       1.169   2.090   0.002  0.00  0.00    +0.001 A 
ATOM     17  C   UNL     1       2.380   1.424  -0.013  0.00  0.00    +0.016 A 
ATOM     18  C   UNL     1       2.408   0.037  -0.021  0.00  0.00    +0.029 A 
ATOM     19  C   UNL     1       1.212  -0.681  -0.013  0.00  0.00    +0.038 A 
ATOM     20  C   UNL     1       0.002  -0.004   0.002  0.00  0.00    +0.024 A 
BRANCH  19  21
ATOM     21  N   UNL     1       1.233  -2.081  -0.021  0.00  0.00    -0.357 N 
ATOM     22  H   UNL     1       2.080  -2.553  -0.032  0.00  0.00    +0.142 HD
ATOM     23  H   UNL     1       0.401  -2.579  -0.016  0.00  0.00    +0.142 HD
ENDBRANCH  19  21
ENDBRANCH  14  18
ENDBRANCH  13  14
ENDBRANCH   1  13
TORSDOF 5
