REMARK  Name = ZINC64869970
REMARK  11 active torsions:
REMARK  status: ('A' for Active; 'I' for Inactive)
REMARK    1  A    between atoms: C_1  and  C_2
REMARK    2  A    between atoms: C_4  and  N_9
REMARK    3  A    between atoms: C_10  and  C_12
REMARK    4  A    between atoms: C_12  and  S_13
REMARK    5  A    between atoms: S_13  and  C_14
REMARK    6  A    between atoms: C_18  and  C_31
REMARK    7  A    between atoms: C_19  and  C_30
REMARK    8  A    between atoms: C_23  and  C_25
REMARK    9  A    between atoms: C_25  and  C_26
REMARK   10  A    between atoms: C_26  and  O_28
REMARK   11  A    between atoms: O_28  and  C_29
REMARK                            x       y       z     vdW  Elec       q    Type
REMARK                         _______ _______ _______ _____ _____    ______ ____
ROOT
ATOM      1  C   UNL     1       0.537  -7.345  -5.022  0.00  0.00    +0.100 C 
ATOM      2  N   UNL     1       0.509  -6.531  -6.030  0.00  0.00    -0.239 NA
ATOM      3  C   UNL     1       0.583  -6.856  -7.353  0.00  0.00    +0.086 A 
ATOM      4  C   UNL     1      -0.216  -6.174  -8.271  0.00  0.00    +0.033 A 
ATOM      5  C   UNL     1      -0.122  -6.460  -9.621  0.00  0.00    -0.045 A 
ATOM      6  C   UNL     1       0.766  -7.418 -10.068  0.00  0.00    -0.046 A 
ATOM      7  C   UNL     1       1.553  -8.115  -9.163  0.00  0.00    +0.029 A 
ATOM      8  C   UNL     1       1.451  -7.853  -7.810  0.00  0.00    +0.057 A 
ATOM      9  N   UNL     1       2.180  -8.639  -6.894  0.00  0.00    -0.316 N 
ATOM     10  C   UNL     1       1.481  -9.386  -5.970  0.00  0.00    +0.021 C 
ATOM     11  C   UNL     1       0.669  -8.793  -5.092  0.00  0.00    +0.054 C 
ATOM     12  C   UNL     1       0.880  -7.708 -11.543  0.00  0.00    +0.044 C 
ATOM     13  C   UNL     1      -0.990  -5.722 -10.607  0.00  0.00    +0.044 C 
ATOM     14  H   UNL     1       3.150  -8.653  -6.912  0.00  0.00    +0.152 HD
ENDROOT
BRANCH   1  15
ATOM     15  S   UNL     1       0.411  -6.631  -3.416  0.00  0.00    -0.096 S 
BRANCH  15  16
ATOM     16  C   UNL     1       0.265  -4.851  -3.737  0.00  0.00    +0.171 C 
BRANCH  16  18
ATOM     17  N   UNL     1       0.028  -2.771  -2.420  0.00  0.00    -0.285 N 
ATOM     18  C   UNL     1       0.148  -4.113  -2.428  0.00  0.00    +0.227 C 
ATOM     19  O   UNL     1       0.162  -4.727  -1.382  0.00  0.00    -0.275 OA
ATOM     20  H   UNL     1      -0.060  -2.287  -3.256  0.00  0.00    +0.155 HD
BRANCH  17  24
ATOM     21  C   UNL     1       1.619  -2.350   2.213  0.00  0.00    +0.045 C 
ATOM     22  C   UNL     1       0.793  -1.849   1.057  0.00  0.00    -0.035 A 
ATOM     23  C   UNL     1       0.792  -2.538  -0.141  0.00  0.00    +0.027 A 
ATOM     24  C   UNL     1       0.030  -2.075  -1.206  0.00  0.00    +0.034 A 
ATOM     25  C   UNL     1      -0.729  -0.921  -1.063  0.00  0.00    +0.024 A 
ATOM     26  C   UNL     1      -0.724  -0.236   0.136  0.00  0.00    +0.017 A 
ATOM     27  C   UNL     1       0.032  -0.703   1.197  0.00  0.00    +0.021 A 
ATOM     28 BR   UNL     1       0.029   0.233   2.841  0.00  0.00    -0.050 Br
ENDBRANCH  17  24
ENDBRANCH  16  18
ENDBRANCH  15  16
ENDBRANCH   1  15
BRANCH  10  29
ATOM     29  C   UNL     1       1.638 -10.884  -5.950  0.00  0.00    +0.171 C 
BRANCH  29  30
ATOM     30  C   UNL     1       0.697 -11.502  -6.952  0.00  0.00    +0.312 C 
ATOM     31  O   UNL     1      -0.027 -10.798  -7.614  0.00  0.00    -0.250 OA
BRANCH  30  32
ATOM     32  O   UNL     1       0.663 -12.835  -7.108  0.00  0.00    -0.468 OA
ATOM     33  C   UNL     1      -0.253 -13.352  -8.075  0.00  0.00    +0.280 C 
ENDBRANCH  30  32
ENDBRANCH  29  30
ENDBRANCH  10  29
TORSDOF 7
