REMARK  Name = ZINC34918532
REMARK  21 active torsions:
REMARK  status: ('A' for Active; 'I' for Inactive)
REMARK    1  A    between atoms: C_1  and  C_2
REMARK    2  A    between atoms: C_2  and  N_3
REMARK    3  A    between atoms: N_3  and  C_4
REMARK    4  A    between atoms: N_3  and  C_6
REMARK    5  A    between atoms: C_4  and  C_5
REMARK    6  A    between atoms: C_6  and  C_7
REMARK    7  A    between atoms: C_7  and  N_8
REMARK    8  A    between atoms: C_9  and  C_27
REMARK    9  A    between atoms: C_11  and  C_12
REMARK   10  A    between atoms: C_12  and  C_13
REMARK   11  A    between atoms: C_16  and  O_20
REMARK   12  A    between atoms: C_17  and  C_19
REMARK   13  A    between atoms: O_20  and  C_21
REMARK   14  A    between atoms: C_30  and  O_35
REMARK   15  A    between atoms: C_31  and  O_33
REMARK   16  A    between atoms: O_33  and  C_34
REMARK   17  A    between atoms: O_35  and  C_36
REMARK   18  A    between atoms: C_36  and  C_37
REMARK   19  A    between atoms: C_37  and  C_38
REMARK   20  A    between atoms: C_38  and  C_39
REMARK   21  A    between atoms: C_38  and  C_40
REMARK                            x       y       z     vdW  Elec       q    Type
REMARK                         _______ _______ _______ _____ _____    ______ ____
ROOT
ATOM      1  N   UNL     1      -0.539  -3.042  -2.135  0.00  0.00    -0.285 N 
ATOM      2  C   UNL     1      -0.900  -3.913  -3.260  0.00  0.00    +0.145 C 
ATOM      3  C   UNL     1      -1.484  -5.166  -2.651  0.00  0.00    +0.076 C 
ATOM      4  C   UNL     1      -1.449  -5.001  -1.308  0.00  0.00    +0.249 C 
ATOM      5  O   UNL     1      -1.883  -5.902  -0.396  0.00  0.00    -0.282 OA
ATOM      6  C   UNL     1      -0.856  -3.684  -0.996  0.00  0.00    +0.288 C 
ATOM      7  O   UNL     1      -0.683  -3.245   0.123  0.00  0.00    -0.266 OA
ENDROOT
BRANCH   2   8
ATOM      8  C   UNL     1       0.327  -4.252  -4.067  0.00  0.00    -0.019 A 
ATOM      9  C   UNL     1       1.469  -4.699  -3.430  0.00  0.00    +0.009 A 
ATOM     10  C   UNL     1       2.597  -5.012  -4.166  0.00  0.00    +0.050 A 
ATOM     11  C   UNL     1       2.584  -4.878  -5.545  0.00  0.00    +0.162 A 
ATOM     12  C   UNL     1       1.433  -4.428  -6.186  0.00  0.00    +0.162 A 
ATOM     13  C   UNL     1       0.305  -4.121  -5.443  0.00  0.00    +0.055 A 
BRANCH  12  14
ATOM     14  O   UNL     1       1.415  -4.294  -7.539  0.00  0.00    -0.491 OA
ATOM     15  C   UNL     1       0.238  -3.728  -8.120  0.00  0.00    +0.277 C 
ENDBRANCH  12  14
BRANCH  11  16
ATOM     16  O   UNL     1       3.692  -5.184  -6.271  0.00  0.00    -0.488 OA
BRANCH  16  17
ATOM     17  C   UNL     1       4.837  -5.639  -5.545  0.00  0.00    +0.229 C 
BRANCH  17  18
ATOM     18  C   UNL     1       5.976  -5.933  -6.523  0.00  0.00    +0.044 C 
BRANCH  18  19
ATOM     19  C   UNL     1       7.201  -6.420  -5.747  0.00  0.00    -0.014 C 
ATOM     20  C   UNL     1       6.884  -7.761  -5.082  0.00  0.00    +0.007 C 
ATOM     21  C   UNL     1       8.378  -6.594  -6.709  0.00  0.00    +0.007 C 
ENDBRANCH  18  19
ENDBRANCH  17  18
ENDBRANCH  16  17
ENDBRANCH  11  16
ENDBRANCH   2   8
BRANCH   3  22
ATOM     22  C   UNL     1      -1.991  -6.336  -3.376  0.00  0.00    +0.195 C 
ATOM     23  O   UNL     1      -1.413  -7.403  -3.288  0.00  0.00    -0.287 OA
BRANCH  22  24
ATOM     24  C   UNL     1      -3.203  -6.219  -4.210  0.00  0.00    +0.023 A 
ATOM     25  C   UNL     1      -3.894  -5.005  -4.277  0.00  0.00    +0.015 A 
ATOM     26  C   UNL     1      -5.024  -4.900  -5.057  0.00  0.00    +0.046 A 
ATOM     27  C   UNL     1      -5.477  -5.999  -5.778  0.00  0.00    +0.123 A 
ATOM     28  C   UNL     1      -4.793  -7.208  -5.715  0.00  0.00    -0.008 A 
ATOM     29  C   UNL     1      -3.659  -7.319  -4.942  0.00  0.00    +0.018 A 
ATOM     30  C   UNL     1      -5.290  -8.395  -6.498  0.00  0.00    +0.047 C 
BRANCH  27  31
ATOM     31  O   UNL     1      -6.591  -5.891  -6.546  0.00  0.00    -0.495 OA
ATOM     32  C   UNL     1      -7.182  -4.595  -6.653  0.00  0.00    +0.277 C 
ENDBRANCH  27  31
ENDBRANCH  22  24
ENDBRANCH   3  22
BRANCH   1  33
ATOM     33  C   UNL     1       0.066  -1.711  -2.235  0.00  0.00    +0.090 C 
BRANCH  33  34
ATOM     34  C   UNL     1       1.590  -1.842  -2.238  0.00  0.00    -0.060 C 
BRANCH  34  35
ATOM     35  N   UNL     1       2.196  -0.508  -2.338  0.00  0.00    +0.380 N 
ATOM     36  H   UNL     1       1.831  -0.033  -3.150  0.00  0.00    -0.082 HD
BRANCH  35  38
ATOM     37  C   UNL     1       2.384   1.701  -1.297  0.00  0.00    -0.017 C 
ATOM     38  C   UNL     1       1.876   0.267  -1.132  0.00  0.00    -0.082 C 
ENDBRANCH  35  38
BRANCH  35  39
ATOM     39  C   UNL     1       3.654  -0.640  -2.462  0.00  0.00    -0.082 C 
ATOM     40  C   UNL     1       3.993  -1.321  -3.790  0.00  0.00    -0.017 C 
ENDBRANCH  35  39
ENDBRANCH  34  35
ENDBRANCH  33  34
ENDBRANCH   1  33
TORSDOF 14
