REMARK  Name = ZINC02093469
REMARK  7 active torsions:
REMARK  status: ('A' for Active; 'I' for Inactive)
REMARK    1  A    between atoms: C_1  and  C_2
REMARK    2  A    between atoms: C_4  and  N_9
REMARK    3  A    between atoms: C_10  and  C_12
REMARK    4  A    between atoms: C_12  and  C_13
REMARK    5  A    between atoms: C_13  and  C_14
REMARK    6  A    between atoms: C_15  and  C_29
REMARK    7  A    between atoms: C_19  and  C_28
REMARK                            x       y       z     vdW  Elec       q    Type
REMARK                         _______ _______ _______ _____ _____    ______ ____
ROOT
ATOM      1  C   UNL     1       0.037  -0.377   1.014  0.00  0.00    +0.041 A 
ATOM      2  C   UNL     1      -0.145   0.309  -0.144  0.00  0.00    -0.030 A 
ATOM      3  C   UNL     1      -0.129  -0.442  -1.403  0.00  0.00    +0.022 A 
ATOM      4  C   UNL     1      -0.305   0.209  -2.624  0.00  0.00    +0.023 A 
ATOM      5  C   UNL     1      -0.280  -0.530  -3.798  0.00  0.00    +0.024 A 
ATOM      6  C   UNL     1      -0.430  -0.194  -5.221  0.00  0.00    -0.005 A 
ATOM      7  C   UNL     1      -0.309  -1.347  -5.891  0.00  0.00    +0.199 A 
ATOM      8  O   UNL     1      -0.100  -2.364  -5.036  0.00  0.00    -0.463 OA
ATOM      9  C   UNL     1      -0.074  -1.924  -3.761  0.00  0.00    +0.139 A 
ATOM     10  C   UNL     1       0.106  -2.564  -2.543  0.00  0.00    +0.093 A 
ATOM     11  C   UNL     1       0.083  -1.836  -1.366  0.00  0.00    +0.143 A 
ATOM     12  O   UNL     1       0.257  -2.455  -0.177  0.00  0.00    -0.422 OA
ATOM     13  C   UNL     1       0.239  -1.773   0.979  0.00  0.00    +0.341 A 
ATOM     14  O   UNL     1       0.401  -2.374   2.025  0.00  0.00    -0.245 OA
ATOM     15  C   UNL     1      -0.672   1.173  -5.808  0.00  0.00    +0.047 C 
ATOM     16  C   UNL     1      -0.363   1.800  -0.134  0.00  0.00    +0.045 C 
ENDROOT
BRANCH   1  17
ATOM     17  C   UNL     1       0.022   0.352   2.333  0.00  0.00    +0.052 C 
BRANCH  17  18
ATOM     18  C   UNL     1      -1.406   0.389   2.879  0.00  0.00    +0.101 C 
BRANCH  18  20
ATOM     19  N   UNL     1      -2.579   1.274   4.870  0.00  0.00    -0.285 N 
ATOM     20  C   UNL     1      -1.421   1.117   4.199  0.00  0.00    +0.218 C 
ATOM     21  O   UNL     1      -0.390   1.562   4.657  0.00  0.00    -0.275 OA
ATOM     22  H   UNL     1      -3.414   0.986   4.469  0.00  0.00    +0.155 HD
BRANCH  19  26
ATOM     23  C   UNL     1      -4.812   4.040   8.265  0.00  0.00    +0.045 C 
ATOM     24  C   UNL     1      -3.647   3.197   7.816  0.00  0.00    -0.035 A 
ATOM     25  C   UNL     1      -3.651   2.628   6.557  0.00  0.00    +0.027 A 
ATOM     26  C   UNL     1      -2.577   1.851   6.144  0.00  0.00    +0.034 A 
ATOM     27  C   UNL     1      -1.504   1.643   7.001  0.00  0.00    +0.024 A 
ATOM     28  C   UNL     1      -1.502   2.219   8.256  0.00  0.00    +0.017 A 
ATOM     29  C   UNL     1      -2.574   2.993   8.665  0.00  0.00    +0.021 A 
ATOM     30 BR   UNL     1      -2.571   3.774  10.387  0.00  0.00    -0.050 Br
ENDBRANCH  19  26
ENDBRANCH  18  20
ENDBRANCH  17  18
ENDBRANCH   1  17
TORSDOF 4
