REMARK  Name = ZINC09635678
REMARK  11 active torsions:
REMARK  status: ('A' for Active; 'I' for Inactive)
REMARK    1  A    between atoms: C_1  and  C_2
REMARK    2  A    between atoms: C_2  and  S_3
REMARK    3  A    between atoms: S_3  and  C_4
REMARK    4  A    between atoms: C_4  and  C_5
REMARK    5  A    between atoms: C_5  and  O_6
REMARK    6  A    between atoms: O_6  and  C_7
REMARK    7  A    between atoms: C_7  and  C_9
REMARK    8  A    between atoms: C_10  and  C_38
REMARK    9  A    between atoms: C_14  and  C_16
REMARK   10  A    between atoms: C_19  and  N_22
REMARK   11  A    between atoms: C_28  and  C_31
REMARK                            x       y       z     vdW  Elec       q    Type
REMARK                         _______ _______ _______ _____ _____    ______ ____
ROOT
ATOM      1  C   UNL     1      -6.838  -1.072  -1.441  0.00  0.00    +0.154 C 
ATOM      2  C   UNL     1      -6.095  -0.658  -2.482  0.00  0.00    +0.031 C 
ATOM      3  N   UNL     1      -5.148   0.313  -2.315  0.00  0.00    -0.260 NA
ATOM      4  C   UNL     1      -4.656   0.601  -1.071  0.00  0.00    +0.049 C 
ATOM      5  C   UNL     1      -5.336   0.236   0.037  0.00  0.00    +0.025 C 
ATOM      6  C   UNL     1      -6.657  -0.484  -0.073  0.00  0.00    +0.073 C 
ATOM      7  C   UNL     1      -4.837   0.516   1.321  0.00  0.00    +0.162 C 
ATOM      8  O   UNL     1      -5.479   0.182   2.296  0.00  0.00    -0.292 OA
ATOM      9  C   UNL     1      -3.521   1.220   1.508  0.00  0.00    +0.088 C 
ATOM     10  C   UNL     1      -2.616   0.914   0.310  0.00  0.00    +0.032 C 
ATOM     11  C   UNL     1      -3.341   1.334  -0.968  0.00  0.00    +0.064 C 
ATOM     12  C   UNL     1      -6.309  -1.269  -3.844  0.00  0.00    +0.061 C 
ENDROOT
BRANCH  10  13
ATOM     13  C   UNL     1      -1.327   1.685   0.439  0.00  0.00    -0.043 A 
ATOM     14  C   UNL     1      -0.121   1.012   0.483  0.00  0.00    +0.005 A 
ATOM     15  C   UNL     1       1.062   1.719   0.595  0.00  0.00    +0.020 A 
ATOM     16  C   UNL     1       1.037   3.101   0.668  0.00  0.00    +0.041 A 
ATOM     17  C   UNL     1      -0.171   3.773   0.629  0.00  0.00    +0.020 A 
ATOM     18  C   UNL     1      -1.353   3.065   0.517  0.00  0.00    +0.005 A 
ATOM     19 CL   UNL     1       2.521   3.989   0.810  0.00  0.00    -0.084 Cl
ENDBRANCH  10  13
BRANCH   6  20
ATOM     20  C   UNL     1      -7.776   0.489   0.192  0.00  0.00    -0.039 A 
ATOM     21  C   UNL     1      -7.926   1.605  -0.611  0.00  0.00    +0.006 A 
ATOM     22  C   UNL     1      -8.955   2.495  -0.370  0.00  0.00    +0.033 A 
ATOM     23  C   UNL     1      -9.828   2.276   0.679  0.00  0.00    +0.126 A 
ATOM     24  C   UNL     1      -9.675   1.163   1.485  0.00  0.00    +0.033 A 
ATOM     25  C   UNL     1      -8.649   0.270   1.241  0.00  0.00    +0.006 A 
BRANCH  23  26
ATOM     26  N   UNL     1     -10.927   3.233   0.940  0.00  0.00    +0.056 N 
ATOM     27  O   UNL     1     -11.696   3.040   1.865  0.00  0.00    -0.126 OA
ATOM     28  O   UNL     1     -11.062   4.214   0.230  0.00  0.00    -0.126 OA
ENDBRANCH  23  26
ENDBRANCH   6  20
BRANCH   1  29
ATOM     29  C   UNL     1      -7.807  -2.083  -1.639  0.00  0.00    +0.317 C 
ATOM     30  O   UNL     1      -8.037  -2.495  -2.760  0.00  0.00    -0.250 OA
BRANCH  29  31
ATOM     31  O   UNL     1      -8.476  -2.592  -0.583  0.00  0.00    -0.463 OA
BRANCH  31  32
ATOM     32  C   UNL     1      -9.440  -3.611  -0.855  0.00  0.00    +0.243 C 
BRANCH  32  33
ATOM     33  C   UNL     1     -10.091  -4.060   0.454  0.00  0.00    +0.110 C 
BRANCH  33  34
ATOM     34  S   UNL     1     -11.316  -5.353   0.108  0.00  0.00    -0.158 S 
BRANCH  34  36
ATOM     35  C   UNL     1     -13.045  -6.865   1.593  0.00  0.00    +0.015 C 
ATOM     36  C   UNL     1     -11.986  -5.771   1.741  0.00  0.00    +0.066 C 
ENDBRANCH  34  36
ENDBRANCH  33  34
ENDBRANCH  32  33
ENDBRANCH  31  32
ENDBRANCH  29  31
ENDBRANCH   1  29
TORSDOF 9
