REMARK  Name = ZINC05123572
REMARK  6 active torsions:
REMARK  status: ('A' for Active; 'I' for Inactive)
REMARK    1  A    between atoms: C_1  and  C_2
REMARK    2  A    between atoms: C_5  and  N_8
REMARK    3  A    between atoms: C_10  and  N_15
REMARK    4  A    between atoms: N_18  and  C_19
REMARK    5  A    between atoms: C_22  and  C_26
REMARK    6  A    between atoms: C_24  and  C_25
REMARK                            x       y       z     vdW  Elec       q    Type
REMARK                         _______ _______ _______ _____ _____    ______ ____
ROOT
ATOM      1  N   UNL     1      -0.817   0.634  -2.299  0.00  0.00    -0.294 N 
ATOM      2  C   UNL     1      -0.967   1.044  -3.574  0.00  0.00    +0.304 C 
ATOM      3  O   UNL     1      -1.103   2.227  -3.820  0.00  0.00    -0.252 OA
ATOM      4  N   UNL     1      -0.966   0.143  -4.576  0.00  0.00    -0.269 N 
ATOM      5  H   UNL     1      -0.708  -0.310  -2.102  0.00  0.00    +0.151 HD
ATOM      6  H   UNL     1      -0.776  -0.790  -4.389  0.00  0.00    +0.156 HD
ENDROOT
BRANCH   4   7
ATOM      7  C   UNL     1      -1.239   0.553  -5.886  0.00  0.00    +0.038 A 
ATOM      8  C   UNL     1      -1.990   1.698  -6.115  0.00  0.00    +0.024 A 
ATOM      9  C   UNL     1      -2.253   2.103  -7.409  0.00  0.00    +0.005 A 
ATOM     10  C   UNL     1      -1.779   1.362  -8.476  0.00  0.00    -0.050 A 
ATOM     11  C   UNL     1      -1.035   0.218  -8.252  0.00  0.00    +0.008 A 
ATOM     12  C   UNL     1      -0.764  -0.189  -6.960  0.00  0.00    -0.029 A 
ATOM     13  C   UNL     1       0.046  -1.436  -6.716  0.00  0.00    +0.045 C 
ATOM     14  C   UNL     1      -2.073   1.803  -9.887  0.00  0.00    +0.044 C 
ENDBRANCH   4   7
BRANCH   1  17
ATOM     15  N   UNL     1      -0.777   1.573   1.189  0.00  0.00    -0.270 N 
ATOM     16  C   UNL     1      -0.046   1.078   0.016  0.00  0.00    +0.136 C 
ATOM     17  C   UNL     1      -0.818   1.614  -1.210  0.00  0.00    +0.101 C 
ATOM     18  C   UNL     1      -2.240   1.796  -0.631  0.00  0.00    +0.120 C 
ATOM     19  C   UNL     1      -2.016   1.977   0.854  0.00  0.00    +0.222 C 
ATOM     20  O   UNL     1      -2.834   2.423   1.631  0.00  0.00    -0.275 OA
BRANCH  15  25
ATOM     21  C   UNL     1       1.351   1.756   6.445  0.00  0.00    +0.044 C 
ATOM     22  C   UNL     1       0.786   1.707   5.048  0.00  0.00    -0.050 A 
ATOM     23  C   UNL     1      -0.503   2.148   4.810  0.00  0.00    +0.005 A 
ATOM     24  C   UNL     1      -1.024   2.104   3.532  0.00  0.00    +0.024 A 
ATOM     25  C   UNL     1      -0.252   1.618   2.485  0.00  0.00    +0.036 A 
ATOM     26  C   UNL     1       1.040   1.171   2.729  0.00  0.00    +0.024 A 
ATOM     27  C   UNL     1       1.557   1.222   4.008  0.00  0.00    +0.005 A 
ENDBRANCH  15  25
ENDBRANCH   1  17
TORSDOF 3
