REMARK  Name = ZINC13678005
REMARK  6 active torsions:
REMARK  status: ('A' for Active; 'I' for Inactive)
REMARK    1  A    between atoms: C_1  and  C_2
REMARK    2  A    between atoms: C_2  and  S_3
REMARK    3  A    between atoms: S_3  and  N_6
REMARK    4  A    between atoms: C_8  and  C_17
REMARK    5  A    between atoms: N_19  and  C_20
REMARK    6  A    between atoms: C_25  and  C_26
REMARK                            x       y       z     vdW  Elec       q    Type
REMARK                         _______ _______ _______ _____ _____    ______ ____
ROOT
ATOM      1  N   UNL     1      -0.729   1.800   1.484  0.00  0.00    -0.200 N 
ATOM      2  C   UNL     1      -1.769   0.947   2.085  0.00  0.00    +0.185 C 
ATOM      3  C   UNL     1      -2.905   1.864   2.559  0.00  0.00    +0.278 C 
ATOM      4  O   UNL     1      -2.375   2.809   3.492  0.00  0.00    -0.476 OA
ATOM      5  C   UNL     1      -1.251   3.486   3.138  0.00  0.00    +0.144 A 
ATOM      6  C   UNL     1      -0.407   2.997   2.142  0.00  0.00    +0.093 A 
ATOM      7  C   UNL     1       0.735   3.697   1.792  0.00  0.00    +0.028 A 
ATOM      8  C   UNL     1       1.042   4.881   2.438  0.00  0.00    +0.002 A 
ATOM      9  C   UNL     1       0.209   5.367   3.428  0.00  0.00    +0.004 A 
ATOM     10  C   UNL     1      -0.935   4.673   3.779  0.00  0.00    +0.047 A 
ENDROOT
BRANCH   3  11
ATOM     11  C   UNL     1      -3.975   1.040   3.227  0.00  0.00    +0.260 C 
ATOM     12  O   UNL     1      -4.204   1.186   4.409  0.00  0.00    -0.271 OA
ATOM     13  N   UNL     1      -4.678   0.140   2.511  0.00  0.00    -0.282 N 
ATOM     14  H   UNL     1      -4.456  -0.019   1.580  0.00  0.00    +0.155 HD
BRANCH  13  15
ATOM     15  C   UNL     1      -5.728  -0.565   3.110  0.00  0.00    +0.045 A 
ATOM     16  C   UNL     1      -5.727  -0.781   4.482  0.00  0.00    +0.024 A 
ATOM     17  C   UNL     1      -6.765  -1.477   5.070  0.00  0.00    +0.002 A 
ATOM     18  C   UNL     1      -7.804  -1.958   4.295  0.00  0.00    +0.001 A 
ATOM     19  C   UNL     1      -7.808  -1.743   2.929  0.00  0.00    +0.014 A 
ATOM     20  C   UNL     1      -6.776  -1.044   2.335  0.00  0.00    +0.076 A 
BRANCH  20  21
ATOM     21  C   UNL     1      -6.784  -0.805   0.847  0.00  0.00    +0.419 C 
ATOM     22  F   UNL     1      -7.933  -1.377   0.289  0.00  0.00    -0.166 F 
ATOM     23  F   UNL     1      -6.780   0.572   0.596  0.00  0.00    -0.166 F 
ATOM     24  F   UNL     1      -5.648  -1.387   0.275  0.00  0.00    -0.166 F 
ENDBRANCH  20  21
ENDBRANCH  13  15
ENDBRANCH   3  11
BRANCH   1  25
ATOM     25  S   UNL     1       0.038   1.358   0.084  0.00  0.00    +0.045 S 
ATOM     26  O   UNL     1       0.298   2.582  -0.588  0.00  0.00    -0.155 OA
ATOM     27  O   UNL     1      -0.809   0.377  -0.499  0.00  0.00    -0.155 OA
BRANCH  25  29
ATOM     28  C   UNL     1       2.394   0.148  -0.599  0.00  0.00    +0.030 C 
ATOM     29  C   UNL     1       1.594   0.599   0.625  0.00  0.00    +0.185 C 
ENDBRANCH  25  29
ENDBRANCH   1  25
TORSDOF 5
