REMARK  Name = ZINC31054895
REMARK  7 active torsions:
REMARK  status: ('A' for Active; 'I' for Inactive)
REMARK    1  A    between atoms: C_3  and  C_9
REMARK    2  A    between atoms: C_11  and  C_14
REMARK    3  A    between atoms: C_14  and  N_15
REMARK    4  A    between atoms: C_19  and  C_22
REMARK    5  A    between atoms: N_24  and  C_25
REMARK    6  A    between atoms: C_25  and  C_26
REMARK    7  A    between atoms: C_26  and  C_27
REMARK                            x       y       z     vdW  Elec       q    Type
REMARK                         _______ _______ _______ _____ _____    ______ ____
ROOT
ATOM      1  N   UNL     1       1.621   5.216  -1.371  0.00  0.00    +0.386 N 
ATOM      2  C   UNL     1       0.396   5.124  -2.176  0.00  0.00    -0.078 C 
ATOM      3  C   UNL     1       0.721   5.430  -3.639  0.00  0.00    -0.018 C 
ATOM      4  C   UNL     1       1.317   6.837  -3.741  0.00  0.00    +0.009 C 
ATOM      5  C   UNL     1       2.564   6.920  -2.857  0.00  0.00    +0.058 C 
ATOM      6  C   UNL     1       2.185   6.571  -1.415  0.00  0.00    -0.065 C 
ATOM      7  H   UNL     1       2.361   4.530  -1.808  0.00  0.00    -0.081 HD
ENDROOT
BRANCH   5   8
ATOM      8  C   UNL     1       3.123   8.319  -2.905  0.00  0.00    +0.214 C 
ATOM      9  O   UNL     1       3.211   8.972  -1.887  0.00  0.00    -0.276 OA
ATOM     10  N   UNL     1       3.526   8.843  -4.079  0.00  0.00    -0.315 N 
ATOM     11  H   UNL     1       3.447   8.251  -5.002  0.00  0.00    +0.149 HD
BRANCH  10  12
ATOM     12  C   UNL     1       4.070  10.203  -4.126  0.00  0.00    +0.108 C 
BRANCH  12  13
ATOM     13  C   UNL     1       4.449  10.551  -5.567  0.00  0.00    +0.049 C 
BRANCH  13  14
ATOM     14  C   UNL     1       5.008  11.950  -5.615  0.00  0.00    -0.072 C 
ATOM     15  C   UNL     1       6.293  12.092  -5.552  0.00  0.00    -0.028 C 
ATOM     16  C   UNL     1       6.995  13.418  -5.583  0.00  0.00    +0.027 C 
ATOM     17  C   UNL     1       6.051  14.503  -6.105  0.00  0.00    +0.004 C 
ATOM     18  C   UNL     1       4.726  14.403  -5.338  0.00  0.00    +0.005 C 
ATOM     19  C   UNL     1       4.040  13.091  -5.726  0.00  0.00    +0.030 C 
ENDBRANCH  13  14
ENDBRANCH  12  13
ENDBRANCH  10  12
ENDBRANCH   5   8
BRANCH   1  20
ATOM     20  C   UNL     1       1.374   4.793   0.014  0.00  0.00    +0.022 C 
BRANCH  20  23
ATOM     21  C   UNL     1      -0.018   1.480   0.010  0.00  0.00    +0.203 A 
ATOM     22  N   UNL     1       1.059   2.297   0.004  0.00  0.00    -0.193 NA
ATOM     23  C   UNL     1       0.577   3.515   0.015  0.00  0.00    +0.211 A 
ATOM     24  O   UNL     1      -0.756   3.410   0.026  0.00  0.00    -0.340 OA
ATOM     25  N   UNL     1      -1.081   2.241   0.019  0.00  0.00    -0.056 NA
BRANCH  21  28
ATOM     26  C   UNL     1       1.230  -2.067  -0.021  0.00  0.00    +0.021 A 
ATOM     27  C   UNL     1       1.216  -0.687  -0.019  0.00  0.00    +0.014 A 
ATOM     28  C   UNL     1       0.002  -0.004   0.002  0.00  0.00    +0.041 A 
ATOM     29  C   UNL     1      -1.195  -0.720   0.010  0.00  0.00    +0.053 A 
ATOM     30  C   UNL     1      -1.170  -2.101   0.002  0.00  0.00    +0.040 A 
ATOM     31  C   UNL     1       0.040  -2.773  -0.013  0.00  0.00    +0.042 A 
ATOM     32 CL   UNL     1       0.065  -4.509  -0.022  0.00  0.00    -0.083 Cl
ATOM     33 CL   UNL     1      -2.712   0.122   0.028  0.00  0.00    -0.083 Cl
ENDBRANCH  21  28
ENDBRANCH  20  23
ENDBRANCH   1  20
TORSDOF 7
