REMARK  Name = ZINC20738351
REMARK  4 active torsions:
REMARK  status: ('A' for Active; 'I' for Inactive)
REMARK    1  A    between atoms: C_6  and  C_7
REMARK    2  A    between atoms: C_12  and  C_18
REMARK    3  A    between atoms: C_15  and  O_17
REMARK    4  A    between atoms: N_20  and  C_21
REMARK                            x       y       z     vdW  Elec       q    Type
REMARK                         _______ _______ _______ _____ _____    ______ ____
ROOT
ATOM      1  C   UNL     1      -1.273  -0.764   0.015  0.00  0.00    +0.095 A 
ATOM      2  C   UNL     1      -1.390  -2.167   0.004  0.00  0.00    +0.078 A 
ATOM      3  C   UNL     1      -2.711  -2.469   0.010  0.00  0.00    +0.156 A 
ATOM      4  N   UNL     1      -3.407  -1.286   0.028  0.00  0.00    -0.234 N 
ATOM      5  N   UNL     1      -2.487  -0.244   0.034  0.00  0.00    -0.169 NA
ATOM      6  C   UNL     1      -4.872  -1.246   0.048  0.00  0.00    +0.204 C 
ATOM      7  C   UNL     1      -5.372  -2.506   0.763  0.00  0.00    +0.131 C 
ATOM      8  C   UNL     1      -4.604  -3.722   0.334  0.00  0.00    +0.191 C 
ATOM      9  N   UNL     1      -3.346  -3.679  -0.001  0.00  0.00    -0.198 NA
ENDROOT
BRANCH   1  15
ATOM     10  C   UNL     1      -0.024   1.395   0.030  0.00  0.00    +0.011 A 
ATOM     11  C   UNL     1       1.161   2.102   0.028  0.00  0.00    +0.020 A 
ATOM     12  C   UNL     1       2.371   1.429   0.008  0.00  0.00    +0.041 A 
ATOM     13  C   UNL     1       2.398   0.045  -0.009  0.00  0.00    +0.020 A 
ATOM     14  C   UNL     1       1.219  -0.671  -0.007  0.00  0.00    +0.011 A 
ATOM     15  C   UNL     1      -0.002   0.002   0.013  0.00  0.00    +0.002 A 
ATOM     16 CL   UNL     1       3.858   2.324   0.005  0.00  0.00    -0.084 Cl
ENDBRANCH   1  15
BRANCH   6  17
ATOM     17  C   UNL     1      -5.399  -1.219  -1.364  0.00  0.00    +0.242 C 
ATOM     18  O   UNL     1      -4.628  -1.230  -2.300  0.00  0.00    -0.273 OA
ATOM     19  N   UNL     1      -6.728  -1.181  -1.587  0.00  0.00    -0.284 N 
ATOM     20  H   UNL     1      -7.346  -1.239  -0.842  0.00  0.00    +0.155 HD
BRANCH  19  21
ATOM     21  C   UNL     1      -7.216  -1.058  -2.893  0.00  0.00    +0.036 A 
ATOM     22  C   UNL     1      -8.367  -0.321  -3.139  0.00  0.00    +0.026 A 
ATOM     23  C   UNL     1      -8.848  -0.200  -4.428  0.00  0.00    +0.043 A 
ATOM     24  C   UNL     1      -8.183  -0.812  -5.477  0.00  0.00    +0.159 A 
ATOM     25  C   UNL     1      -7.032  -1.548  -5.235  0.00  0.00    +0.160 A 
ATOM     26  C   UNL     1      -6.545  -1.666  -3.946  0.00  0.00    +0.064 A 
ATOM     27  F   UNL     1      -6.384  -2.144  -6.259  0.00  0.00    -0.202 F 
ATOM     28  F   UNL     1      -8.655  -0.693  -6.737  0.00  0.00    -0.202 F 
ENDBRANCH  19  21
ENDBRANCH   6  17
BRANCH   8  29
ATOM     29  O   UNL     1      -5.243  -4.909   0.293  0.00  0.00    -0.495 OA
ATOM     30  H   UNL     1      -4.686  -5.646   0.008  0.00  0.00    +0.293 HD
ENDBRANCH   8  29
TORSDOF 4
