REMARK  Name = ZINC13272793
REMARK  4 active torsions:
REMARK  status: ('A' for Active; 'I' for Inactive)
REMARK    1  A    between atoms: C_1  and  C_2
REMARK    2  A    between atoms: C_2  and  N_50
REMARK    3  A    between atoms: C_5  and  C_28
REMARK    4  A    between atoms: C_15  and  C_16
REMARK                            x       y       z     vdW  Elec       q    Type
REMARK                         _______ _______ _______ _____ _____    ______ ____
ROOT
ATOM      1  C   UNL     1       0.217   5.867  -0.110  0.00  0.00    -0.040 C 
ATOM      2  C   UNL     1       0.486   4.419   0.197  0.00  0.00    -0.024 A 
ATOM      3  C   UNL     1       1.790   3.999   0.418  0.00  0.00    +0.076 A 
ATOM      4  C   UNL     1       2.001   2.583   0.719  0.00  0.00    +0.015 A 
ATOM      5  C   UNL     1       3.280   2.069   0.956  0.00  0.00    +0.011 A 
ATOM      6  C   UNL     1       3.433   0.743   1.236  0.00  0.00    +0.001 A 
ATOM      7  C   UNL     1       2.330  -0.107   1.290  0.00  0.00    +0.002 A 
ATOM      8  C   UNL     1       1.071   0.360   1.065  0.00  0.00    +0.028 A 
ATOM      9  C   UNL     1       0.875   1.722   0.771  0.00  0.00    +0.072 A 
ATOM     10  N   UNL     1      -0.345   2.207   0.538  0.00  0.00    -0.247 NA
ATOM     11  C   UNL     1      -0.561   3.481   0.266  0.00  0.00    +0.068 A 
ATOM     12  C   UNL     1      -1.944   3.946   0.015  0.00  0.00    -0.038 C 
ATOM     13  C   UNL     1      -2.957   3.077  -0.159  0.00  0.00    +0.015 C 
ATOM     14  C   UNL     1      -2.169   5.443  -0.036  0.00  0.00    -0.040 C 
ATOM     15  N   UNL     1      -1.059   6.019  -0.833  0.00  0.00    +0.385 N 
ATOM     16  H   UNL     1      -0.997   5.518  -1.727  0.00  0.00    -0.081 HD
ENDROOT
BRANCH  13  17
ATOM     17  C   UNL     1      -4.340   3.569  -0.254  0.00  0.00    +0.020 A 
ATOM     18  C   UNL     1      -4.762   4.639   0.541  0.00  0.00    +0.050 A 
ATOM     19  C   UNL     1      -6.061   5.095   0.446  0.00  0.00    +0.125 A 
ATOM     20  C   UNL     1      -6.949   4.494  -0.433  0.00  0.00    +0.048 A 
ATOM     21  C   UNL     1      -6.543   3.434  -1.225  0.00  0.00    +0.023 A 
ATOM     22  C   UNL     1      -5.242   2.971  -1.148  0.00  0.00    +0.136 A 
ATOM     23  O   UNL     1      -4.830   1.932  -1.921  0.00  0.00    -0.465 OA
ATOM     24  C   UNL     1      -5.849   1.132  -2.527  0.00  0.00    +0.395 C 
ATOM     25  O   UNL     1      -6.816   2.001  -3.127  0.00  0.00    -0.339 OA
ATOM     26  C   UNL     1      -7.527   2.793  -2.171  0.00  0.00    +0.202 C 
ATOM     27  F   UNL     1      -6.469   6.129   1.213  0.00  0.00    -0.205 F 
ENDBRANCH  13  17
BRANCH   3  28
ATOM     28  C   UNL     1       2.922   4.947   0.352  0.00  0.00    +0.387 C 
ATOM     29  O   UNL     1       3.497   5.134  -0.701  0.00  0.00    -0.241 OA
ATOM     30  O   UNL     1       3.318   5.602   1.461  0.00  0.00    -0.241 OA
ENDBRANCH   3  28
BRANCH  15  32
ATOM     31  C   UNL     1      -1.607   8.197   0.203  0.00  0.00    -0.017 C 
ATOM     32  C   UNL     1      -1.320   7.449  -1.101  0.00  0.00    -0.081 C 
ENDBRANCH  15  32
TORSDOF 3
