REMARK  Name = ZINC66402979
REMARK  6 active torsions:
REMARK  status: ('A' for Active; 'I' for Inactive)
REMARK    1  A    between atoms: C_3  and  C_6
REMARK    2  A    between atoms: C_6  and  C_8
REMARK    3  A    between atoms: C_6  and  N_25
REMARK    4  A    between atoms: C_8  and  N_9
REMARK    5  A    between atoms: N_12  and  C_13
REMARK    6  A    between atoms: C_15  and  C_21
REMARK                            x       y       z     vdW  Elec       q    Type
REMARK                         _______ _______ _______ _____ _____    ______ ____
ROOT
ATOM      1  N   UNL     1       3.958   1.611   2.304  0.00  0.00    -0.300 N 
ATOM      2  C   UNL     1       4.353   1.720   3.588  0.00  0.00    +0.304 C 
ATOM      3  O   UNL     1       5.046   0.854   4.086  0.00  0.00    -0.253 OA
ATOM      4  N   UNL     1       3.980   2.789   4.320  0.00  0.00    -0.265 N 
ATOM      5  H   UNL     1       3.405   2.303   1.907  0.00  0.00    +0.150 HD
ATOM      6  H   UNL     1       3.488   3.514   3.903  0.00  0.00    +0.157 HD
ENDROOT
BRANCH   4   7
ATOM      7  C   UNL     1       4.304   2.853   5.682  0.00  0.00    +0.100 A 
ATOM      8  C   UNL     1       5.007   3.917   6.178  0.00  0.00    +0.042 A 
ATOM      9  C   UNL     1       5.317   3.956   7.545  0.00  0.00    +0.073 A 
ATOM     10  C   UNL     1       4.922   2.950   8.358  0.00  0.00    +0.098 A 
ATOM     11  N   UNL     1       4.223   1.891   7.867  0.00  0.00    -0.327 N 
ATOM     12  H   UNL     1       3.948   1.180   8.466  0.00  0.00    +0.168 HD
ATOM     13  C   UNL     1       3.903   1.823   6.561  0.00  0.00    +0.270 A 
ATOM     14  O   UNL     1       3.270   0.870   6.136  0.00  0.00    -0.266 OA
BRANCH   9  15
ATOM     15  C   UNL     1       6.091   5.119   8.108  0.00  0.00    +0.419 C 
ATOM     16  F   UNL     1       6.276   4.934   9.482  0.00  0.00    -0.166 F 
ATOM     17  F   UNL     1       7.337   5.200   7.476  0.00  0.00    -0.166 F 
ATOM     18  F   UNL     1       5.379   6.303   7.889  0.00  0.00    -0.166 F 
ENDBRANCH   9  15
ENDBRANCH   4   7
BRANCH   1  19
ATOM     19  C   UNL     1       4.363   0.450   1.509  0.00  0.00    +0.098 C 
BRANCH  19  20
ATOM     20  C   UNL     1       3.890   0.630   0.065  0.00  0.00    +0.016 C 
BRANCH  20  21
ATOM     21  N   UNL     1       4.358  -0.500  -0.749  0.00  0.00    +0.387 N 
ATOM     22  C   UNL     1       4.065  -0.254  -2.184  0.00  0.00    -0.078 C 
ATOM     23  C   UNL     1       5.069  -1.181  -2.915  0.00  0.00    -0.020 C 
ATOM     24  C   UNL     1       6.335  -1.082  -2.033  0.00  0.00    -0.020 C 
ATOM     25  C   UNL     1       5.829  -0.622  -0.653  0.00  0.00    -0.078 C 
ATOM     26  H   UNL     1       3.918  -1.355  -0.444  0.00  0.00    -0.081 HD
ENDBRANCH  20  21
BRANCH  20  29
ATOM     27  C   UNL     1       0.284   1.386  -0.052  0.00  0.00    +0.041 A 
ATOM     28  C   UNL     1       1.637   1.798  -0.051  0.00  0.00    +0.043 A 
ATOM     29  C   UNL     1       2.384   0.682   0.033  0.00  0.00    +0.093 A 
ATOM     30  O   UNL     1       1.560  -0.378   0.081  0.00  0.00    -0.469 OA
ATOM     31  C   UNL     1       0.286   0.043   0.031  0.00  0.00    +0.195 A 
ENDBRANCH  20  29
ENDBRANCH  19  20
ENDBRANCH   1  19
TORSDOF 6
