REMARK  Name = ZINC23447656
REMARK  7 active torsions:
REMARK  status: ('A' for Active; 'I' for Inactive)
REMARK    1  A    between atoms: C_1  and  C_2
REMARK    2  A    between atoms: C_2  and  O_3
REMARK    3  A    between atoms: O_3  and  C_4
REMARK    4  A    between atoms: C_4  and  C_6
REMARK    5  A    between atoms: C_10  and  N_11
REMARK    6  A    between atoms: C_12  and  C_14
REMARK    7  A    between atoms: C_14  and  N_15
REMARK                            x       y       z     vdW  Elec       q    Type
REMARK                         _______ _______ _______ _____ _____    ______ ____
ROOT
ATOM      1  C   UNL     1       1.493   3.308   0.005  0.00  0.00    +0.214 C 
ENDROOT
BRANCH   1   2
ATOM      2  N   UNL     1       1.214   1.870   0.001  0.00  0.00    -0.215 N 
ATOM      3  C   UNL     1       2.165   0.913  -0.013  0.00  0.00    +0.251 C 
ATOM      4  O   UNL     1       3.366   1.073  -0.024  0.00  0.00    -0.272 OA
ATOM      5  C   UNL     1       1.417  -0.402  -0.013  0.00  0.00    +0.138 C 
ATOM      6  C   UNL     1       1.734  -1.190  -1.278  0.00  0.00    +0.040 C 
ATOM      7  C   UNL     1       1.113  -2.587  -1.149  0.00  0.00    +0.008 C 
ATOM      8  C   UNL     1       1.874  -3.355  -0.070  0.00  0.00    +0.035 C 
ATOM      9  C   UNL     1       1.955  -2.550   1.200  0.00  0.00    -0.042 A 
ATOM     10  C   UNL     1       1.750  -1.187   1.224  0.00  0.00    -0.012 A 
ATOM     11  C   UNL     1       1.850  -0.499   2.426  0.00  0.00    +0.006 A 
ATOM     12  C   UNL     1       2.149  -1.169   3.595  0.00  0.00    +0.000 A 
ATOM     13  C   UNL     1       2.351  -2.536   3.570  0.00  0.00    +0.000 A 
ATOM     14  C   UNL     1       2.254  -3.222   2.377  0.00  0.00    +0.004 A 
ATOM     15  N   UNL     1       0.002  -0.004   0.002  0.00  0.00    -0.281 N 
ATOM     16  C   UNL     1      -0.016   1.342   0.009  0.00  0.00    +0.310 C 
ATOM     17  O   UNL     1      -1.035   2.004   0.018  0.00  0.00    -0.252 OA
ATOM     18  H   UNL     1      -0.785  -0.772   0.005  0.00  0.00    +0.152 HD
ENDBRANCH   1   2
BRANCH   1  20
ATOM     19  N   UNL     1       1.858   5.093   1.678  0.00  0.00    -0.278 N 
ATOM     20  C   UNL     1       1.603   3.794   1.427  0.00  0.00    +0.236 C 
ATOM     21  O   UNL     1       1.462   3.015   2.347  0.00  0.00    -0.274 OA
ATOM     22  H   UNL     1       1.986   5.799   0.844  0.00  0.00    +0.155 HD
BRANCH  19  27
ATOM     23  C   UNL     1       2.213   6.824   3.440  0.00  0.00    +0.091 A 
ATOM     24  C   UNL     1       2.269   7.031   4.887  0.00  0.00    -0.021 A 
ATOM     25  C   UNL     1       2.061   5.930   5.630  0.00  0.00    -0.004 A 
ATOM     26  S   UNL     1       1.791   4.631   4.449  0.00  0.00    -0.077 S 
ATOM     27  C   UNL     1       1.959   5.540   2.986  0.00  0.00    +0.086 A 
ATOM     28  C   UNL     1       2.129   6.223   7.105  0.00  0.00    +0.043 C 
ATOM     29  C   UNL     1       1.986   7.758   7.204  0.00  0.00    +0.010 C 
ATOM     30  C   UNL     1       2.514   8.212   5.828  0.00  0.00    +0.037 C 
BRANCH  23  31
ATOM     31  C   UNL     1       2.418   7.933   2.506  0.00  0.00    +0.342 C 
ATOM     32  O   UNL     1       1.469   8.594   2.129  0.00  0.00    -0.245 OA
BRANCH  31  33
ATOM     33  O   UNL     1       3.659   8.221   2.063  0.00  0.00    -0.461 OA
BRANCH  33  35
ATOM     34  C   UNL     1       5.258   9.508   0.751  0.00  0.00    +0.048 C 
ATOM     35  C   UNL     1       3.788   9.334   1.139  0.00  0.00    +0.229 C 
ENDBRANCH  33  35
ENDBRANCH  31  33
ENDBRANCH  23  31
ENDBRANCH  19  27
ENDBRANCH   1  20
TORSDOF 6
