REMARK  Name = ZINC64715569
REMARK  4 active torsions:
REMARK  status: ('A' for Active; 'I' for Inactive)
REMARK    1  A    between atoms: C_7  and  C_10
REMARK    2  A    between atoms: C_10  and  C_11
REMARK    3  A    between atoms: N_13  and  C_14
REMARK    4  A    between atoms: C_14  and  C_15
REMARK                            x       y       z     vdW  Elec       q    Type
REMARK                         _______ _______ _______ _____ _____    ______ ____
ROOT
ATOM      1  C   UNL     1       0.460  -3.646  -1.440  0.00  0.00    +0.217 C 
ATOM      2  O   UNL     1       1.006  -3.075  -2.360  0.00  0.00    -0.275 OA
ATOM      3  N   UNL     1      -0.353  -4.693  -1.684  0.00  0.00    -0.311 N 
ATOM      4  H   UNL     1      -0.790  -5.150  -0.948  0.00  0.00    +0.149 HD
ENDROOT
BRANCH   1   5
ATOM      5  C   UNL     1       0.691  -3.186  -0.024  0.00  0.00    +0.129 C 
BRANCH   5  12
ATOM      6  C   UNL     1      -0.016   1.348   0.009  0.00  0.00    +0.001 A 
ATOM      7  C   UNL     1       1.166   2.101   0.002  0.00  0.00    +0.002 A 
ATOM      8  C   UNL     1       2.391   1.535  -0.013  0.00  0.00    +0.026 A 
ATOM      9  C   UNL     1       2.529   0.120  -0.022  0.00  0.00    +0.043 A 
ATOM     10  N   UNL     1       3.587  -0.654  -0.037  0.00  0.00    -0.380 N 
ATOM     11  C   UNL     1       3.143  -2.053  -0.041  0.00  0.00    +0.145 C 
ATOM     12  C   UNL     1       1.631  -2.008  -0.025  0.00  0.00    -0.033 C 
ATOM     13  C   UNL     1       1.295  -0.698  -0.014  0.00  0.00    -0.001 A 
ATOM     14  C   UNL     1       0.002  -0.004   0.002  0.00  0.00    +0.010 A 
ATOM     15  H   UNL     1       4.509  -0.353  -0.045  0.00  0.00    +0.160 HD
ENDBRANCH   5  12
ENDBRANCH   1   5
BRANCH   3  16
ATOM     16  C   UNL     1      -0.577  -5.141  -3.061  0.00  0.00    +0.139 C 
BRANCH  16  17
ATOM     17  C   UNL     1      -1.518  -6.318  -3.059  0.00  0.00    -0.025 A 
ATOM     18  C   UNL     1      -1.014  -7.603  -2.962  0.00  0.00    +0.054 A 
ATOM     19  C   UNL     1      -1.882  -8.683  -2.960  0.00  0.00    +0.164 A 
ATOM     20  C   UNL     1      -3.250  -8.475  -3.056  0.00  0.00    +0.180 A 
ATOM     21  C   UNL     1      -3.752  -7.187  -3.153  0.00  0.00    +0.086 A 
ATOM     22  C   UNL     1      -2.881  -6.110  -3.149  0.00  0.00    +0.029 A 
ATOM     23 CL   UNL     1      -5.464  -6.925  -3.273  0.00  0.00    -0.080 Cl
ATOM     24  O   UNL     1      -4.097  -9.546  -3.053  0.00  0.00    -0.487 OA
ATOM     25  C   UNL     1      -4.039 -10.392  -4.203  0.00  0.00    +0.232 C 
ATOM     26  C   UNL     1      -2.922 -11.415  -4.064  0.00  0.00    +0.082 C 
ATOM     27  C   UNL     1      -1.546 -10.769  -4.029  0.00  0.00    +0.232 C 
ATOM     28  O   UNL     1      -1.398  -9.955  -2.864  0.00  0.00    -0.488 OA
ENDBRANCH  16  17
ENDBRANCH   3  16
TORSDOF 4
