REMARK  Name = ZINC22918551
REMARK  9 active torsions:
REMARK  status: ('A' for Active; 'I' for Inactive)
REMARK    1  A    between atoms: C_1  and  C_2
REMARK    2  A    between atoms: C_2  and  C_3
REMARK    3  A    between atoms: C_2  and  C_4
REMARK    4  A    between atoms: C_4  and  C_5
REMARK    5  A    between atoms: C_5  and  C_29
REMARK    6  A    between atoms: N_8  and  C_12
REMARK    7  A    between atoms: C_12  and  N_13
REMARK    8  A    between atoms: N_16  and  C_19
REMARK    9  A    between atoms: C_19  and  C_20
REMARK                            x       y       z     vdW  Elec       q    Type
REMARK                         _______ _______ _______ _____ _____    ______ ____
ROOT
ATOM      1  C   UNL     1      -0.532   7.039   5.671  0.00  0.00    +0.138 C 
ATOM      2  C   UNL     1      -1.279   6.011   4.845  0.00  0.00    +0.252 C 
ATOM      3  O   UNL     1      -2.148   6.220   4.026  0.00  0.00    -0.272 OA
ATOM      4  N   UNL     1      -0.777   4.815   5.212  0.00  0.00    -0.210 N 
ATOM      5  C   UNL     1       0.170   4.943   6.148  0.00  0.00    +0.311 C 
ATOM      6  O   UNL     1       0.766   4.005   6.639  0.00  0.00    -0.252 OA
ATOM      7  N   UNL     1       0.391   6.227   6.483  0.00  0.00    -0.281 N 
ATOM      8  H   UNL     1       1.076   6.716   7.191  0.00  0.00    +0.152 HD
ENDROOT
BRANCH   1   9
ATOM      9  C   UNL     1       0.235   7.980   4.778  0.00  0.00    -0.015 A 
ATOM     10  C   UNL     1      -0.359   9.144   4.328  0.00  0.00    +0.006 A 
ATOM     11  C   UNL     1       0.346  10.009   3.513  0.00  0.00    +0.000 A 
ATOM     12  C   UNL     1       1.643   9.706   3.140  0.00  0.00    +0.000 A 
ATOM     13  C   UNL     1       2.235   8.539   3.586  0.00  0.00    +0.000 A 
ATOM     14  C   UNL     1       1.531   7.676   4.405  0.00  0.00    +0.006 A 
ENDBRANCH   1   9
BRANCH   1  15
ATOM     15  C   UNL     1      -1.499   7.817   6.565  0.00  0.00    +0.043 C 
BRANCH  15  17
ATOM     16  C   UNL     1      -2.904   7.685   8.628  0.00  0.00    +0.007 C 
ATOM     17  C   UNL     1      -2.096   6.874   7.613  0.00  0.00    -0.014 C 
ATOM     18  C   UNL     1      -3.012   5.861   6.924  0.00  0.00    +0.007 C 
ENDBRANCH  15  17
ENDBRANCH   1  15
BRANCH   4  19
ATOM     19  C   UNL     1      -1.218   3.532   4.658  0.00  0.00    +0.205 C 
BRANCH  19  20
ATOM     20  N   UNL     1      -0.406   3.202   3.479  0.00  0.00    -0.290 NA
ATOM     21  C   UNL     1      -0.375   1.751   3.250  0.00  0.00    +0.067 C 
ATOM     22  C   UNL     1       0.543   1.443   2.065  0.00  0.00    -0.063 C 
ATOM     23  N   UNL     1       0.055   2.151   0.874  0.00  0.00    +0.384 N 
ATOM     24  C   UNL     1       0.025   3.603   1.103  0.00  0.00    -0.063 C 
ATOM     25  C   UNL     1      -0.894   3.910   2.288  0.00  0.00    +0.067 C 
ATOM     26  H   UNL     1      -0.974   1.817   0.678  0.00  0.00    -0.081 HD
BRANCH  23  27
ATOM     27  C   UNL     1       0.868   1.821  -0.304  0.00  0.00    -0.043 C 
BRANCH  27  28
ATOM     28  C   UNL     1       0.200   2.362  -1.543  0.00  0.00    -0.060 A 
ATOM     29  C   UNL     1      -0.701   1.579  -2.239  0.00  0.00    +0.005 A 
ATOM     30  C   UNL     1      -1.321   2.073  -3.372  0.00  0.00    +0.050 A 
ATOM     31  C   UNL     1      -1.029   3.351  -3.819  0.00  0.00    +0.166 A 
ATOM     32  C   UNL     1      -0.117   4.138  -3.122  0.00  0.00    +0.166 A 
ATOM     33  C   UNL     1       0.495   3.639  -1.983  0.00  0.00    +0.051 A 
ATOM     34  O   UNL     1      -0.003   5.342  -3.756  0.00  0.00    -0.453 OA
ATOM     35  C   UNL     1      -0.544   5.133  -5.074  0.00  0.00    +0.466 C 
ATOM     36  O   UNL     1      -1.488   4.061  -4.891  0.00  0.00    -0.453 OA
ENDBRANCH  27  28
ENDBRANCH  23  27
ENDBRANCH  19  20
ENDBRANCH   4  19
TORSDOF 7
