REMARK  Name = ZINC33272753
REMARK  9 active torsions:
REMARK  status: ('A' for Active; 'I' for Inactive)
REMARK    1  A    between atoms: C_1  and  C_2
REMARK    2  A    between atoms: C_2  and  N_3
REMARK    3  A    between atoms: C_7  and  C_9
REMARK    4  A    between atoms: C_9  and  N_10
REMARK    5  A    between atoms: C_11  and  C_13
REMARK    6  A    between atoms: C_16  and  C_19
REMARK    7  A    between atoms: C_19  and  N_20
REMARK    8  A    between atoms: N_27  and  C_32
REMARK    9  A    between atoms: C_32  and  C_33
REMARK                            x       y       z     vdW  Elec       q    Type
REMARK                         _______ _______ _______ _____ _____    ______ ____
ROOT
ATOM      1  C   UNL     1      -8.232   2.207  -4.071  0.00  0.00    +0.037 A 
ATOM      2  C   UNL     1      -7.138   2.736  -4.759  0.00  0.00    +0.013 A 
ATOM      3  C   UNL     1      -5.910   2.112  -4.681  0.00  0.00    +0.006 A 
ATOM      4  C   UNL     1      -5.761   0.965  -3.923  0.00  0.00    -0.028 A 
ATOM      5  C   UNL     1      -6.842   0.432  -3.243  0.00  0.00    +0.006 A 
ATOM      6  C   UNL     1      -8.074   1.049  -3.308  0.00  0.00    +0.013 A 
ENDROOT
BRANCH   1   8
ATOM      7  N   UNL     1     -10.604   2.357  -3.485  0.00  0.00    -0.313 N 
ATOM      8  C   UNL     1      -9.550   2.871  -4.150  0.00  0.00    +0.244 C 
ATOM      9  O   UNL     1      -9.684   3.880  -4.815  0.00  0.00    -0.270 OA
ATOM     10  H   UNL     1     -10.483   1.444  -2.883  0.00  0.00    +0.149 HD
BRANCH   7  11
ATOM     11  C   UNL     1     -11.911   3.015  -3.563  0.00  0.00    +0.089 C 
BRANCH  11  16
ATOM     12  N   UNL     1     -14.252   2.864  -2.825  0.00  0.00    +0.382 N 
ATOM     13  C   UNL     1     -15.236   2.027  -3.544  0.00  0.00    -0.078 C 
ATOM     14  C   UNL     1     -14.680   0.585  -3.438  0.00  0.00    -0.020 C 
ATOM     15  C   UNL     1     -13.150   0.826  -3.561  0.00  0.00    -0.016 C 
ATOM     16  C   UNL     1     -12.952   2.169  -2.828  0.00  0.00    -0.051 C 
ATOM     17  H   UNL     1     -14.584   3.023  -1.788  0.00  0.00    -0.081 HD
BRANCH  12  19
ATOM     18  C   UNL     1     -15.524   4.840  -3.514  0.00  0.00    -0.017 C 
ATOM     19  C   UNL     1     -14.140   4.192  -3.443  0.00  0.00    -0.082 C 
ENDBRANCH  12  19
ENDBRANCH  11  16
ENDBRANCH   7  11
ENDBRANCH   1   8
BRANCH   4  20
ATOM     20  C   UNL     1      -4.417   0.288  -3.842  0.00  0.00    +0.160 C 
BRANCH  20  21
ATOM     21  N   UNL     1      -3.660   0.838  -2.715  0.00  0.00    -0.298 N 
ATOM     22  C   UNL     1      -3.769   0.256  -1.455  0.00  0.00    +0.069 A 
ATOM     23  C   UNL     1      -4.596  -0.847  -1.275  0.00  0.00    +0.028 A 
ATOM     24  C   UNL     1      -4.710  -1.429  -0.029  0.00  0.00    +0.002 A 
ATOM     25  C   UNL     1      -4.000  -0.920   1.046  0.00  0.00    +0.002 A 
ATOM     26  C   UNL     1      -3.176   0.174   0.879  0.00  0.00    +0.028 A 
ATOM     27  C   UNL     1      -3.054   0.769  -0.371  0.00  0.00    +0.069 A 
ATOM     28  N   UNL     1      -2.220   1.872  -0.532  0.00  0.00    -0.299 N 
ATOM     29  C   UNL     1      -2.100   2.459  -1.740  0.00  0.00    +0.317 A 
ATOM     30  O   UNL     1      -1.378   3.425  -1.883  0.00  0.00    -0.262 OA
ATOM     31  C   UNL     1      -2.859   1.907  -2.899  0.00  0.00    +0.317 A 
ATOM     32  O   UNL     1      -2.761   2.418  -3.996  0.00  0.00    -0.262 OA
BRANCH  28  33
ATOM     33  C   UNL     1      -1.477   2.400   0.615  0.00  0.00    +0.152 C 
BRANCH  33  34
ATOM     34  C   UNL     1      -0.137   1.716   0.703  0.00  0.00    -0.013 C 
ATOM     35  C   UNL     1       0.962   2.429   0.720  0.00  0.00    +0.005 C 
ENDBRANCH  33  34
ENDBRANCH  28  33
ENDBRANCH  20  21
ENDBRANCH   4  20
TORSDOF 8
