REMARK  Name = ZINC39690232
REMARK  10 active torsions:
REMARK  status: ('A' for Active; 'I' for Inactive)
REMARK    1  A    between atoms: C_1  and  C_2
REMARK    2  A    between atoms: C_4  and  C_32
REMARK    3  A    between atoms: C_8  and  C_12
REMARK    4  A    between atoms: C_12  and  S_13
REMARK    5  A    between atoms: S_13  and  C_14
REMARK    6  A    between atoms: N_24  and  C_25
REMARK    7  A    between atoms: C_25  and  C_26
REMARK    8  A    between atoms: C_26  and  C_27
REMARK    9  A    between atoms: C_27  and  O_28
REMARK   10  A    between atoms: O_28  and  C_29
REMARK                            x       y       z     vdW  Elec       q    Type
REMARK                         _______ _______ _______ _____ _____    ______ ____
ROOT
ATOM      1  C   UNL     1       7.082  -4.802   1.403  0.00  0.00    +0.173 A 
ATOM      2  N   UNL     1       6.911  -4.679   2.696  0.00  0.00    -0.223 NA
ATOM      3  C   UNL     1       7.762  -5.250   3.580  0.00  0.00    +0.080 A 
ATOM      4  C   UNL     1       7.580  -5.121   4.959  0.00  0.00    +0.048 A 
ATOM      5  C   UNL     1       8.473  -5.720   5.821  0.00  0.00    +0.043 A 
ATOM      6  C   UNL     1       9.551  -6.451   5.334  0.00  0.00    +0.021 A 
ATOM      7  C   UNL     1       9.749  -6.592   3.989  0.00  0.00    +0.017 A 
ATOM      8  C   UNL     1       8.861  -5.996   3.095  0.00  0.00    +0.065 A 
ATOM      9  C   UNL     1       9.028  -6.117   1.640  0.00  0.00    +0.262 A 
ATOM     10  O   UNL     1       9.954  -6.746   1.162  0.00  0.00    -0.267 OA
ATOM     11  N   UNL     1       8.113  -5.508   0.852  0.00  0.00    -0.287 N 
ATOM     12 CL   UNL     1       8.249  -5.560   7.535  0.00  0.00    -0.083 Cl
ENDROOT
BRANCH   1  13
ATOM     13  S   UNL     1       5.925  -4.026   0.324  0.00  0.00    -0.080 S 
BRANCH  13  14
ATOM     14  C   UNL     1       4.752  -3.218   1.448  0.00  0.00    +0.151 C 
BRANCH  14  21
ATOM     15  C   UNL     1      -0.019   1.526   0.010  0.00  0.00    +0.057 C 
ATOM     16  C   UNL     1       0.002  -0.004   0.002  0.00  0.00    +0.210 C 
ATOM     17  C   UNL     1       0.722  -0.505  -1.230  0.00  0.00    +0.098 C 
ATOM     18  C   UNL     1       1.782  -1.221  -0.786  0.00  0.00    +0.114 C 
ATOM     19  C   UNL     1       1.783  -1.207   0.691  0.00  0.00    +0.230 C 
ATOM     20  N   UNL     1       2.751  -1.859   1.310  0.00  0.00    -0.199 NA
ATOM     21  C   UNL     1       3.694  -2.507   0.643  0.00  0.00    +0.136 C 
ATOM     22  N   UNL     1       3.778  -2.576  -0.661  0.00  0.00    -0.160 NA
ATOM     23  C   UNL     1       2.876  -1.971  -1.456  0.00  0.00    +0.275 C 
ATOM     24  O   UNL     1       2.953  -2.035  -2.669  0.00  0.00    -0.268 OA
ATOM     25  O   UNL     1       0.733  -0.490   1.131  0.00  0.00    -0.468 OA
BRANCH  17  26
ATOM     26  C   UNL     1       0.342  -0.261  -2.642  0.00  0.00    +0.387 C 
ATOM     27  O   UNL     1       1.018  -0.729  -3.546  0.00  0.00    -0.241 OA
ATOM     28  O   UNL     1      -0.646   0.408  -2.902  0.00  0.00    -0.241 OA
ENDBRANCH  17  26
ENDBRANCH  14  21
ENDBRANCH  13  14
ENDBRANCH   1  13
BRANCH  11  29
ATOM     29  C   UNL     1       8.232  -5.603  -0.606  0.00  0.00    +0.129 C 
BRANCH  29  30
ATOM     30  C   UNL     1       9.084  -4.443  -1.125  0.00  0.00    +0.050 C 
BRANCH  30  31
ATOM     31  C   UNL     1       9.207  -4.543  -2.646  0.00  0.00    +0.161 C 
BRANCH  31  32
ATOM     32  O   UNL     1      10.003  -3.459  -3.131  0.00  0.00    -0.383 OA
ATOM     33  C   UNL     1      10.182  -3.458  -4.549  0.00  0.00    +0.193 C 
ENDBRANCH  31  32
ENDBRANCH  30  31
ENDBRANCH  29  30
ENDBRANCH  11  29
TORSDOF 8
