REMARK  Name = ZINC64816070
REMARK  9 active torsions:
REMARK  status: ('A' for Active; 'I' for Inactive)
REMARK    1  A    between atoms: C_1  and  C_2
REMARK    2  A    between atoms: C_2  and  C_3
REMARK    3  A    between atoms: C_8  and  N_9
REMARK    4  A    between atoms: C_14  and  C_31
REMARK    5  A    between atoms: C_18  and  C_19
REMARK    6  A    between atoms: C_18  and  C_20
REMARK    7  A    between atoms: N_22  and  C_23
REMARK    8  A    between atoms: C_23  and  C_24
REMARK    9  A    between atoms: C_28  and  C_30
REMARK                            x       y       z     vdW  Elec       q    Type
REMARK                         _______ _______ _______ _____ _____    ______ ____
ROOT
ATOM      1  N   UNL     1       2.591  -0.103  -0.467  0.00  0.00    -0.250 N 
ATOM      2  C   UNL     1       2.904  -1.170   0.308  0.00  0.00    +0.270 C 
ATOM      3  O   UNL     1       2.768  -2.312  -0.087  0.00  0.00    -0.268 OA
ATOM      4  C   UNL     1       3.417  -0.871   1.655  0.00  0.00    +0.125 A 
ATOM      5  C   UNL     1       3.981  -1.673   2.603  0.00  0.00    +0.065 A 
ATOM      6  C   UNL     1       4.287  -0.809   3.678  0.00  0.00    +0.128 A 
ATOM      7  N   UNL     1       3.902   0.408   3.334  0.00  0.00    -0.167 NA
ATOM      8  N   UNL     1       3.382   0.407   2.169  0.00  0.00    -0.256 N 
ATOM      9  C   UNL     1       2.794   1.516   1.407  0.00  0.00    +0.179 C 
ATOM     10  C   UNL     1       2.976   1.252  -0.090  0.00  0.00    +0.135 C 
ATOM     11  C   UNL     1       2.118   2.246  -0.875  0.00  0.00    +0.044 C 
ENDROOT
BRANCH   1  17
ATOM     12  C   UNL     1       2.576  -0.576  -2.835  0.00  0.00    -0.026 A 
ATOM     13  C   UNL     1       1.879  -0.783  -4.009  0.00  0.00    +0.005 A 
ATOM     14  C   UNL     1       0.498  -0.718  -4.015  0.00  0.00    +0.000 A 
ATOM     15  C   UNL     1      -0.190  -0.445  -2.846  0.00  0.00    +0.002 A 
ATOM     16  C   UNL     1       0.501  -0.236  -1.669  0.00  0.00    +0.024 A 
ATOM     17  C   UNL     1       1.888  -0.308  -1.658  0.00  0.00    +0.041 A 
BRANCH  12  19
ATOM     18  C   UNL     1       4.523  -2.082  -2.534  0.00  0.00    +0.009 C 
ATOM     19  C   UNL     1       4.082  -0.647  -2.829  0.00  0.00    +0.033 C 
ENDBRANCH  12  19
ENDBRANCH   1  17
BRANCH   6  20
ATOM     20  C   UNL     1       4.921  -1.196   4.957  0.00  0.00    +0.155 A 
ATOM     21  C   UNL     1       5.208  -0.360   5.989  0.00  0.00    +0.051 A 
ATOM     22  C   UNL     1       5.803  -1.148   6.996  0.00  0.00    +0.042 A 
ATOM     23  C   UNL     1       5.849  -2.412   6.532  0.00  0.00    +0.196 A 
ATOM     24  O   UNL     1       5.310  -2.438   5.302  0.00  0.00    -0.461 OA
ENDBRANCH   6  20
BRANCH  10  25
ATOM     25  C   UNL     1       4.422   1.467  -0.455  0.00  0.00    +0.239 C 
ATOM     26  O   UNL     1       4.778   2.529  -0.921  0.00  0.00    -0.273 OA
ATOM     27  N   UNL     1       5.319   0.480  -0.262  0.00  0.00    -0.309 N 
ATOM     28  H   UNL     1       5.024  -0.392   0.042  0.00  0.00    +0.149 HD
BRANCH  27  29
ATOM     29  C   UNL     1       6.742   0.725  -0.513  0.00  0.00    +0.139 C 
BRANCH  29  30
ATOM     30  C   UNL     1       7.511  -0.558  -0.333  0.00  0.00    -0.030 A 
ATOM     31  C   UNL     1       7.919  -0.949   0.929  0.00  0.00    +0.005 A 
ATOM     32  C   UNL     1       8.625  -2.126   1.093  0.00  0.00    +0.001 A 
ATOM     33  C   UNL     1       8.923  -2.913  -0.004  0.00  0.00    +0.003 A 
ATOM     34  C   UNL     1       8.514  -2.523  -1.265  0.00  0.00    -0.050 A 
ATOM     35  C   UNL     1       7.805  -1.348  -1.429  0.00  0.00    +0.008 A 
ATOM     36  C   UNL     1       8.839  -3.380  -2.461  0.00  0.00    +0.044 C 
ENDBRANCH  29  30
ENDBRANCH  27  29
ENDBRANCH  10  25
TORSDOF 6
