REMARK  Name = ZINC39875318
REMARK  7 active torsions:
REMARK  status: ('A' for Active; 'I' for Inactive)
REMARK    1  A    between atoms: C_1  and  O_2
REMARK    2  A    between atoms: O_2  and  C_3
REMARK    3  A    between atoms: C_6  and  N_9
REMARK    4  A    between atoms: C_10  and  C_26
REMARK    5  A    between atoms: C_29  and  O_34
REMARK    6  A    between atoms: C_30  and  O_32
REMARK    7  A    between atoms: O_32  and  C_33
REMARK                            x       y       z     vdW  Elec       q    Type
REMARK                         _______ _______ _______ _____ _____    ______ ____
ROOT
ATOM      1  N   UNL     1       2.458  -2.457  -4.300  0.00  0.00    -0.253 N 
ATOM      2  C   UNL     1       2.581  -3.908  -4.514  0.00  0.00    +0.150 C 
ATOM      3  C   UNL     1       3.318  -4.069  -5.803  0.00  0.00    +0.072 A 
ATOM      4  C   UNL     1       3.745  -5.269  -6.529  0.00  0.00    +0.199 A 
ATOM      5  O   UNL     1       3.383  -6.393  -6.230  0.00  0.00    -0.287 OA
ATOM      6  C   UNL     1       4.661  -4.984  -7.662  0.00  0.00    +0.065 A 
ATOM      7  C   UNL     1       5.310  -6.026  -8.324  0.00  0.00    +0.030 A 
ATOM      8  C   UNL     1       6.160  -5.743  -9.370  0.00  0.00    +0.019 A 
ATOM      9  C   UNL     1       6.368  -4.426  -9.762  0.00  0.00    +0.019 A 
ATOM     10  C   UNL     1       5.730  -3.391  -9.117  0.00  0.00    +0.048 A 
ATOM     11  C   UNL     1       4.864  -3.651  -8.056  0.00  0.00    +0.140 A 
ATOM     12  O   UNL     1       4.243  -2.615  -7.446  0.00  0.00    -0.450 OA
ATOM     13  C   UNL     1       3.588  -2.820  -6.286  0.00  0.00    +0.199 A 
ATOM     14  C   UNL     1       3.043  -1.831  -5.341  0.00  0.00    +0.287 C 
ATOM     15  O   UNL     1       3.114  -0.625  -5.478  0.00  0.00    -0.266 OA
ATOM     16 BR   UNL     1       7.046  -7.148 -10.275  0.00  0.00    -0.050 Br
ENDROOT
BRANCH   1  20
ATOM     17  C   UNL     1       0.606  -0.607  -1.056  0.00  0.00    +0.120 A 
ATOM     18  C   UNL     1       1.173   0.162  -2.062  0.00  0.00    +0.047 A 
ATOM     19  C   UNL     1       1.786  -0.450  -3.137  0.00  0.00    +0.027 A 
ATOM     20  C   UNL     1       1.837  -1.836  -3.211  0.00  0.00    +0.038 A 
ATOM     21  C   UNL     1       1.269  -2.605  -2.203  0.00  0.00    +0.027 A 
ATOM     22  C   UNL     1       0.660  -1.992  -1.127  0.00  0.00    +0.047 A 
BRANCH  17  24
ATOM     23  C   UNL     1      -0.017   1.425   0.010  0.00  0.00    +0.277 C 
ATOM     24  O   UNL     1       0.002  -0.004   0.002  0.00  0.00    -0.495 OA
ENDBRANCH  17  24
ENDBRANCH   1  20
BRANCH   2  25
ATOM     25  C   UNL     1       1.214  -4.537  -4.613  0.00  0.00    -0.018 A 
ATOM     26  C   UNL     1       0.207  -3.891  -5.306  0.00  0.00    +0.009 A 
ATOM     27  C   UNL     1      -1.048  -4.463  -5.400  0.00  0.00    +0.049 A 
ATOM     28  C   UNL     1      -1.298  -5.687  -4.799  0.00  0.00    +0.158 A 
ATOM     29  C   UNL     1      -0.284  -6.337  -4.103  0.00  0.00    +0.162 A 
ATOM     30  C   UNL     1       0.973  -5.760  -4.016  0.00  0.00    +0.055 A 
BRANCH  29  31
ATOM     31  O   UNL     1      -0.524  -7.538  -3.512  0.00  0.00    -0.491 OA
ATOM     32  C   UNL     1       0.564  -8.147  -2.814  0.00  0.00    +0.277 C 
ENDBRANCH  29  31
BRANCH  28  33
ATOM     33  O   UNL     1      -2.532  -6.251  -4.890  0.00  0.00    -0.503 OA
ATOM     34  H   UNL     1      -2.645  -6.828  -5.658  0.00  0.00    +0.292 HD
ENDBRANCH  28  33
ENDBRANCH   2  25
TORSDOF 5
