REMARK  Name = ZINC25443845
REMARK  9 active torsions:
REMARK  status: ('A' for Active; 'I' for Inactive)
REMARK    1  A    between atoms: C_1  and  N_2
REMARK    2  A    between atoms: N_2  and  C_3
REMARK    3  A    between atoms: N_2  and  C_4
REMARK    4  A    between atoms: C_4  and  C_11
REMARK    5  A    between atoms: C_11  and  N_12
REMARK    6  A    between atoms: C_13  and  C_15
REMARK    7  A    between atoms: C_19  and  N_21
REMARK    8  A    between atoms: N_21  and  S_22
REMARK    9  A    between atoms: S_22  and  C_25
REMARK                            x       y       z     vdW  Elec       q    Type
REMARK                         _______ _______ _______ _____ _____    ______ ____
ROOT
ATOM      1  C   UNL     1       3.882   2.605  -3.636  0.00  0.00    +0.038 A 
ATOM      2  C   UNL     1       4.063   3.967  -3.389  0.00  0.00    +0.013 A 
ATOM      3  C   UNL     1       4.098   4.434  -2.091  0.00  0.00    +0.003 A 
ATOM      4  C   UNL     1       3.954   3.558  -1.031  0.00  0.00    +0.024 A 
ATOM      5  C   UNL     1       3.773   2.200  -1.266  0.00  0.00    +0.049 A 
ATOM      6  C   UNL     1       3.743   1.720  -2.567  0.00  0.00    +0.037 A 
ENDROOT
BRANCH   1   8
ATOM      7  N   UNL     1       3.987   2.958  -6.056  0.00  0.00    -0.313 N 
ATOM      8  C   UNL     1       3.846   2.102  -5.026  0.00  0.00    +0.244 C 
ATOM      9  O   UNL     1       3.688   0.915  -5.238  0.00  0.00    -0.270 OA
ATOM     10  H   UNL     1       4.129   4.032  -5.864  0.00  0.00    +0.149 HD
BRANCH   7  11
ATOM     11  C   UNL     1       3.950   2.459  -7.433  0.00  0.00    +0.092 C 
BRANCH  11  12
ATOM     12  C   UNL     1       3.997   3.641  -8.405  0.00  0.00    -0.050 C 
ATOM     13  C   UNL     1       3.103   3.362  -9.583  0.00  0.00    -0.010 C 
ATOM     14  C   UNL     1       2.918   1.851  -9.835  0.00  0.00    -0.001 C 
ATOM     15  C   UNL     1       4.223   1.050  -9.672  0.00  0.00    -0.000 C 
ATOM     16  C   UNL     1       5.409   1.751 -10.280  0.00  0.00    -0.000 C 
ATOM     17  C   UNL     1       6.111   2.571  -9.178  0.00  0.00    -0.001 C 
ATOM     18  C   UNL     1       5.440   3.835  -8.915  0.00  0.00    -0.010 C 
BRANCH  12  20
ATOM     19  C   UNL     1       3.676   6.033  -8.596  0.00  0.00    -0.096 C 
ATOM     20  N   UNL     1       3.547   4.860  -7.721  0.00  0.00    +0.381 N 
ATOM     21  C   UNL     1       2.167   4.714  -7.238  0.00  0.00    -0.096 C 
ATOM     22  H   UNL     1       4.196   5.017  -6.847  0.00  0.00    -0.082 HD
ENDBRANCH  12  20
ENDBRANCH  11  12
ENDBRANCH   7  11
ENDBRANCH   1   8
BRANCH   5  23
ATOM     23  N   UNL     1       3.629   1.318  -0.193  0.00  0.00    -0.216 N 
ATOM     24  H   UNL     1       4.178   0.365  -0.185  0.00  0.00    +0.174 HD
BRANCH  23  25
ATOM     25  S   UNL     1       2.630   1.707   1.070  0.00  0.00    +0.072 S 
ATOM     26  O   UNL     1       2.964   3.033   1.458  0.00  0.00    -0.150 OA
ATOM     27  O   UNL     1       2.676   0.614   1.976  0.00  0.00    -0.150 OA
BRANCH  25  28
ATOM     28  C   UNL     1       0.987   1.767   0.435  0.00  0.00    +0.112 A 
ATOM     29  C   UNL     1       0.205   0.627   0.435  0.00  0.00    +0.032 A 
ATOM     30  C   UNL     1      -1.083   0.669  -0.062  0.00  0.00    +0.051 A 
ATOM     31  C   UNL     1      -1.595   1.857  -0.564  0.00  0.00    +0.162 A 
ATOM     32  C   UNL     1      -0.810   3.003  -0.562  0.00  0.00    +0.164 A 
ATOM     33  C   UNL     1       0.482   2.953  -0.062  0.00  0.00    +0.078 A 
ATOM     34  O   UNL     1      -1.296   4.181  -1.042  0.00  0.00    -0.485 OA
ATOM     35  C   UNL     1      -2.458   4.106  -1.875  0.00  0.00    +0.270 C 
ATOM     36  C   UNL     1      -3.472   3.170  -1.203  0.00  0.00    +0.270 C 
ATOM     37  O   UNL     1      -2.863   1.881  -1.058  0.00  0.00    -0.485 OA
ENDBRANCH  25  28
ENDBRANCH  23  25
ENDBRANCH   5  23
TORSDOF 7
