REMARK  Name = ZINC20689451
REMARK  11 active torsions:
REMARK  status: ('A' for Active; 'I' for Inactive)
REMARK    1  A    between atoms: C_1  and  C_2
REMARK    2  A    between atoms: C_2  and  C_3
REMARK    3  A    between atoms: C_3  and  N_4
REMARK    4  A    between atoms: N_4  and  C_5
REMARK    5  A    between atoms: N_4  and  C_16
REMARK    6  A    between atoms: C_5  and  C_6
REMARK    7  A    between atoms: C_9  and  C_11
REMARK    8  A    between atoms: C_16  and  C_17
REMARK    9  A    between atoms: N_19  and  C_20
REMARK   10  A    between atoms: C_20  and  C_21
REMARK   11  A    between atoms: C_24  and  C_26
REMARK                            x       y       z     vdW  Elec       q    Type
REMARK                         _______ _______ _______ _____ _____    ______ ____
ROOT
ATOM      1  C   UNL     1       5.627   0.973   1.406  0.00  0.00    +0.019 C 
ENDROOT
BRANCH   1   2
ATOM      2  C   UNL     1       6.139   0.980   2.824  0.00  0.00    +0.197 C 
ATOM      3  O   UNL     1       5.357   0.985   3.751  0.00  0.00    -0.278 OA
ATOM      4  N   UNL     1       7.466   0.980   3.061  0.00  0.00    -0.310 N 
ATOM      5  H   UNL     1       8.175   0.976   2.220  0.00  0.00    +0.149 HD
BRANCH   4   6
ATOM      6  C   UNL     1       7.963   0.987   4.439  0.00  0.00    +0.178 C 
BRANCH   6   7
ATOM      7  C   UNL     1       9.470   0.987   4.428  0.00  0.00    +0.123 A 
ATOM      8  C   UNL     1      10.256   2.081   4.417  0.00  0.00    +0.047 A 
ATOM      9  C   UNL     1      11.592   1.630   4.410  0.00  0.00    +0.050 A 
ATOM     10  C   UNL     1      11.546   0.271   4.418  0.00  0.00    +0.135 A 
ATOM     11  O   UNL     1      10.253  -0.105   4.434  0.00  0.00    -0.458 OA
BRANCH  10  12
ATOM     12  C   UNL     1      12.713  -0.636   4.414  0.00  0.00    +0.017 A 
ATOM     13  C   UNL     1      14.007  -0.112   4.397  0.00  0.00    +0.013 A 
ATOM     14  C   UNL     1      15.092  -0.964   4.399  0.00  0.00    +0.021 A 
ATOM     15  C   UNL     1      14.900  -2.335   4.407  0.00  0.00    +0.041 A 
ATOM     16  C   UNL     1      13.619  -2.860   4.420  0.00  0.00    +0.021 A 
ATOM     17  C   UNL     1      12.526  -2.019   4.423  0.00  0.00    +0.013 A 
ATOM     18 CL   UNL     1      16.271  -3.400   4.402  0.00  0.00    -0.084 Cl
ENDBRANCH  10  12
ENDBRANCH   6   7
ENDBRANCH   4   6
ENDBRANCH   1   2
BRANCH   1  19
ATOM     19  N   UNL     1       4.164   0.835   1.415  0.00  0.00    +0.391 N 
ATOM     20  H   UNL     1       3.763   1.536   2.162  0.00  0.00    -0.080 HD
BRANCH  19  21
ATOM     21  C   UNL     1       3.765  -0.523   1.809  0.00  0.00    -0.078 C 
BRANCH  21  23
ATOM     22  C   UNL     1       3.834  -2.936   1.168  0.00  0.00    +0.002 C 
ATOM     23  C   UNL     1       4.258  -1.523   0.762  0.00  0.00    -0.022 C 
ENDBRANCH  21  23
ENDBRANCH  19  21
BRANCH  19  24
ATOM     24  C   UNL     1       3.594   1.193   0.109  0.00  0.00    +0.021 C 
BRANCH  24  25
ATOM     25  C   UNL     1       2.094   1.278   0.222  0.00  0.00    +0.202 A 
ATOM     26  N   UNL     1       1.405   2.342   0.525  0.00  0.00    -0.114 NA
ATOM     27  N   UNL     1       0.151   2.057   0.531  0.00  0.00    -0.107 NA
ATOM     28  C   UNL     1      -0.006   0.786   0.229  0.00  0.00    +0.255 A 
ATOM     29  O   UNL     1       1.224   0.270   0.028  0.00  0.00    -0.422 OA
BRANCH  28  30
ATOM     30  C   UNL     1      -1.282   0.063   0.131  0.00  0.00    +0.076 A 
ATOM     31  C   UNL     1      -2.567   0.532   0.330  0.00  0.00    +0.021 A 
ATOM     32  C   UNL     1      -3.616  -0.344   0.173  0.00  0.00    +0.008 A 
ATOM     33  C   UNL     1      -3.358  -1.636  -0.158  0.00  0.00    +0.046 A 
ATOM     34  S   UNL     1      -1.577  -1.651  -0.271  0.00  0.00    -0.092 S 
ENDBRANCH  28  30
ENDBRANCH  24  25
ENDBRANCH  19  24
ENDBRANCH   1  19
TORSDOF 10
