REMARK  Name = ZINC43093171
REMARK  6 active torsions:
REMARK  status: ('A' for Active; 'I' for Inactive)
REMARK    1  A    between atoms: C_1  and  C_2
REMARK    2  A    between atoms: C_6  and  C_21
REMARK    3  A    between atoms: N_9  and  C_10
REMARK    4  A    between atoms: C_10  and  C_12
REMARK    5  A    between atoms: C_10  and  C_14
REMARK    6  A    between atoms: C_12  and  N_13
REMARK                            x       y       z     vdW  Elec       q    Type
REMARK                         _______ _______ _______ _____ _____    ______ ____
ROOT
ATOM      1  C   UNL     1      -0.412   1.625  -0.903  0.00  0.00    -0.013 C 
ATOM      2  C   UNL     1      -0.397   0.143  -0.522  0.00  0.00    -0.071 C 
ATOM      3  C   UNL     1      -1.835  -0.352  -0.346  0.00  0.00    -0.015 C 
ATOM      4  C   UNL     1      -1.815  -1.835   0.034  0.00  0.00    +0.009 C 
ATOM      5  C   UNL     1      -0.980  -2.015   1.305  0.00  0.00    +0.058 C 
ATOM      6  C   UNL     1       0.426  -1.458   1.069  0.00  0.00    -0.065 C 
ATOM      7  N   UNL     1       0.340  -0.031   0.735  0.00  0.00    +0.385 N 
ATOM      8  H   UNL     1      -0.139   0.459   1.476  0.00  0.00    -0.081 HD
ENDROOT
BRANCH   5   9
ATOM      9  C   UNL     1      -1.631  -1.273   2.444  0.00  0.00    +0.212 C 
ATOM     10  O   UNL     1      -0.988  -0.476   3.095  0.00  0.00    -0.276 OA
ATOM     11  N   UNL     1      -2.927  -1.495   2.739  0.00  0.00    -0.329 N 
ATOM     12  H   UNL     1      -3.441  -2.132   2.219  0.00  0.00    +0.145 HD
ATOM     13  H   UNL     1      -3.346  -1.017   3.472  0.00  0.00    +0.145 HD
ENDBRANCH   5   9
BRANCH   7  14
ATOM     14  C   UNL     1       1.695   0.516   0.586  0.00  0.00    -0.054 C 
BRANCH  14  15
ATOM     15  C   UNL     1       2.182   0.277  -0.820  0.00  0.00    -0.049 A 
ATOM     16  C   UNL     1       1.774  -0.849  -1.510  0.00  0.00    +0.003 A 
ATOM     17  C   UNL     1       2.220  -1.069  -2.800  0.00  0.00    +0.000 A 
ATOM     18  C   UNL     1       3.075  -0.162  -3.400  0.00  0.00    +0.001 A 
ATOM     19  C   UNL     1       3.483   0.964  -2.711  0.00  0.00    +0.015 A 
ATOM     20  C   UNL     1       3.032   1.187  -1.422  0.00  0.00    +0.019 A 
ATOM     21 BR   UNL     1       3.585   2.731  -0.480  0.00  0.00    -0.050 Br
ENDBRANCH  14  15
BRANCH  14  22
ATOM     22  C   UNL     1       2.636  -0.173   1.576  0.00  0.00    -0.097 C 
BRANCH  22  23
ATOM     23  N   UNL     1       2.179   0.086   2.948  0.00  0.00    +0.377 N 
ATOM     24  H   UNL     1       2.823  -0.333   3.602  0.00  0.00    -0.090 HD
ATOM     25  H   UNL     1       2.139   1.082   3.106  0.00  0.00    -0.090 HD
ATOM     26  H   UNL     1       1.261  -0.313   3.078  0.00  0.00    -0.090 HD
ENDBRANCH  22  23
ENDBRANCH  14  22
ENDBRANCH   7  14
TORSDOF 5
