REMARK  Name = ZINC13064778
REMARK  13 active torsions:
REMARK  status: ('A' for Active; 'I' for Inactive)
REMARK    1  A    between atoms: C_1  and  C_2
REMARK    2  A    between atoms: C_2  and  C_3
REMARK    3  A    between atoms: C_3  and  C_5
REMARK    4  A    between atoms: C_3  and  N_71
REMARK    5  A    between atoms: N_9  and  C_10
REMARK    6  A    between atoms: C_10  and  C_11
REMARK    7  A    between atoms: C_10  and  C_12
REMARK    8  A    between atoms: C_10  and  C_13
REMARK    9  A    between atoms: C_14  and  C_15
REMARK   10  A    between atoms: C_14  and  N_71
REMARK   11  A    between atoms: C_18  and  C_28
REMARK   12  A    between atoms: C_20  and  C_27
REMARK   13  A    between atoms: C_29  and  N_71
REMARK                            x       y       z     vdW  Elec       q    Type
REMARK                         _______ _______ _______ _____ _____    ______ ____
ROOT
ATOM      1  N   UNL     1      -0.881   2.760  -0.998  0.00  0.00    +0.391 N 
ATOM      2  H   UNL     1      -1.737   2.365  -1.405  0.00  0.00    -0.080 HD
ENDROOT
BRANCH   1   3
ATOM      3  C   UNL     1      -0.901   4.228  -1.169  0.00  0.00    -0.067 C 
ATOM      4  C   UNL     1      -1.679   4.559  -2.444  0.00  0.00    -0.015 C 
ATOM      5  C   UNL     1      -1.725   6.076  -2.634  0.00  0.00    -0.002 C 
ATOM      6  C   UNL     1      -0.299   6.619  -2.751  0.00  0.00    -0.000 C 
ATOM      7  C   UNL     1       0.479   6.288  -1.476  0.00  0.00    -0.002 C 
ATOM      8  C   UNL     1       0.525   4.771  -1.286  0.00  0.00    -0.015 C 
ENDBRANCH   1   3
BRANCH   1   9
ATOM      9  C   UNL     1      -0.833   2.420   0.440  0.00  0.00    +0.003 C 
BRANCH   9  10
ATOM     10  C   UNL     1       0.111   3.341   1.169  0.00  0.00    +0.139 A 
ATOM     11  N   UNL     1       0.038   4.649   1.228  0.00  0.00    -0.115 NA
ATOM     12  N   UNL     1       1.022   5.070   1.945  0.00  0.00    -0.023 NA
ATOM     13  N   UNL     1       1.725   4.066   2.338  0.00  0.00    -0.043 NA
ATOM     14  N   UNL     1       1.196   2.982   1.880  0.00  0.00    -0.226 N 
BRANCH  14  15
ATOM     15  C   UNL     1       1.683   1.617   2.094  0.00  0.00    +0.059 C 
ATOM     16  C   UNL     1       2.038   0.985   0.747  0.00  0.00    +0.036 C 
ATOM     17  C   UNL     1       2.926   1.653   2.985  0.00  0.00    +0.036 C 
ATOM     18  C   UNL     1       0.592   0.787   2.775  0.00  0.00    +0.036 C 
ENDBRANCH  14  15
ENDBRANCH   9  10
BRANCH   9  20
ATOM     19  C   UNL     1      -3.185   1.583   0.329  0.00  0.00    +0.002 C 
ATOM     20  C   UNL     1      -2.240   2.564   1.025  0.00  0.00    -0.011 C 
ENDBRANCH   9  20
ENDBRANCH   1   9
BRANCH   1  21
ATOM     21  C   UNL     1       0.291   2.187  -1.692  0.00  0.00    -0.036 C 
BRANCH  21  22
ATOM     22  C   UNL     1       0.030   2.203  -3.176  0.00  0.00    +0.001 A 
ATOM     23  C   UNL     1       0.716   3.059  -3.973  0.00  0.00    +0.017 A 
ATOM     24  C   UNL     1       0.442   3.047  -5.411  0.00  0.00    +0.002 A 
ATOM     25  C   UNL     1       1.121   3.904  -6.284  0.00  0.00    -0.041 A 
ATOM     26  C   UNL     1       0.840   3.871  -7.620  0.00  0.00    +0.007 A 
ATOM     27  C   UNL     1      -0.116   2.996  -8.120  0.00  0.00    -0.048 A 
ATOM     28  C   UNL     1      -0.797   2.144  -7.278  0.00  0.00    +0.029 A 
ATOM     29  C   UNL     1      -0.527   2.159  -5.914  0.00  0.00    +0.050 A 
ATOM     30  N   UNL     1      -1.193   1.317  -5.049  0.00  0.00    -0.322 N 
ATOM     31  H   UNL     1      -1.861   0.705  -5.397  0.00  0.00    +0.169 HD
ATOM     32  C   UNL     1      -0.931   1.331  -3.731  0.00  0.00    +0.251 A 
ATOM     33  O   UNL     1      -1.540   0.573  -2.995  0.00  0.00    -0.268 OA
ATOM     34  C   UNL     1      -0.410   2.978  -9.598  0.00  0.00    +0.044 C 
ATOM     35  C   UNL     1       2.159   4.858  -5.753  0.00  0.00    +0.044 C 
ENDBRANCH  21  22
ENDBRANCH   1  21
TORSDOF 7
