REMARK  Name = ZINC03105951
REMARK  7 active torsions:
REMARK  status: ('A' for Active; 'I' for Inactive)
REMARK    1  A    between atoms: C_6  and  C_7
REMARK    2  A    between atoms: C_7  and  C_8
REMARK    3  A    between atoms: N_15  and  C_18
REMARK    4  A    between atoms: C_18  and  C_19
REMARK    5  A    between atoms: C_19  and  N_20
REMARK    6  A    between atoms: N_20  and  C_21
REMARK    7  A    between atoms: C_24  and  C_26
REMARK                            x       y       z     vdW  Elec       q    Type
REMARK                         _______ _______ _______ _____ _____    ______ ____
ROOT
ATOM      1  C   UNL     1      -0.753   1.593  -1.232  0.00  0.00    +0.166 C 
ATOM      2  C   UNL     1      -0.790   3.108  -1.172  0.00  0.00    +0.233 C 
ATOM      3  O   UNL     1      -1.296   3.688  -0.235  0.00  0.00    -0.275 OA
ATOM      4  N   UNL     1      -0.241   3.787  -2.201  0.00  0.00    -0.239 N 
ATOM      5  C   UNL     1       0.320   3.162  -3.243  0.00  0.00    +0.315 C 
ATOM      6  O   UNL     1       0.791   3.851  -4.126  0.00  0.00    -0.252 OA
ATOM      7  N   UNL     1       0.401   1.834  -3.383  0.00  0.00    -0.224 N 
ATOM      8  C   UNL     1      -0.093   0.986  -2.456  0.00  0.00    +0.235 C 
ATOM      9  O   UNL     1      -0.013  -0.215  -2.596  0.00  0.00    -0.274 OA
ATOM     10  H   UNL     1      -0.253   4.756  -2.186  0.00  0.00    +0.159 HD
ENDROOT
BRANCH   1  11
ATOM     11  C   UNL     1      -0.013   1.086   0.008  0.00  0.00    +0.057 C 
BRANCH  11  17
ATOM     12  C   UNL     1      -0.360   2.779   1.819  0.00  0.00    +0.005 A 
ATOM     13  C   UNL     1      -1.010   3.227   2.953  0.00  0.00    +0.020 A 
ATOM     14  C   UNL     1      -2.011   2.463   3.524  0.00  0.00    +0.041 A 
ATOM     15  C   UNL     1      -2.366   1.252   2.955  0.00  0.00    +0.020 A 
ATOM     16  C   UNL     1      -1.719   0.808   1.817  0.00  0.00    +0.005 A 
ATOM     17  C   UNL     1      -0.718   1.572   1.248  0.00  0.00    -0.046 A 
ATOM     18 CL   UNL     1      -2.823   3.022   4.953  0.00  0.00    -0.084 Cl
ENDBRANCH  11  17
ENDBRANCH   1  11
BRANCH   7  19
ATOM     19  C   UNL     1       1.044   1.283  -4.578  0.00  0.00    +0.136 C 
BRANCH  19  20
ATOM     20  C   UNL     1      -0.003   1.086  -5.676  0.00  0.00    +0.122 C 
BRANCH  20  21
ATOM     21  N   UNL     1       0.640   0.535  -6.872  0.00  0.00    -0.328 N 
ATOM     22  H   UNL     1       1.594   0.356  -6.870  0.00  0.00    +0.147 HD
BRANCH  21  23
ATOM     23  C   UNL     1      -0.115   0.270  -8.008  0.00  0.00    +0.115 A 
ATOM     24  C   UNL     1       0.503  -0.248  -9.143  0.00  0.00    +0.079 A 
ATOM     25  C   UNL     1      -0.262  -0.513 -10.265  0.00  0.00    +0.037 A 
ATOM     26  C   UNL     1      -1.623  -0.239 -10.218  0.00  0.00    +0.072 A 
ATOM     27  C   UNL     1      -2.169   0.280  -9.062  0.00  0.00    +0.096 A 
ATOM     28 CL   UNL     1       2.210  -0.564  -9.148  0.00  0.00    -0.080 Cl
ATOM     29  N   UNL     1      -1.449   0.547  -7.939  0.00  0.00    -0.348 N 
ATOM     30  H   UNL     1      -1.883   0.933  -7.092  0.00  0.00    +0.167 HD
BRANCH  26  31
ATOM     31  C   UNL     1      -2.495  -0.505 -11.418  0.00  0.00    +0.419 C 
ATOM     32  F   UNL     1      -3.815  -0.149 -11.124  0.00  0.00    -0.166 F 
ATOM     33  F   UNL     1      -2.039   0.252 -12.503  0.00  0.00    -0.166 F 
ATOM     34  F   UNL     1      -2.439  -1.865 -11.743  0.00  0.00    -0.166 F 
ENDBRANCH  26  31
ENDBRANCH  21  23
ENDBRANCH  20  21
ENDBRANCH  19  20
ENDBRANCH   7  19
TORSDOF 7
