REMARK  Name = ZINC35442721
REMARK  12 active torsions:
REMARK  status: ('A' for Active; 'I' for Inactive)
REMARK    1  A    between atoms: C_1  and  C_2
REMARK    2  A    between atoms: C_4  and  C_26
REMARK    3  A    between atoms: C_6  and  C_23
REMARK    4  A    between atoms: C_9  and  C_11
REMARK    5  A    between atoms: C_11  and  C_12
REMARK    6  A    between atoms: C_15  and  C_17
REMARK    7  A    between atoms: N_21  and  C_22
REMARK    8  A    between atoms: C_23  and  C_24
REMARK    9  A    between atoms: C_23  and  C_25
REMARK   10  A    between atoms: C_26  and  N_27
REMARK   11  A    between atoms: C_30  and  C_33
REMARK   12  A    between atoms: C_33  and  O_34
REMARK                            x       y       z     vdW  Elec       q    Type
REMARK                         _______ _______ _______ _____ _____    ______ ____
ROOT
ATOM      1  C   UNL     1      -0.183   1.573  -0.418  0.00  0.00    +0.039 C 
ATOM      2  C   UNL     1      -0.063   0.076  -0.295  0.00  0.00    -0.073 C 
ATOM      3  C   UNL     1       0.155  -0.606  -1.373  0.00  0.00    -0.026 C 
ATOM      4  C   UNL     1       0.287  -2.101  -1.410  0.00  0.00    -0.002 C 
ATOM      5  C   UNL     1       0.554  -2.641  -0.004  0.00  0.00    -0.003 C 
ATOM      6  C   UNL     1      -0.478  -2.032   0.954  0.00  0.00    +0.012 C 
ATOM      7  C   UNL     1      -0.197  -0.530   1.071  0.00  0.00    +0.024 C 
ENDROOT
BRANCH   5   8
ATOM      8  C   UNL     1       0.423  -4.166  -0.005  0.00  0.00    -0.014 C 
ATOM      9  C   UNL     1       0.829  -4.714   1.364  0.00  0.00    +0.007 C 
ATOM     10  C   UNL     1      -1.028  -4.553  -0.299  0.00  0.00    +0.007 C 
ENDBRANCH   5   8
BRANCH   7  11
ATOM     11  C   UNL     1       1.099  -0.311   1.853  0.00  0.00    +0.105 C 
BRANCH  11  12
ATOM     12  C   UNL     1       1.301   1.164   2.088  0.00  0.00    +0.218 A 
ATOM     13  N   UNL     1       0.875   1.844   3.115  0.00  0.00    -0.112 NA
ATOM     14  N   UNL     1       1.224   3.076   2.991  0.00  0.00    -0.106 NA
ATOM     15  C   UNL     1       1.892   3.226   1.869  0.00  0.00    +0.266 A 
ATOM     16  O   UNL     1       1.957   2.014   1.279  0.00  0.00    -0.419 OA
BRANCH  15  17
ATOM     17  C   UNL     1       2.466   4.479   1.355  0.00  0.00    +0.125 A 
ATOM     18  C   UNL     1       3.155   4.645   0.189  0.00  0.00    +0.143 A 
ATOM     19  N   UNL     1       3.500   5.933   0.097  0.00  0.00    -0.243 NA
ATOM     20  C   UNL     1       3.064   6.580   1.145  0.00  0.00    +0.199 A 
ATOM     21  N   UNL     1       2.410   5.720   1.953  0.00  0.00    -0.329 N 
ATOM     22  C   UNL     1       1.765   6.043   3.228  0.00  0.00    +0.150 C 
ENDBRANCH  15  17
ENDBRANCH  11  12
ENDBRANCH   7  11
BRANCH   4  23
ATOM     23  C   UNL     1       1.450  -2.485  -2.327  0.00  0.00    -0.071 C 
BRANCH  23  24
ATOM     24  N   UNL     1       1.151  -2.059  -3.701  0.00  0.00    +0.380 N 
ATOM     25  C   UNL     1      -0.011  -2.803  -4.201  0.00  0.00    -0.078 C 
ATOM     26  C   UNL     1      -0.376  -2.306  -5.601  0.00  0.00    -0.013 C 
ATOM     27  C   UNL     1       0.814  -2.523  -6.540  0.00  0.00    +0.011 C 
ATOM     28  C   UNL     1       2.040  -1.803  -5.970  0.00  0.00    -0.013 C 
ATOM     29  C   UNL     1       2.315  -2.319  -4.556  0.00  0.00    -0.078 C 
ATOM     30  H   UNL     1       0.944  -1.071  -3.708  0.00  0.00    -0.082 HD
BRANCH  27  31
ATOM     31  C   UNL     1       0.485  -1.956  -7.923  0.00  0.00    +0.159 C 
BRANCH  31  32
ATOM     32  O   UNL     1       1.548  -2.262  -8.828  0.00  0.00    -0.395 OA
ATOM     33  H   UNL     1       1.406  -1.932  -9.726  0.00  0.00    +0.209 HD
ENDBRANCH  31  32
ENDBRANCH  27  31
ENDBRANCH  23  24
ENDBRANCH   4  23
TORSDOF 8
