REMARK  Name = ZINC13576647
REMARK  5 active torsions:
REMARK  status: ('A' for Active; 'I' for Inactive)
REMARK    1  A    between atoms: C_1  and  C_2
REMARK    2  A    between atoms: C_2  and  N_3
REMARK    3  A    between atoms: C_16  and  C_18
REMARK    4  A    between atoms: N_20  and  C_33
REMARK    5  A    between atoms: N_23  and  C_26
REMARK                            x       y       z     vdW  Elec       q    Type
REMARK                         _______ _______ _______ _____ _____    ______ ____
ROOT
ATOM      1  N   UNL     1      -2.716  -2.104   0.016  0.00  0.00    +0.388 N 
ATOM      2  C   UNL     1      -3.649  -2.442   1.099  0.00  0.00    -0.073 C 
ATOM      3  C   UNL     1      -4.805  -3.281   0.537  0.00  0.00    +0.019 C 
ATOM      4  C   UNL     1      -4.209  -4.400  -0.279  0.00  0.00    -0.022 A 
ATOM      5  C   UNL     1      -4.824  -5.615  -0.762  0.00  0.00    +0.003 A 
ATOM      6  C   UNL     1      -6.115  -6.140  -0.644  0.00  0.00    +0.010 A 
ATOM      7  C   UNL     1      -6.350  -7.352  -1.244  0.00  0.00    +0.001 A 
ATOM      8  C   UNL     1      -5.363  -8.034  -1.938  0.00  0.00    +0.002 A 
ATOM      9  C   UNL     1      -4.077  -7.539  -2.071  0.00  0.00    +0.026 A 
ATOM     10  C   UNL     1      -3.809  -6.310  -1.471  0.00  0.00    +0.047 A 
ATOM     11  N   UNL     1      -2.675  -5.551  -1.407  0.00  0.00    -0.359 N 
ATOM     12  H   UNL     1      -1.823  -5.786  -1.808  0.00  0.00    +0.166 HD
ATOM     13  C   UNL     1      -2.921  -4.410  -0.694  0.00  0.00    +0.011 A 
ATOM     14  C   UNL     1      -1.951  -3.295  -0.385  0.00  0.00    +0.021 C 
ATOM     15  H   UNL     1      -3.237  -1.759  -0.776  0.00  0.00    -0.080 HD
ENDROOT
BRANCH  14  16
ATOM     16  C   UNL     1      -1.133  -2.982  -1.612  0.00  0.00    +0.074 A 
ATOM     17  C   UNL     1       0.214  -3.191  -1.617  0.00  0.00    +0.262 A 
ATOM     18  N   UNL     1       0.938  -2.899  -2.745  0.00  0.00    -0.263 N 
ATOM     19  C   UNL     1       0.327  -2.410  -3.839  0.00  0.00    +0.339 A 
ATOM     20  O   UNL     1       0.986  -2.157  -4.830  0.00  0.00    -0.246 OA
ATOM     21  N   UNL     1      -1.001  -2.197  -3.854  0.00  0.00    -0.229 N 
ATOM     22  C   UNL     1      -1.750  -2.475  -2.769  0.00  0.00    +0.267 A 
ATOM     23  O   UNL     1      -2.954  -2.284  -2.789  0.00  0.00    -0.267 OA
ATOM     24  C   UNL     1       2.386  -3.121  -2.757  0.00  0.00    +0.157 C 
ATOM     25  O   UNL     1       0.830  -3.681  -0.520  0.00  0.00    -0.267 OA
BRANCH  21  26
ATOM     26  C   UNL     1      -1.611  -1.686  -5.008  0.00  0.00    +0.054 A 
ATOM     27  C   UNL     1      -1.738  -0.314  -5.179  0.00  0.00    +0.028 A 
ATOM     28  C   UNL     1      -2.339   0.187  -6.317  0.00  0.00    +0.022 A 
ATOM     29  C   UNL     1      -2.814  -0.678  -7.287  0.00  0.00    +0.041 A 
ATOM     30  C   UNL     1      -2.689  -2.046  -7.120  0.00  0.00    +0.022 A 
ATOM     31  C   UNL     1      -2.084  -2.551  -5.986  0.00  0.00    +0.028 A 
ATOM     32 CL   UNL     1      -3.569  -0.046  -8.717  0.00  0.00    -0.084 Cl
ENDBRANCH  21  26
ENDBRANCH  14  16
BRANCH   1  34
ATOM     33  C   UNL     1      -2.569   0.218   0.779  0.00  0.00    -0.017 C 
ATOM     34  C   UNL     1      -1.788  -1.063   0.479  0.00  0.00    -0.081 C 
ENDBRANCH   1  34
TORSDOF 3
