REMARK  Name = ZINC06199200
REMARK  14 active torsions:
REMARK  status: ('A' for Active; 'I' for Inactive)
REMARK    1  A    between atoms: C_1  and  C_2
REMARK    2  A    between atoms: C_5  and  S_8
REMARK    3  A    between atoms: S_8  and  C_11
REMARK    4  A    between atoms: C_11  and  N_12
REMARK    5  A    between atoms: C_13  and  C_17
REMARK    6  A    between atoms: C_17  and  N_66
REMARK    7  A    between atoms: C_18  and  C_19
REMARK    8  A    between atoms: C_18  and  N_66
REMARK    9  A    between atoms: C_22  and  C_25
REMARK   10  A    between atoms: C_25  and  C_26
REMARK   11  A    between atoms: C_25  and  C_27
REMARK   12  A    between atoms: C_25  and  C_28
REMARK   13  A    between atoms: C_29  and  C_30
REMARK   14  A    between atoms: C_29  and  N_66
REMARK                            x       y       z     vdW  Elec       q    Type
REMARK                         _______ _______ _______ _____ _____    ______ ____
ROOT
ATOM      1  N   UNL     1      -1.386   2.522   1.640  0.00  0.00    +0.392 N 
ATOM      2  H   UNL     1      -0.460   2.755   2.017  0.00  0.00    -0.080 HD
ENDROOT
BRANCH   1   3
ATOM      3  C   UNL     1      -1.313   2.504   0.164  0.00  0.00    +0.001 C 
BRANCH   3   5
ATOM      4  N   UNL     1       0.709   3.906  -0.507  0.00  0.00    -0.210 N 
ATOM      5  C   UNL     1      -0.613   3.754  -0.302  0.00  0.00    +0.137 A 
ATOM      6  N   UNL     1      -1.173   4.903  -0.593  0.00  0.00    -0.115 NA
ATOM      7  N   UNL     1      -0.244   5.718  -0.957  0.00  0.00    -0.023 NA
ATOM      8  N   UNL     1       0.894   5.119  -0.906  0.00  0.00    -0.042 NA
BRANCH   4   9
ATOM      9  C   UNL     1       1.742   2.885  -0.314  0.00  0.00    +0.318 C 
BRANCH   9  10
ATOM     10  S   UNL     1       2.097   2.077  -1.899  0.00  0.00    +0.017 S 
ATOM     11  O   UNL     1       0.976   1.312  -2.320  0.00  0.00    -0.168 OA
ATOM     12  O   UNL     1       2.723   2.993  -2.786  0.00  0.00    -0.168 OA
BRANCH  10  17
ATOM     13  C   UNL     1       6.359  -2.004  -0.638  0.00  0.00    +0.044 C 
ATOM     14  C   UNL     1       5.294  -0.985  -0.953  0.00  0.00    -0.050 A 
ATOM     15  C   UNL     1       3.959  -1.332  -0.870  0.00  0.00    +0.005 A 
ATOM     16  C   UNL     1       2.982  -0.397  -1.159  0.00  0.00    +0.027 A 
ATOM     17  C   UNL     1       3.341   0.885  -1.530  0.00  0.00    +0.090 A 
ATOM     18  C   UNL     1       4.677   1.231  -1.617  0.00  0.00    +0.027 A 
ATOM     19  C   UNL     1       5.653   0.298  -1.324  0.00  0.00    +0.005 A 
ENDBRANCH  10  17
ENDBRANCH   9  10
ENDBRANCH   4   9
ENDBRANCH   3   5
ENDBRANCH   1   3
BRANCH   1  20
ATOM     20  C   UNL     1      -2.357   3.544   2.086  0.00  0.00    -0.042 C 
BRANCH  20  21
ATOM     21  C   UNL     1      -2.251   3.696   3.581  0.00  0.00    -0.064 A 
ATOM     22  C   UNL     1      -3.049   2.931   4.412  0.00  0.00    +0.002 A 
ATOM     23  C   UNL     1      -2.949   3.067   5.784  0.00  0.00    +0.004 A 
ATOM     24  C   UNL     1      -2.057   3.974   6.325  0.00  0.00    -0.042 A 
ATOM     25  C   UNL     1      -1.262   4.742   5.495  0.00  0.00    +0.004 A 
ATOM     26  C   UNL     1      -1.360   4.603   4.123  0.00  0.00    +0.002 A 
BRANCH  24  27
ATOM     27  C   UNL     1      -1.951   4.125   7.821  0.00  0.00    -0.013 C 
ATOM     28  C   UNL     1      -2.290   5.565   8.213  0.00  0.00    +0.015 C 
ATOM     29  C   UNL     1      -2.932   3.168   8.501  0.00  0.00    +0.015 C 
ATOM     30  C   UNL     1      -0.525   3.797   8.267  0.00  0.00    +0.015 C 
ENDBRANCH  24  27
ENDBRANCH  20  21
ENDBRANCH   1  20
BRANCH   1  31
ATOM     31  C   UNL     1      -1.788   1.191   2.142  0.00  0.00    -0.002 C 
BRANCH  31  32
ATOM     32  C   UNL     1      -0.589   0.279   2.104  0.00  0.00    +0.089 A 
ATOM     33  C   UNL     1       0.342   0.162   3.067  0.00  0.00    +0.042 A 
ATOM     34  C   UNL     1       1.278  -0.798   2.619  0.00  0.00    +0.041 A 
ATOM     35  C   UNL     1       0.863  -1.211   1.408  0.00  0.00    +0.195 A 
ATOM     36  O   UNL     1      -0.271  -0.559   1.103  0.00  0.00    -0.470 OA
ENDBRANCH  31  32
ENDBRANCH   1  31
TORSDOF 10
