REMARK  Name = ZINC34798052
REMARK  3 active torsions:
REMARK  status: ('A' for Active; 'I' for Inactive)
REMARK    1  A    between atoms: C_8  and  C_19
REMARK    2  A    between atoms: N_14  and  C_15
REMARK    3  A    between atoms: C_15  and  C_16
REMARK                            x       y       z     vdW  Elec       q    Type
REMARK                         _______ _______ _______ _____ _____    ______ ____
ROOT
ATOM      1  C   UNL     1      -0.018   1.492   0.010  0.00  0.00    +0.148 C 
ATOM      2  C   UNL     1       1.442   1.821  -0.002  0.00  0.00    +0.116 C 
ATOM      3  C   UNL     1       2.102   1.526  -1.337  0.00  0.00    +0.008 C 
ATOM      4  C   UNL     1       3.373   1.873  -1.194  0.00  0.00    +0.004 C 
ATOM      5  C   UNL     1       3.499   2.327   0.265  0.00  0.00    +0.157 C 
ATOM      6  O   UNL     1       2.157   2.925   0.502  0.00  0.00    -0.359 OA
ATOM      7  C   UNL     1       3.417   0.959   1.047  0.00  0.00    +0.150 C 
ATOM      8  C   UNL     1       1.905   0.728   1.042  0.00  0.00    +0.129 C 
ATOM      9  C   UNL     1       1.193  -0.452   0.520  0.00  0.00    +0.223 C 
ATOM     10  O   UNL     1       1.583  -1.601   0.544  0.00  0.00    -0.275 OA
ATOM     11  N   UNL     1       0.002  -0.004   0.002  0.00  0.00    -0.287 N 
ENDROOT
BRANCH   7  12
ATOM     12  C   UNL     1       4.151  -0.131   0.309  0.00  0.00    +0.363 C 
ATOM     13  O   UNL     1       5.349  -0.029   0.106  0.00  0.00    -0.246 OA
ATOM     14  O   UNL     1       3.548  -1.115  -0.085  0.00  0.00    -0.246 OA
ENDBRANCH   7  12
BRANCH  11  15
ATOM     15  C   UNL     1      -1.083  -0.860  -0.484  0.00  0.00    +0.232 C 
BRANCH  15  16
ATOM     16  C   UNL     1      -0.883  -1.139  -1.952  0.00  0.00    +0.373 C 
ATOM     17  O   UNL     1       0.076  -0.666  -2.537  0.00  0.00    -0.245 OA
ATOM     18  O   UNL     1      -1.681  -1.837  -2.553  0.00  0.00    -0.245 OA
ENDBRANCH  15  16
ENDBRANCH  11  15
TORSDOF 3
