REMARK  Name = ZINC33936212
REMARK  7 active torsions:
REMARK  status: ('A' for Active; 'I' for Inactive)
REMARK    1  A    between atoms: C_1  and  C_2
REMARK    2  A    between atoms: C_5  and  C_7
REMARK    3  A    between atoms: N_12  and  C_26
REMARK    4  A    between atoms: C_16  and  C_24
REMARK    5  A    between atoms: C_17  and  N_23
REMARK    6  A    between atoms: C_18  and  C_19
REMARK    7  A    between atoms: C_18  and  C_21
REMARK                            x       y       z     vdW  Elec       q    Type
REMARK                         _______ _______ _______ _____ _____    ______ ____
ROOT
ATOM      1  C   UNL     1       0.063  -4.080   0.966  0.00  0.00    +0.074 C 
ATOM      2  C   UNL     1       1.316  -4.300   1.816  0.00  0.00    +0.045 C 
ATOM      3  C   UNL     1       2.577  -4.262   0.982  0.00  0.00    +0.093 C 
ATOM      4  N   UNL     1       3.249  -2.962   1.062  0.00  0.00    -0.301 NA
ATOM      5  C   UNL     1       3.622  -2.668   2.457  0.00  0.00    +0.111 C 
ATOM      6  C   UNL     1       2.349  -2.566   3.261  0.00  0.00    -0.007 C 
ATOM      7  C   UNL     1       1.311  -3.288   2.925  0.00  0.00    -0.026 C 
ATOM      8  C   UNL     1       0.031  -3.083   3.650  0.00  0.00    +0.074 C 
ATOM      9  C   UNL     1      -1.118  -3.569   3.116  0.00  0.00    +0.054 C 
ATOM     10  C   UNL     1      -1.175  -4.335   1.826  0.00  0.00    +0.189 C 
ATOM     11  C   UNL     1       4.425  -2.922   0.183  0.00  0.00    +0.105 C 
ENDROOT
BRANCH   1  16
ATOM     12  C   UNL     1      -0.018   1.503   0.010  0.00  0.00    +0.051 C 
ATOM     13  C   UNL     1       0.002  -0.004   0.002  0.00  0.00    -0.013 A 
ATOM     14  C   UNL     1       0.010  -0.852  -1.056  0.00  0.00    +0.011 A 
ATOM     15  C   UNL     1       0.030  -2.214  -0.823  0.00  0.00    +0.012 A 
ATOM     16  C   UNL     1       0.041  -2.662   0.457  0.00  0.00    -0.003 A 
ATOM     17  S   UNL     1       0.031  -1.136   1.383  0.00  0.00    -0.098 S 
ENDBRANCH   1  16
BRANCH   9  18
ATOM     18  N   UNL     1      -2.288  -3.349   3.788  0.00  0.00    -0.358 N 
ATOM     19  H   UNL     1      -2.281  -2.856   4.624  0.00  0.00    +0.142 HD
ATOM     20  H   UNL     1      -3.124  -3.685   3.429  0.00  0.00    +0.142 HD
ENDBRANCH   9  18
BRANCH  10  21
ATOM     21  C   UNL     1      -2.373  -3.929   1.074  0.00  0.00    +0.091 C 
ATOM     22  N   UNL     1      -3.298  -3.615   0.494  0.00  0.00    -0.194 NA
ENDBRANCH  10  21
BRANCH  10  23
ATOM     23  C   UNL     1      -1.263  -5.773   2.126  0.00  0.00    +0.091 C 
ATOM     24  N   UNL     1      -1.331  -6.883   2.357  0.00  0.00    -0.194 NA
ENDBRANCH  10  23
BRANCH   8  25
ATOM     25  C   UNL     1       0.010  -2.381   4.897  0.00  0.00    +0.101 C 
ATOM     26  N   UNL     1      -0.007  -1.823   5.887  0.00  0.00    -0.191 NA
ENDBRANCH   8  25
TORSDOF 5
