REMARK  Name = ZINC30614622
REMARK  8 active torsions:
REMARK  status: ('A' for Active; 'I' for Inactive)
REMARK    1  A    between atoms: C_1  and  C_2
REMARK    2  A    between atoms: C_2  and  C_3
REMARK    3  A    between atoms: C_3  and  C_4
REMARK    4  A    between atoms: C_3  and  C_5
REMARK    5  A    between atoms: C_3  and  C_6
REMARK    6  A    between atoms: N_14  and  C_18
REMARK    7  A    between atoms: C_18  and  C_19
REMARK    8  A    between atoms: N_24  and  C_27
REMARK                            x       y       z     vdW  Elec       q    Type
REMARK                         _______ _______ _______ _____ _____    ______ ____
ROOT
ATOM      1  C   UNL     1      -2.580  12.010  -0.577  0.00  0.00    -0.005 C 
ATOM      2  C   UNL     1      -2.670  10.975   0.547  0.00  0.00    +0.006 C 
ATOM      3  C   UNL     1      -4.083  10.387   0.586  0.00  0.00    +0.035 C 
ATOM      4  C   UNL     1      -4.402   9.736  -0.755  0.00  0.00    +0.113 C 
ATOM      5  C   UNL     1      -4.296  10.752  -1.887  0.00  0.00    +0.035 C 
ATOM      6  C   UNL     1      -2.882  11.338  -1.918  0.00  0.00    +0.006 C 
ATOM      7  C   UNL     1      -3.475   8.568  -1.006  0.00  0.00    +0.247 C 
ATOM      8  O   UNL     1      -2.267   8.598  -1.106  0.00  0.00    -0.273 OA
ATOM      9  N   UNL     1      -4.275   7.486  -1.097  0.00  0.00    -0.215 N 
ATOM     10  C   UNL     1      -5.564   7.812  -0.944  0.00  0.00    +0.310 C 
ATOM     11  O   UNL     1      -6.475   7.009  -0.990  0.00  0.00    -0.252 OA
ATOM     12  N   UNL     1      -5.739   9.130  -0.729  0.00  0.00    -0.285 N 
ATOM     13  H   UNL     1      -6.624   9.760  -0.556  0.00  0.00    +0.151 HD
ENDROOT
BRANCH   1  14
ATOM     14  C   UNL     1      -1.171  12.605  -0.610  0.00  0.00    -0.032 C 
ATOM     15  C   UNL     1      -0.871  13.280   0.730  0.00  0.00    +0.011 C 
ATOM     16  C   UNL     1      -0.153  11.491  -0.861  0.00  0.00    +0.011 C 
BRANCH  14  18
ATOM     17  C   UNL     1       0.327  14.236  -1.767  0.00  0.00    +0.004 C 
ATOM     18  C   UNL     1      -1.082  13.640  -1.733  0.00  0.00    +0.003 C 
ENDBRANCH  14  18
ENDBRANCH   1  14
BRANCH   9  19
ATOM     19  C   UNL     1      -3.794   6.124  -1.338  0.00  0.00    +0.213 C 
BRANCH  19  20
ATOM     20  C   UNL     1      -3.508   5.451  -0.021  0.00  0.00    +0.234 C 
ATOM     21  O   UNL     1      -3.689   6.050   1.018  0.00  0.00    -0.274 OA
ATOM     22  N   UNL     1      -3.052   4.183   0.003  0.00  0.00    -0.297 N 
ATOM     23  C   UNL     1      -2.767   3.507   1.278  0.00  0.00    +0.126 C 
ATOM     24  C   UNL     1      -1.353   2.919   1.212  0.00  0.00    +0.124 C 
ATOM     25  N   UNL     1      -1.236   2.070   0.019  0.00  0.00    -0.326 N 
ATOM     26  C   UNL     1      -1.409   2.853  -1.212  0.00  0.00    +0.124 C 
ATOM     27  C   UNL     1      -2.825   3.438  -1.245  0.00  0.00    +0.126 C 
BRANCH  25  28
ATOM     28  C   UNL     1      -0.017   1.386   0.010  0.00  0.00    +0.048 A 
ATOM     29  C   UNL     1       1.178   2.093   0.002  0.00  0.00    +0.024 A 
ATOM     30  C   UNL     1       2.381   1.414  -0.014  0.00  0.00    +0.002 A 
ATOM     31  C   UNL     1       2.397   0.032  -0.021  0.00  0.00    +0.002 A 
ATOM     32  C   UNL     1       1.209  -0.677  -0.013  0.00  0.00    +0.022 A 
ATOM     33  C   UNL     1       0.002  -0.004   0.002  0.00  0.00    +0.062 A 
ATOM     34 CL   UNL     1      -1.489  -0.894   0.011  0.00  0.00    -0.082 Cl
ENDBRANCH  25  28
ENDBRANCH  19  20
ENDBRANCH   9  19
TORSDOF 5
