REMARK  Name = ZINC06282897
REMARK  7 active torsions:
REMARK  status: ('A' for Active; 'I' for Inactive)
REMARK    1  A    between atoms: C_1  and  O_2
REMARK    2  A    between atoms: O_2  and  C_3
REMARK    3  A    between atoms: C_8  and  C_15
REMARK    4  A    between atoms: C_15  and  C_17
REMARK    5  A    between atoms: C_15  and  N_69
REMARK    6  A    between atoms: N_21  and  C_22
REMARK    7  A    between atoms: C_30  and  C_33
REMARK                            x       y       z     vdW  Elec       q    Type
REMARK                         _______ _______ _______ _____ _____    ______ ____
ROOT
ATOM      1  C   UNL     1       3.510   0.737  -0.027  0.00  0.00    +0.039 C 
ENDROOT
BRANCH   1   7
ATOM      2  C   UNL     1       5.066   1.207  -6.314  0.00  0.00    +0.122 A 
ATOM      3  C   UNL     1       5.454  -0.049  -5.848  0.00  0.00    +0.046 A 
ATOM      4  C   UNL     1       5.238  -0.403  -4.548  0.00  0.00    +0.013 A 
ATOM      5  C   UNL     1       4.623   0.501  -3.674  0.00  0.00    -0.001 A 
ATOM      6  C   UNL     1       4.378   0.151  -2.275  0.00  0.00    +0.017 A 
ATOM      7  C   UNL     1       3.777   1.067  -1.473  0.00  0.00    +0.011 A 
ATOM      8  C   UNL     1       3.397   2.322  -1.988  0.00  0.00    +0.251 A 
ATOM      9  O   UNL     1       2.855   3.128  -1.252  0.00  0.00    -0.268 OA
ATOM     10  N   UNL     1       3.623   2.656  -3.271  0.00  0.00    -0.322 N 
ATOM     11  H   UNL     1       3.352   3.531  -3.592  0.00  0.00    +0.169 HD
ATOM     12  C   UNL     1       4.229   1.772  -4.138  0.00  0.00    +0.053 A 
ATOM     13  C   UNL     1       4.456   2.115  -5.465  0.00  0.00    +0.072 A 
BRANCH   2  15
ATOM     14  C   UNL     1       5.920   0.562  -8.435  0.00  0.00    +0.277 C 
ATOM     15  O   UNL     1       5.288   1.542  -7.610  0.00  0.00    -0.495 OA
ENDBRANCH   2  15
ENDBRANCH   1   7
BRANCH   1  21
ATOM     16  C   UNL     1       5.549   1.862   0.644  0.00  0.00    -0.072 C 
ATOM     17  C   UNL     1       6.050   3.151   1.301  0.00  0.00    +0.017 C 
ATOM     18  C   UNL     1       5.498   3.257   2.695  0.00  0.00    -0.048 C 
ATOM     19  C   UNL     1       4.478   2.540   3.111  0.00  0.00    -0.041 C 
ATOM     20  C   UNL     1       3.769   1.542   2.241  0.00  0.00    -0.049 C 
ATOM     21  N   UNL     1       4.084   1.803   0.825  0.00  0.00    +0.392 N 
ATOM     22  H   UNL     1       3.676   2.705   0.551  0.00  0.00    -0.080 HD
BRANCH  18  23
ATOM     23  C   UNL     1       6.127   4.207   3.637  0.00  0.00    -0.022 A 
ATOM     24  C   UNL     1       6.076   5.579   3.386  0.00  0.00    +0.011 A 
ATOM     25  C   UNL     1       6.659   6.462   4.271  0.00  0.00    +0.039 A 
ATOM     26  C   UNL     1       7.306   5.988   5.401  0.00  0.00    +0.123 A 
ATOM     27  C   UNL     1       7.365   4.626   5.652  0.00  0.00    +0.039 A 
ATOM     28  C   UNL     1       6.780   3.735   4.776  0.00  0.00    +0.011 A 
ATOM     29  F   UNL     1       7.880   6.856   6.262  0.00  0.00    -0.205 F 
ENDBRANCH  18  23
ENDBRANCH   1  21
BRANCH   1  30
ATOM     30  C   UNL     1       2.023   0.666   0.206  0.00  0.00    +0.143 A 
ATOM     31  N   UNL     1       1.204   1.680   0.343  0.00  0.00    -0.115 NA
ATOM     32  N   UNL     1       0.017   1.211   0.525  0.00  0.00    -0.023 NA
ATOM     33  N   UNL     1       0.059  -0.075   0.508  0.00  0.00    -0.044 NA
ATOM     34  N   UNL     1       1.278  -0.450   0.314  0.00  0.00    -0.227 N 
BRANCH  34  35
ATOM     35  C   UNL     1       1.761  -1.830   0.226  0.00  0.00    +0.111 C 
ATOM     36  C   UNL     1       1.064  -2.542  -0.935  0.00  0.00    +0.027 C 
ATOM     37  C   UNL     1       1.568  -3.983  -1.026  0.00  0.00    +0.002 C 
ATOM     38  C   UNL     1       1.259  -4.716   0.281  0.00  0.00    +0.000 C 
ATOM     39  C   UNL     1       1.957  -4.004   1.442  0.00  0.00    +0.002 C 
ATOM     40  C   UNL     1       1.452  -2.562   1.533  0.00  0.00    +0.027 C 
ENDBRANCH  34  35
ENDBRANCH   1  30
TORSDOF 6
