REMARK  Name = ZINC39325417
REMARK  7 active torsions:
REMARK  status: ('A' for Active; 'I' for Inactive)
REMARK    1  A    between atoms: C_4  and  C_7
REMARK    2  A    between atoms: C_7  and  C_8
REMARK    3  A    between atoms: C_8  and  N_9
REMARK    4  A    between atoms: N_9  and  C_10
REMARK    5  A    between atoms: N_9  and  S_26
REMARK    6  A    between atoms: C_10  and  C_11
REMARK    7  A    between atoms: S_26  and  C_29
REMARK                            x       y       z     vdW  Elec       q    Type
REMARK                         _______ _______ _______ _____ _____    ______ ____
ROOT
ATOM      1  N   UNL     1       5.391  -1.558   1.326  0.00  0.00    -0.175 NA
ENDROOT
BRANCH   1   2
ATOM      2  S   UNL     1       5.306  -3.207   1.461  0.00  0.00    +0.061 S 
ATOM      3  O   UNL     1       6.462  -3.615   2.179  0.00  0.00    -0.153 OA
ATOM      4  O   UNL     1       3.989  -3.511   1.901  0.00  0.00    -0.153 OA
BRANCH   2   5
ATOM      5  C   UNL     1       5.461  -3.872  -0.163  0.00  0.00    +0.106 A 
ATOM      6  C   UNL     1       4.333  -4.077  -0.936  0.00  0.00    +0.030 A 
ATOM      7  C   UNL     1       4.454  -4.598  -2.211  0.00  0.00    +0.022 A 
ATOM      8  C   UNL     1       5.704  -4.915  -2.712  0.00  0.00    +0.041 A 
ATOM      9  C   UNL     1       6.832  -4.709  -1.938  0.00  0.00    +0.022 A 
ATOM     10  C   UNL     1       6.710  -4.182  -0.666  0.00  0.00    +0.030 A 
ATOM     11 CL   UNL     1       5.856  -5.571  -4.313  0.00  0.00    -0.084 Cl
ENDBRANCH   2   5
ENDBRANCH   1   2
BRANCH   1  12
ATOM     12  C   UNL     1       4.162  -0.768   1.222  0.00  0.00    +0.114 C 
BRANCH  12  13
ATOM     13  C   UNL     1       3.832  -0.529  -0.253  0.00  0.00    +0.052 C 
BRANCH  13  17
ATOM     14  C   UNL     1       0.248   1.777  -0.556  0.00  0.00    +0.000 A 
ATOM     15  C   UNL     1       1.474   2.411  -0.487  0.00  0.00    +0.000 A 
ATOM     16  C   UNL     1       2.634   1.665  -0.389  0.00  0.00    +0.003 A 
ATOM     17  C   UNL     1       2.567   0.285  -0.359  0.00  0.00    -0.046 A 
ATOM     18  C   UNL     1       1.341  -0.350  -0.427  0.00  0.00    +0.003 A 
ATOM     19  C   UNL     1       0.182   0.396  -0.527  0.00  0.00    +0.000 A 
ENDBRANCH  13  17
ENDBRANCH  12  13
ENDBRANCH   1  12
BRANCH   1  20
ATOM     20  C   UNL     1       6.695  -0.891   1.309  0.00  0.00    +0.126 C 
BRANCH  20  21
ATOM     21  C   UNL     1       7.069  -0.467   2.731  0.00  0.00    +0.114 C 
ATOM     22  C   UNL     1       5.954   0.411   3.263  0.00  0.00    -0.003 C 
ATOM     23  C   UNL     1       6.284   1.669   3.662  0.00  0.00    -0.003 A 
ATOM     24  C   UNL     1       5.266   2.579   4.187  0.00  0.00    +0.059 A 
ATOM     25  C   UNL     1       5.629   3.829   4.577  0.00  0.00    +0.167 A 
ATOM     26  C   UNL     1       6.969   4.263   4.485  0.00  0.00    +0.168 A 
ATOM     27  C   UNL     1       7.966   3.443   3.998  0.00  0.00    +0.073 A 
ATOM     28  C   UNL     1       7.679   2.139   3.574  0.00  0.00    +0.044 A 
ATOM     29  N   UNL     1       8.659   1.362   3.106  0.00  0.00    -0.284 N 
ATOM     30  C   UNL     1       8.459   0.125   2.688  0.00  0.00    +0.225 C 
ATOM     31  O   UNL     1       9.392  -0.536   2.270  0.00  0.00    -0.275 OA
ATOM     32  O   UNL     1       7.033   5.546   4.943  0.00  0.00    -0.453 OA
ATOM     33  C   UNL     1       5.680   6.035   4.920  0.00  0.00    +0.466 C 
ATOM     34  O   UNL     1       4.880   4.852   5.090  0.00  0.00    -0.453 OA
ATOM     35  H   UNL     1       9.558   1.723   3.070  0.00  0.00    +0.155 HD
ENDBRANCH  20  21
ENDBRANCH   1  20
TORSDOF 7
