REMARK  Name = ZINC18011179
REMARK  5 active torsions:
REMARK  status: ('A' for Active; 'I' for Inactive)
REMARK    1  A    between atoms: C_6  and  C_7
REMARK    2  A    between atoms: N_8  and  N_9
REMARK    3  A    between atoms: C_10  and  S_12
REMARK    4  A    between atoms: S_12  and  C_13
REMARK    5  A    between atoms: N_18  and  C_21
REMARK                            x       y       z     vdW  Elec       q    Type
REMARK                         _______ _______ _______ _____ _____    ______ ____
ROOT
ATOM      1  N   UNL     1      -3.338  -2.574  -0.319  0.00  0.00    -0.217 N 
ATOM      2  C   UNL     1      -3.054  -3.921  -0.269  0.00  0.00    +0.146 C 
ATOM      3  N   UNL     1      -1.818  -4.330  -0.355  0.00  0.00    -0.380 N 
ATOM      4  H   UNL     1      -1.618  -5.278  -0.320  0.00  0.00    +0.158 HD
ATOM      5  H   UNL     1      -4.257  -2.270  -0.254  0.00  0.00    +0.176 HD
ATOM      6  H   UNL     1      -1.099  -3.686  -0.455  0.00  0.00    +0.158 HD
ENDROOT
BRANCH   1   8
ATOM      7  C   UNL     1      -2.568  -0.375  -0.509  0.00  0.00    +0.138 C 
ATOM      8  N   UNL     1      -2.300  -1.644  -0.462  0.00  0.00    -0.188 NA
BRANCH   7  14
ATOM      9  C   UNL     1      -1.761   1.971  -0.711  0.00  0.00    +0.011 A 
ATOM     10  C   UNL     1      -0.735   2.881  -0.852  0.00  0.00    +0.020 A 
ATOM     11  C   UNL     1       0.576   2.443  -0.943  0.00  0.00    +0.041 A 
ATOM     12  C   UNL     1       0.865   1.090  -0.894  0.00  0.00    +0.020 A 
ATOM     13  C   UNL     1      -0.151   0.169  -0.754  0.00  0.00    +0.011 A 
ATOM     14  C   UNL     1      -1.476   0.604  -0.660  0.00  0.00    -0.005 A 
ATOM     15 CL   UNL     1       1.862   3.596  -1.121  0.00  0.00    -0.084 Cl
ENDBRANCH   7  14
ENDBRANCH   1   8
BRANCH   2  16
ATOM     16  S   UNL     1      -4.359  -5.090  -0.088  0.00  0.00    -0.078 S 
BRANCH  16  17
ATOM     17  C   UNL     1      -3.512  -6.694  -0.074  0.00  0.00    +0.149 C 
ATOM     18  C   UNL     1      -4.520  -7.839   0.151  0.00  0.00    +0.120 C 
ATOM     19  C   UNL     1      -4.399  -8.671  -1.107  0.00  0.00    +0.228 C 
ATOM     20  O   UNL     1      -5.027  -9.680  -1.344  0.00  0.00    -0.275 OA
ATOM     21  N   UNL     1      -3.489  -8.116  -1.916  0.00  0.00    -0.209 N 
ATOM     22  C   UNL     1      -2.923  -6.998  -1.434  0.00  0.00    +0.240 C 
ATOM     23  O   UNL     1      -2.078  -6.336  -1.997  0.00  0.00    -0.274 OA
BRANCH  21  24
ATOM     24  C   UNL     1      -3.153  -8.658  -3.165  0.00  0.00    +0.044 A 
ATOM     25  C   UNL     1      -1.889  -9.194  -3.372  0.00  0.00    +0.025 A 
ATOM     26  C   UNL     1      -1.560  -9.727  -4.603  0.00  0.00    +0.017 A 
ATOM     27  C   UNL     1      -2.489  -9.728  -5.629  0.00  0.00    +0.018 A 
ATOM     28  C   UNL     1      -3.749  -9.194  -5.424  0.00  0.00    +0.017 A 
ATOM     29  C   UNL     1      -4.085  -8.665  -4.194  0.00  0.00    +0.025 A 
ATOM     30 BR   UNL     1      -2.034 -10.458  -7.313  0.00  0.00    -0.050 Br
ENDBRANCH  21  24
ENDBRANCH  16  17
ENDBRANCH   2  16
TORSDOF 5
