REMARK  Name = ZINC09160081
REMARK  5 active torsions:
REMARK  status: ('A' for Active; 'I' for Inactive)
REMARK    1  A    between atoms: C_4  and  C_7
REMARK    2  A    between atoms: C_14  and  N_36
REMARK    3  A    between atoms: C_15  and  C_34
REMARK    4  A    between atoms: N_23  and  C_26
REMARK    5  A    between atoms: C_26  and  C_27
REMARK                            x       y       z     vdW  Elec       q    Type
REMARK                         _______ _______ _______ _____ _____    ______ ____
ROOT
ATOM      1  C   UNL     1       3.173  -1.768  -1.456  0.00  0.00    +0.101 A 
ATOM      2  C   UNL     1       3.200  -3.117  -1.090  0.00  0.00    +0.066 A 
ATOM      3  C   UNL     1       4.057  -3.767  -1.933  0.00  0.00    +0.224 A 
ATOM      4  N   UNL     1       4.551  -2.856  -2.796  0.00  0.00    -0.246 N 
ATOM      5  H   UNL     1       5.185  -3.032  -3.509  0.00  0.00    +0.192 HD
ATOM      6  N   UNL     1       3.982  -1.611  -2.486  0.00  0.00    -0.171 NA
ATOM      7  O   UNL     1       4.305  -5.097  -1.839  0.00  0.00    -0.423 OA
ATOM      8  C   UNL     1       3.489  -5.839  -1.063  0.00  0.00    +0.201 C 
ATOM      9  C   UNL     1       2.607  -5.311  -0.181  0.00  0.00    +0.110 C 
ATOM     10  C   UNL     1       2.463  -3.827   0.011  0.00  0.00    +0.145 C 
ATOM     11  C   UNL     1       2.957  -3.402   1.357  0.00  0.00    -0.001 A 
ATOM     12  C   UNL     1       4.198  -3.496   1.948  0.00  0.00    +0.007 A 
ATOM     13  C   UNL     1       4.322  -2.992   3.238  0.00  0.00    +0.000 A 
ATOM     14  C   UNL     1       3.249  -2.425   3.895  0.00  0.00    +0.002 A 
ATOM     15  C   UNL     1       1.998  -2.328   3.307  0.00  0.00    +0.024 A 
ATOM     16  C   UNL     1       1.859  -2.830   2.012  0.00  0.00    +0.041 A 
ATOM     17  N   UNL     1       0.741  -2.866   1.199  0.00  0.00    -0.265 N 
ATOM     18  C   UNL     1       1.002  -3.436   0.003  0.00  0.00    +0.241 C 
ATOM     19  O   UNL     1       0.215  -3.602  -0.905  0.00  0.00    -0.274 OA
ENDROOT
BRANCH   1  23
ATOM     20  C   UNL     1       0.876   1.286   0.409  0.00  0.00    +0.000 A 
ATOM     21  C   UNL     1       1.594   0.394   1.184  0.00  0.00    +0.001 A 
ATOM     22  C   UNL     1       2.341  -0.600   0.584  0.00  0.00    +0.010 A 
ATOM     23  C   UNL     1       2.371  -0.703  -0.805  0.00  0.00    +0.003 A 
ATOM     24  C   UNL     1       1.646   0.199  -1.581  0.00  0.00    +0.010 A 
ATOM     25  C   UNL     1       0.902   1.188  -0.971  0.00  0.00    +0.001 A 
ENDBRANCH   1  23
BRANCH   8  26
ATOM     26  N   UNL     1       3.555  -7.205  -1.174  0.00  0.00    -0.328 N 
ATOM     27  H   UNL     1       4.177  -7.612  -1.798  0.00  0.00    +0.145 HD
ATOM     28  H   UNL     1       2.980  -7.765  -0.629  0.00  0.00    +0.145 HD
ENDBRANCH   8  26
BRANCH   9  29
ATOM     29  C   UNL     1       1.786  -6.194   0.592  0.00  0.00    +0.102 C 
ATOM     30  N   UNL     1       1.135  -6.894   1.205  0.00  0.00    -0.191 NA
ENDBRANCH   9  29
BRANCH  17  31
ATOM     31  C   UNL     1      -0.573  -2.346   1.588  0.00  0.00    +0.148 C 
BRANCH  31  32
ATOM     32  C   UNL     1      -0.944  -1.194   0.691  0.00  0.00    -0.030 A 
ATOM     33  C   UNL     1      -1.173   0.057   1.232  0.00  0.00    +0.008 A 
ATOM     34  C   UNL     1      -1.513   1.115   0.410  0.00  0.00    +0.038 A 
ATOM     35  C   UNL     1      -1.624   0.921  -0.956  0.00  0.00    +0.123 A 
ATOM     36  C   UNL     1      -1.394  -0.333  -1.497  0.00  0.00    +0.038 A 
ATOM     37  C   UNL     1      -1.049  -1.387  -0.674  0.00  0.00    +0.008 A 
ATOM     38  F   UNL     1      -1.956   1.954  -1.761  0.00  0.00    -0.205 F 
ENDBRANCH  31  32
ENDBRANCH  17  31
TORSDOF 5
