REMARK  Name = ZINC65464983
REMARK  8 active torsions:
REMARK  status: ('A' for Active; 'I' for Inactive)
REMARK    1  A    between atoms: C_1  and  C_2
REMARK    2  A    between atoms: C_2  and  O_3
REMARK    3  A    between atoms: O_3  and  C_4
REMARK    4  A    between atoms: C_7  and  N_11
REMARK    5  A    between atoms: C_8  and  C_10
REMARK    6  A    between atoms: C_16  and  C_22
REMARK    7  A    between atoms: C_18  and  C_20
REMARK    8  A    between atoms: C_18  and  C_21
REMARK                            x       y       z     vdW  Elec       q    Type
REMARK                         _______ _______ _______ _____ _____    ______ ____
ROOT
ATOM      1  N   UNL     1      -1.989  -5.989  -0.021  0.00  0.00    -0.269 N 
ATOM      2  C   UNL     1      -0.914  -6.796  -0.123  0.00  0.00    +0.307 C 
ATOM      3  O   UNL     1       0.205  -6.320  -0.117  0.00  0.00    -0.252 OA
ATOM      4  N   UNL     1      -1.079  -8.129  -0.230  0.00  0.00    -0.280 N 
ATOM      5  C   UNL     1      -2.422  -8.719  -0.344  0.00  0.00    +0.140 C 
ATOM      6  C   UNL     1      -2.430  -9.674  -1.544  0.00  0.00    +0.133 C 
ATOM      7  O   UNL     1      -1.342 -10.592  -1.422  0.00  0.00    -0.368 OA
ATOM      8  C   UNL     1      -0.052  -9.976  -1.442  0.00  0.00    +0.080 C 
ATOM      9  C   UNL     1       0.079  -9.037  -0.244  0.00  0.00    +0.143 C 
ATOM     10  C   UNL     1       0.112  -9.175  -2.735  0.00  0.00    +0.043 C 
ATOM     11  C   UNL     1       1.031 -11.055  -1.369  0.00  0.00    +0.043 C 
ATOM     12  C   UNL     1      -3.751 -10.447  -1.572  0.00  0.00    +0.039 C 
ATOM     13  H   UNL     1      -2.880  -6.371   0.012  0.00  0.00    +0.156 HD
ENDROOT
BRANCH   1  17
ATOM     14  C   UNL     1      -1.485  -1.853   0.151  0.00  0.00    +0.121 A 
ATOM     15  C   UNL     1      -0.447  -2.695   0.524  0.00  0.00    +0.047 A 
ATOM     16  C   UNL     1      -0.613  -4.064   0.467  0.00  0.00    +0.027 A 
ATOM     17  C   UNL     1      -1.820  -4.599   0.037  0.00  0.00    +0.038 A 
ATOM     18  C   UNL     1      -2.858  -3.757  -0.336  0.00  0.00    -0.026 A 
ATOM     19  C   UNL     1      -2.692  -2.387  -0.274  0.00  0.00    +0.050 A 
ATOM     20  C   UNL     1      -4.168  -4.337  -0.802  0.00  0.00    +0.046 C 
BRANCH  14  21
ATOM     21  O   UNL     1      -1.320  -0.505   0.206  0.00  0.00    -0.492 OA
BRANCH  21  23
ATOM     22  C   UNL     1      -0.055   1.506   0.649  0.00  0.00    +0.048 C 
ATOM     23  C   UNL     1      -0.051  -0.024   0.653  0.00  0.00    +0.225 C 
ENDBRANCH  21  23
ENDBRANCH  14  21
ENDBRANCH   1  17
TORSDOF 3
