REMARK  Name = ZINC41022909
REMARK  12 active torsions:
REMARK  status: ('A' for Active; 'I' for Inactive)
REMARK    1  A    between atoms: C_1  and  C_2
REMARK    2  A    between atoms: C_2  and  C_3
REMARK    3  A    between atoms: C_3  and  C_4
REMARK    4  A    between atoms: C_4  and  S_5
REMARK    5  A    between atoms: S_5  and  C_6
REMARK    6  A    between atoms: C_11  and  C_29
REMARK    7  A    between atoms: C_13  and  C_17
REMARK    8  A    between atoms: C_14  and  C_16
REMARK    9  A    between atoms: N_19  and  C_20
REMARK   10  A    between atoms: C_25  and  O_26
REMARK   11  A    between atoms: O_26  and  C_27
REMARK   12  A    between atoms: C_27  and  C_28
REMARK                            x       y       z     vdW  Elec       q    Type
REMARK                         _______ _______ _______ _____ _____    ______ ____
ROOT
ATOM      1  C   UNL     1       1.681  -4.647   0.989  0.00  0.00    +0.210 A 
ATOM      2  N   UNL     1       0.801  -5.428   0.346  0.00  0.00    -0.187 NA
ATOM      3  C   UNL     1       0.870  -6.643   0.818  0.00  0.00    +0.219 A 
ATOM      4  N   UNL     1       1.811  -6.663   1.794  0.00  0.00    -0.220 N 
ATOM      5  N   UNL     1       2.325  -5.370   1.880  0.00  0.00    -0.141 NA
ATOM      6  C   UNL     1       2.156  -7.858   2.559  0.00  0.00    +0.178 C 
ATOM      7  C   UNL     1       1.546  -9.068   1.902  0.00  0.00    +0.060 C 
ATOM      8  C   UNL     1       0.620  -8.986   0.935  0.00  0.00    +0.018 C 
ATOM      9  N   UNL     1       0.162  -7.782   0.460  0.00  0.00    -0.287 N 
ATOM     10  C   UNL     1       0.064 -10.259   0.351  0.00  0.00    +0.061 C 
ATOM     11  H   UNL     1      -0.626  -7.729  -0.104  0.00  0.00    +0.155 HD
ENDROOT
BRANCH   6  12
ATOM     12  C   UNL     1       1.625  -7.728   3.963  0.00  0.00    -0.011 A 
ATOM     13  C   UNL     1       0.306  -7.468   4.174  0.00  0.00    +0.007 A 
ATOM     14  C   UNL     1      -0.203  -7.344   5.465  0.00  0.00    +0.001 A 
ATOM     15  C   UNL     1       0.604  -7.478   6.553  0.00  0.00    +0.008 A 
ATOM     16  C   UNL     1       1.972  -7.745   6.374  0.00  0.00    -0.018 A 
ATOM     17  C   UNL     1       2.489  -7.878   5.061  0.00  0.00    -0.012 A 
ATOM     18  C   UNL     1       3.856  -8.152   4.883  0.00  0.00    +0.009 A 
ATOM     19  C   UNL     1       4.662  -8.291   5.971  0.00  0.00    +0.001 A 
ATOM     20  C   UNL     1       4.152  -8.167   7.262  0.00  0.00    +0.001 A 
ATOM     21  C   UNL     1       2.837  -7.889   7.473  0.00  0.00    +0.008 A 
ENDBRANCH   6  12
BRANCH   7  22
ATOM     22  C   UNL     1       1.970 -10.350   2.324  0.00  0.00    +0.248 C 
ATOM     23  O   UNL     1       3.012 -10.817   1.901  0.00  0.00    -0.270 OA
ATOM     24  N   UNL     1       1.219 -11.055   3.193  0.00  0.00    -0.279 N 
ATOM     25  H   UNL     1       0.433 -10.652   3.593  0.00  0.00    +0.155 HD
BRANCH  24  26
ATOM     26  C   UNL     1       1.575 -12.370   3.519  0.00  0.00    +0.076 A 
ATOM     27  C   UNL     1       2.910 -12.745   3.537  0.00  0.00    +0.027 A 
ATOM     28  C   UNL     1       3.259 -14.043   3.860  0.00  0.00    +0.002 A 
ATOM     29  C   UNL     1       2.279 -14.970   4.165  0.00  0.00    +0.004 A 
ATOM     30  C   UNL     1       0.946 -14.604   4.149  0.00  0.00    +0.047 A 
ATOM     31  C   UNL     1       0.589 -13.303   3.832  0.00  0.00    +0.142 A 
BRANCH  31  32
ATOM     32  O   UNL     1      -0.722 -12.940   3.822  0.00  0.00    -0.490 OA
BRANCH  32  33
ATOM     33  C   UNL     1      -1.672 -13.927   4.227  0.00  0.00    +0.226 C 
ATOM     34  C   UNL     1      -3.087 -13.364   4.080  0.00  0.00    +0.048 C 
ENDBRANCH  32  33
ENDBRANCH  31  32
ENDBRANCH  24  26
ENDBRANCH   7  22
BRANCH   1  35
ATOM     35  S   UNL     1       1.940  -2.931   0.684  0.00  0.00    -0.084 S 
BRANCH  35  36
ATOM     36  C   UNL     1       0.763  -2.538  -0.639  0.00  0.00    +0.077 C 
BRANCH  36  37
ATOM     37  C   UNL     1       0.884  -1.057  -1.006  0.00  0.00    +0.011 C 
BRANCH  37  39
ATOM     38  C   UNL     1       0.011   0.755  -2.488  0.00  0.00    +0.004 C 
ATOM     39  C   UNL     1      -0.109  -0.726  -2.121  0.00  0.00    -0.003 C 
ENDBRANCH  37  39
ENDBRANCH  36  37
ENDBRANCH  35  36
ENDBRANCH   1  35
TORSDOF 9
