REMARK  Name = ZINC35057010
REMARK  10 active torsions:
REMARK  status: ('A' for Active; 'I' for Inactive)
REMARK    1  A    between atoms: C_1  and  C_2
REMARK    2  A    between atoms: C_6  and  O_8
REMARK    3  A    between atoms: O_8  and  C_9
REMARK    4  A    between atoms: C_11  and  N_38
REMARK    5  A    between atoms: C_13  and  O_31
REMARK    6  A    between atoms: C_22  and  C_25
REMARK    7  A    between atoms: O_31  and  C_32
REMARK    8  A    between atoms: C_32  and  C_34
REMARK    9  A    between atoms: C_32  and  C_35
REMARK   10  A    between atoms: C_39  and  C_41
REMARK                            x       y       z     vdW  Elec       q    Type
REMARK                         _______ _______ _______ _____ _____    ______ ____
ROOT
ATOM      1  C   UNL     1       0.015  -4.199   2.170  0.00  0.00    +0.331 C 
ATOM      2  C   UNL     1       0.120  -4.783   3.579  0.00  0.00    +0.173 C 
ATOM      3  C   UNL     1      -1.064  -4.303   4.427  0.00  0.00    +0.177 C 
ATOM      4  C   UNL     1      -2.359  -4.696   3.717  0.00  0.00    +0.183 C 
ATOM      5  C   UNL     1      -2.363  -4.062   2.320  0.00  0.00    +0.179 C 
ATOM      6  O   UNL     1      -1.244  -4.552   1.588  0.00  0.00    -0.332 OA
ATOM      7  C   UNL     1      -3.679  -4.423   1.629  0.00  0.00    +0.197 C 
ATOM      8  O   UNL     1      -4.760  -3.996   2.467  0.00  0.00    -0.345 OA
ATOM      9  C   UNL     1      -4.739  -4.548   3.784  0.00  0.00    +0.282 C 
ATOM     10  O   UNL     1      -3.502  -4.229   4.432  0.00  0.00    -0.339 OA
ENDROOT
BRANCH   9  11
ATOM     11  C   UNL     1      -5.881  -3.978   4.584  0.00  0.00    +0.008 A 
ATOM     12  C   UNL     1      -5.626  -3.259   5.737  0.00  0.00    +0.008 A 
ATOM     13  C   UNL     1      -6.674  -2.735   6.471  0.00  0.00    +0.000 A 
ATOM     14  C   UNL     1      -7.977  -2.930   6.052  0.00  0.00    +0.000 A 
ATOM     15  C   UNL     1      -8.232  -3.648   4.898  0.00  0.00    +0.000 A 
ATOM     16  C   UNL     1      -7.183  -4.168   4.162  0.00  0.00    +0.008 A 
ENDBRANCH   9  11
BRANCH   2  17
ATOM     17  N   UNL     1       1.373  -4.341   4.198  0.00  0.00    -0.304 N 
ATOM     18  C   UNL     1       2.508  -5.039   3.994  0.00  0.00    +0.210 C 
ATOM     19  O   UNL     1       2.492  -6.033   3.299  0.00  0.00    -0.276 OA
ATOM     20  C   UNL     1       3.796  -4.584   4.630  0.00  0.00    +0.109 C 
ATOM     21  H   UNL     1       1.385  -3.546   4.754  0.00  0.00    +0.149 HD
ENDBRANCH   2  17
BRANCH   1  22
ATOM     22  O   UNL     1       0.125  -2.776   2.236  0.00  0.00    -0.462 OA
BRANCH  22  28
ATOM     23  C   UNL     1       0.416   1.463  -0.165  0.00  0.00    +0.044 C 
ATOM     24  C   UNL     1       0.302  -0.039  -0.154  0.00  0.00    -0.047 A 
ATOM     25  C   UNL     1       0.234  -0.735  -1.347  0.00  0.00    +0.003 A 
ATOM     26  C   UNL     1       0.129  -2.114  -1.341  0.00  0.00    +0.004 A 
ATOM     27  C   UNL     1       0.092  -2.799  -0.142  0.00  0.00    +0.046 A 
ATOM     28  C   UNL     1       0.161  -2.104   1.056  0.00  0.00    +0.124 A 
ATOM     29  C   UNL     1       0.272  -0.721   1.047  0.00  0.00    +0.049 A 
ENDBRANCH  22  28
ENDBRANCH   1  22
BRANCH   3  30
ATOM     30  O   UNL     1      -1.012  -4.917   5.716  0.00  0.00    -0.358 OA
BRANCH  30  31
ATOM     31  C   UNL     1      -0.442  -4.090   6.732  0.00  0.00    +0.228 C 
ATOM     32  C   UNL     1      -1.552  -3.301   7.430  0.00  0.00    +0.050 C 
BRANCH  31  33
ATOM     33  C   UNL     1       0.270  -4.953   7.742  0.00  0.00    +0.384 C 
ATOM     34  O   UNL     1       0.905  -4.437   8.645  0.00  0.00    -0.243 OA
ATOM     35  O   UNL     1       0.212  -6.168   7.654  0.00  0.00    -0.243 OA
ENDBRANCH  31  33
ENDBRANCH  30  31
ENDBRANCH   3  30
TORSDOF 7
