REMARK  Name = ZINC16450972
REMARK  7 active torsions:
REMARK  status: ('A' for Active; 'I' for Inactive)
REMARK    1  A    between atoms: C_4  and  C_7
REMARK    2  A    between atoms: C_8  and  C_9
REMARK    3  A    between atoms: N_11  and  C_12
REMARK    4  A    between atoms: C_15  and  C_18
REMARK    5  A    between atoms: C_24  and  N_28
REMARK    6  A    between atoms: C_29  and  C_31
REMARK    7  A    between atoms: C_32  and  C_33
REMARK                            x       y       z     vdW  Elec       q    Type
REMARK                         _______ _______ _______ _____ _____    ______ ____
ROOT
ATOM      1  C   UNL     1      -2.874   3.427   2.547  0.00  0.00    +0.139 A 
ATOM      2  N   UNL     1      -3.819   4.340   2.930  0.00  0.00    -0.338 N 
ATOM      3  H   UNL     1      -3.711   5.333   2.949  0.00  0.00    +0.167 HD
ATOM      4  C   UNL     1      -4.952   3.630   3.287  0.00  0.00    +0.067 A 
ATOM      5  C   UNL     1      -6.209   3.996   3.747  0.00  0.00    +0.029 A 
ATOM      6  C   UNL     1      -7.148   3.028   4.028  0.00  0.00    +0.025 A 
ATOM      7  C   UNL     1      -6.843   1.679   3.854  0.00  0.00    +0.036 A 
ATOM      8  C   UNL     1      -5.596   1.297   3.397  0.00  0.00    +0.053 A 
ATOM      9  C   UNL     1      -4.636   2.272   3.108  0.00  0.00    +0.091 A 
ATOM     10  N   UNL     1      -3.359   2.213   2.657  0.00  0.00    -0.228 NA
ENDROOT
BRANCH   1  14
ATOM     11  C   UNL     1       1.046   4.380   1.213  0.00  0.00    +0.034 A 
ATOM     12  C   UNL     1       0.642   3.051   1.288  0.00  0.00    +0.024 A 
ATOM     13  C   UNL     1      -0.626   2.739   1.724  0.00  0.00    +0.013 A 
ATOM     14  C   UNL     1      -1.510   3.758   2.086  0.00  0.00    +0.017 A 
ATOM     15  C   UNL     1      -1.100   5.091   2.014  0.00  0.00    +0.013 A 
ATOM     16  C   UNL     1       0.170   5.398   1.577  0.00  0.00    +0.024 A 
BRANCH  11  19
ATOM     17  C   UNL     1       2.539   5.803   0.033  0.00  0.00    +0.241 C 
ATOM     18  O   UNL     1       1.618   6.566  -0.190  0.00  0.00    -0.270 OA
ATOM     19  N   UNL     1       2.332   4.694   0.771  0.00  0.00    -0.282 N 
ATOM     20  H   UNL     1       3.076   4.114   0.995  0.00  0.00    +0.155 HD
BRANCH  17  22
ATOM     21  C   UNL     1       4.050   7.113  -1.358  0.00  0.00    +0.013 C 
ATOM     22  C   UNL     1       3.872   6.088  -0.500  0.00  0.00    +0.068 C 
BRANCH  21  26
ATOM     23  C   UNL     1       0.696   8.935  -3.209  0.00  0.00    +0.000 A 
ATOM     24  C   UNL     1       1.731   9.721  -2.734  0.00  0.00    +0.001 A 
ATOM     25  C   UNL     1       2.825   9.136  -2.131  0.00  0.00    +0.008 A 
ATOM     26  C   UNL     1       2.886   7.745  -2.000  0.00  0.00    -0.025 A 
ATOM     27  C   UNL     1       1.838   6.958  -2.488  0.00  0.00    +0.008 A 
ATOM     28  C   UNL     1       0.749   7.558  -3.083  0.00  0.00    +0.001 A 
ENDBRANCH  21  26
ENDBRANCH  17  22
ENDBRANCH  11  19
ENDBRANCH   1  14
BRANCH   7  29
ATOM     29  N   UNL     1      -7.806   0.705   4.144  0.00  0.00    -0.282 N 
ATOM     30  C   UNL     1      -9.111   0.959   3.919  0.00  0.00    +0.241 C 
ATOM     31  O   UNL     1      -9.443   1.992   3.369  0.00  0.00    -0.270 OA
ATOM     32  H   UNL     1      -7.535  -0.153   4.507  0.00  0.00    +0.155 HD
BRANCH  30  33
ATOM     33  C   UNL     1     -10.127  -0.008   4.337  0.00  0.00    +0.068 C 
ATOM     34  C   UNL     1     -11.432   0.246   4.113  0.00  0.00    +0.013 C 
BRANCH  34  35
ATOM     35  C   UNL     1     -12.454  -0.726   4.533  0.00  0.00    -0.025 A 
ATOM     36  C   UNL     1     -12.076  -1.917   5.161  0.00  0.00    +0.008 A 
ATOM     37  C   UNL     1     -13.040  -2.820   5.557  0.00  0.00    +0.001 A 
ATOM     38  C   UNL     1     -14.378  -2.556   5.324  0.00  0.00    +0.000 A 
ATOM     39  C   UNL     1     -14.760  -1.381   4.698  0.00  0.00    +0.001 A 
ATOM     40  C   UNL     1     -13.809  -0.466   4.302  0.00  0.00    +0.008 A 
ENDBRANCH  34  35
ENDBRANCH  30  33
ENDBRANCH   7  29
TORSDOF 7
