REMARK  Name = ZINC39353840
REMARK  10 active torsions:
REMARK  status: ('A' for Active; 'I' for Inactive)
REMARK    1  A    between atoms: C_1  and  C_2
REMARK    2  A    between atoms: C_2  and  C_4
REMARK    3  A    between atoms: C_2  and  N_27
REMARK    4  A    between atoms: N_11  and  C_14
REMARK    5  A    between atoms: C_14  and  C_15
REMARK    6  A    between atoms: C_24  and  O_25
REMARK    7  A    between atoms: O_25  and  C_26
REMARK    8  A    between atoms: C_28  and  C_30
REMARK    9  A    between atoms: C_30  and  C_31
REMARK   10  A    between atoms: C_30  and  C_32
REMARK                            x       y       z     vdW  Elec       q    Type
REMARK                         _______ _______ _______ _____ _____    ______ ____
ROOT
ATOM      1  C   UNL     1       0.731  -0.503   1.223  0.00  0.00    +0.154 A 
ATOM      2  N   UNL     1       2.026  -0.485   1.421  0.00  0.00    -0.132 NA
ATOM      3  N   UNL     1       2.297  -0.995   2.576  0.00  0.00    -0.134 NA
ATOM      4  C   UNL     1       1.193  -1.356   3.154  0.00  0.00    +0.132 A 
ATOM      5  N   UNL     1       0.177  -1.048   2.321  0.00  0.00    -0.315 N 
ATOM      6  C   UNL     1      -1.249  -1.285   2.615  0.00  0.00    +0.106 C 
ATOM      7  C   UNL     1      -1.435  -2.808   2.721  0.00  0.00    -0.056 C 
ATOM      8  N   UNL     1      -1.017  -3.293   4.016  0.00  0.00    +0.384 N 
ATOM      9  C   UNL     1       0.403  -3.389   4.271  0.00  0.00    -0.071 C 
ATOM     10  C   UNL     1       1.012  -2.005   4.515  0.00  0.00    +0.058 C 
ATOM     11  H   UNL     1      -1.416  -2.686   4.717  0.00  0.00    -0.081 HD
ENDROOT
BRANCH   1  13
ATOM     12  C   UNL     1      -0.019   1.526   0.010  0.00  0.00    +0.036 C 
ATOM     13  C   UNL     1       0.002  -0.004   0.002  0.00  0.00    +0.138 C 
BRANCH  13  14
ATOM     14  N   UNL     1       0.688  -0.476  -1.203  0.00  0.00    -0.306 N 
ATOM     15  C   UNL     1       0.006  -0.608  -2.358  0.00  0.00    +0.216 C 
ATOM     16  O   UNL     1      -1.175  -0.336  -2.400  0.00  0.00    -0.276 OA
ATOM     17  H   UNL     1       1.632  -0.695  -1.170  0.00  0.00    +0.149 HD
BRANCH  15  18
ATOM     18  C   UNL     1       0.712  -1.094  -3.598  0.00  0.00    +0.069 C 
ATOM     19  C   UNL     1      -0.282  -1.153  -4.761  0.00  0.00    +0.017 C 
ATOM     20  C   UNL     1       1.849  -0.133  -3.948  0.00  0.00    +0.017 C 
ENDBRANCH  15  18
ENDBRANCH  13  14
ENDBRANCH   1  13
BRANCH   8  21
ATOM     21  C   UNL     1      -1.598  -4.629   4.205  0.00  0.00    -0.039 C 
BRANCH  21  22
ATOM     22  C   UNL     1      -1.288  -5.121   5.595  0.00  0.00    -0.015 A 
ATOM     23  C   UNL     1      -0.113  -5.851   5.840  0.00  0.00    -0.013 A 
ATOM     24  C   UNL     1       0.795  -6.139   4.806  0.00  0.00    +0.009 A 
ATOM     25  C   UNL     1       1.924  -6.848   5.080  0.00  0.00    +0.001 A 
ATOM     26  C   UNL     1       2.195  -7.295   6.372  0.00  0.00    +0.001 A 
ATOM     27  C   UNL     1       1.339  -7.035   7.397  0.00  0.00    +0.008 A 
ATOM     28  C   UNL     1       0.163  -6.305   7.154  0.00  0.00    -0.017 A 
ATOM     29  C   UNL     1      -0.744  -6.017   8.189  0.00  0.00    +0.012 A 
ATOM     30  C   UNL     1      -1.872  -5.309   7.919  0.00  0.00    +0.046 A 
ATOM     31  C   UNL     1      -2.144  -4.855   6.625  0.00  0.00    +0.122 A 
BRANCH  31  32
ATOM     32  O   UNL     1      -3.278  -4.144   6.387  0.00  0.00    -0.495 OA
ATOM     33  C   UNL     1      -4.135  -3.897   7.504  0.00  0.00    +0.277 C 
ENDBRANCH  31  32
ENDBRANCH  21  22
ENDBRANCH   8  21
TORSDOF 6
