REMARK  Name = ZINC40427290
REMARK  9 active torsions:
REMARK  status: ('A' for Active; 'I' for Inactive)
REMARK    1  A    between atoms: C_1  and  C_2
REMARK    2  A    between atoms: C_2  and  C_3
REMARK    3  A    between atoms: C_2  and  C_4
REMARK    4  A    between atoms: C_2  and  C_5
REMARK    5  A    between atoms: C_8  and  C_11
REMARK    6  A    between atoms: C_19  and  C_21
REMARK    7  A    between atoms: C_21  and  C_22
REMARK    8  A    between atoms: C_22  and  N_23
REMARK    9  A    between atoms: C_31  and  C_33
REMARK                            x       y       z     vdW  Elec       q    Type
REMARK                         _______ _______ _______ _____ _____    ______ ____
ROOT
ATOM      1  C   UNL     1       2.696  -1.860  -4.732  0.00  0.00    +0.247 C 
ATOM      2  O   UNL     1       2.142  -2.644  -5.478  0.00  0.00    -0.270 OA
ATOM      3  N   UNL     1       3.947  -1.440  -5.005  0.00  0.00    -0.295 N 
ATOM      4  C   UNL     1       4.679  -0.600  -4.046  0.00  0.00    +0.127 C 
ATOM      5  C   UNL     1       6.015  -1.278  -3.720  0.00  0.00    +0.126 C 
ATOM      6  N   UNL     1       6.672  -1.652  -4.980  0.00  0.00    -0.299 N 
ATOM      7  C   UNL     1       5.940  -2.492  -5.939  0.00  0.00    +0.126 C 
ATOM      8  C   UNL     1       4.606  -1.818  -6.263  0.00  0.00    +0.127 C 
ATOM      9  C   UNL     1       7.923  -1.231  -5.253  0.00  0.00    +0.214 C 
ATOM     10  O   UNL     1       8.517  -0.538  -4.454  0.00  0.00    -0.276 OA
ENDROOT
BRANCH   1  14
ATOM     11  C   UNL     1       0.687  -0.447  -1.267  0.00  0.00    -0.042 A 
ATOM     12  C   UNL     1       0.598  -1.782  -1.618  0.00  0.00    +0.005 A 
ATOM     13  C   UNL     1       1.248  -2.248  -2.743  0.00  0.00    +0.013 A 
ATOM     14  C   UNL     1       1.996  -1.368  -3.526  0.00  0.00    +0.037 A 
ATOM     15  C   UNL     1       2.082  -0.022  -3.166  0.00  0.00    +0.013 A 
ATOM     16  C   UNL     1       1.423   0.431  -2.043  0.00  0.00    +0.005 A 
BRANCH  11  18
ATOM     17  C   UNL     1      -1.034   1.133  -0.437  0.00  0.00    +0.015 C 
ATOM     18  C   UNL     1      -0.025   0.055  -0.037  0.00  0.00    -0.013 C 
ATOM     19  C   UNL     1       0.995   0.647   0.937  0.00  0.00    +0.015 C 
ATOM     20  C   UNL     1      -0.760  -1.106   0.636  0.00  0.00    +0.015 C 
ENDBRANCH  11  18
ENDBRANCH   1  14
BRANCH   9  21
ATOM     21  C   UNL     1       8.584  -1.622  -6.549  0.00  0.00    +0.077 C 
BRANCH  21  22
ATOM     22  C   UNL     1       9.989  -1.018  -6.608  0.00  0.00    -0.068 C 
BRANCH  22  23
ATOM     23  N   UNL     1      10.633  -1.399  -7.872  0.00  0.00    +0.388 N 
ATOM     24  C   UNL     1      10.802  -2.858  -7.907  0.00  0.00    -0.072 C 
ATOM     25  C   UNL     1      11.162  -3.282  -9.342  0.00  0.00    +0.024 C 
ATOM     26  C   UNL     1      12.244  -2.371  -9.823  0.00  0.00    -0.010 A 
ATOM     27  C   UNL     1      12.635  -1.202  -9.241  0.00  0.00    -0.047 A 
ATOM     28  C   UNL     1      13.674  -0.515  -9.863  0.00  0.00    +0.010 A 
ATOM     29  C   UNL     1      14.238  -1.015 -10.988  0.00  0.00    +0.045 A 
ATOM     30  S   UNL     1      13.304  -2.520 -11.231  0.00  0.00    -0.101 S 
ATOM     31  C   UNL     1      11.931  -0.721  -7.976  0.00  0.00    -0.006 C 
ATOM     32  H   UNL     1      10.047  -1.115  -8.642  0.00  0.00    -0.080 HD
BRANCH  31  33
ATOM     33  C   UNL     1      11.717   0.769  -8.052  0.00  0.00    -0.057 A 
ATOM     34  C   UNL     1      10.671   1.280  -8.797  0.00  0.00    +0.002 A 
ATOM     35  C   UNL     1      10.475   2.647  -8.867  0.00  0.00    +0.000 A 
ATOM     36  C   UNL     1      11.325   3.502  -8.191  0.00  0.00    +0.000 A 
ATOM     37  C   UNL     1      12.371   2.991  -7.446  0.00  0.00    +0.000 A 
ATOM     38  C   UNL     1      12.564   1.624  -7.372  0.00  0.00    +0.002 A 
ENDBRANCH  31  33
ENDBRANCH  22  23
ENDBRANCH  21  22
ENDBRANCH   9  21
TORSDOF 6
