REMARK  Name = ZINC09504699
REMARK  9 active torsions:
REMARK  status: ('A' for Active; 'I' for Inactive)
REMARK    1  A    between atoms: C_1  and  C_2
REMARK    2  A    between atoms: C_2  and  N_59
REMARK    3  A    between atoms: C_8  and  N_14
REMARK    4  A    between atoms: C_9  and  C_10
REMARK    5  A    between atoms: C_10  and  O_12
REMARK    6  A    between atoms: O_12  and  C_13
REMARK    7  A    between atoms: C_15  and  C_17
REMARK    8  A    between atoms: N_20  and  S_23
REMARK    9  A    between atoms: S_23  and  C_26
REMARK                            x       y       z     vdW  Elec       q    Type
REMARK                         _______ _______ _______ _____ _____    ______ ____
ROOT
ATOM      1  N   UNL     1      -0.011   0.966   0.007  0.00  0.00    -0.279 N 
ATOM      2  C   UNL     1      -1.187   1.624   0.017  0.00  0.00    +0.221 C 
ATOM      3  O   UNL     1      -1.204   2.836   0.023  0.00  0.00    -0.275 OA
ATOM      4  H   UNL     1       0.002  -0.004   0.002  0.00  0.00    +0.155 HD
ENDROOT
BRANCH   1  10
ATOM      5  C   UNL     1       5.828   3.027  -0.482  0.00  0.00    -0.074 C 
ATOM      6  C   UNL     1       5.042   1.788  -0.041  0.00  0.00    +0.018 C 
ATOM      7  C   UNL     1       3.561   2.148  -0.021  0.00  0.00    -0.025 A 
ATOM      8  C   UNL     1       3.178   3.445  -0.010  0.00  0.00    -0.021 A 
ATOM      9  S   UNL     1       1.410   3.393  -0.001  0.00  0.00    -0.079 S 
ATOM     10  C   UNL     1       1.180   1.675  -0.000  0.00  0.00    +0.086 A 
ATOM     11  C   UNL     1       2.479   1.181  -0.015  0.00  0.00    +0.091 A 
ATOM     12  C   UNL     1       4.081   4.638  -0.011  0.00  0.00    -0.035 C 
ATOM     13  N   UNL     1       5.441   4.178   0.360  0.00  0.00    +0.383 N 
ATOM     14  H   UNL     1       5.439   3.886   1.344  0.00  0.00    -0.081 HD
BRANCH  13  16
ATOM     15  C   UNL     1       6.522   5.670  -1.288  0.00  0.00    -0.017 C 
ATOM     16  C   UNL     1       6.412   5.279   0.188  0.00  0.00    -0.082 C 
ENDBRANCH  13  16
BRANCH  11  17
ATOM     17  C   UNL     1       2.745  -0.259  -0.024  0.00  0.00    +0.342 C 
ATOM     18  O   UNL     1       2.845  -0.852  -1.081  0.00  0.00    -0.245 OA
BRANCH  17  19
ATOM     19  O   UNL     1       2.879  -0.927   1.140  0.00  0.00    -0.464 OA
ATOM     20  C   UNL     1       3.142  -2.353   1.055  0.00  0.00    +0.280 C 
ENDBRANCH  17  19
ENDBRANCH  11  17
ENDBRANCH   1  10
BRANCH   2  21
ATOM     21  C   UNL     1      -2.482   0.853   0.018  0.00  0.00    +0.078 C 
ATOM     22  C   UNL     1      -2.556  -0.023  -1.235  0.00  0.00    +0.030 C 
ATOM     23  C   UNL     1      -3.857  -0.831  -1.212  0.00  0.00    +0.110 C 
ATOM     24  N   UNL     1      -4.987   0.096  -1.056  0.00  0.00    -0.176 NA
ATOM     25  C   UNL     1      -4.972   1.044   0.066  0.00  0.00    +0.110 C 
ATOM     26  C   UNL     1      -3.658   1.831   0.029  0.00  0.00    +0.030 C 
BRANCH  24  27
ATOM     27  S   UNL     1      -6.252   0.072  -2.124  0.00  0.00    +0.067 S 
ATOM     28  O   UNL     1      -6.273  -1.227  -2.700  0.00  0.00    -0.152 OA
ATOM     29  O   UNL     1      -7.371   0.620  -1.441  0.00  0.00    -0.152 OA
BRANCH  27  30
ATOM     30  C   UNL     1      -5.857   1.193  -3.425  0.00  0.00    +0.143 A 
ATOM     31  C   UNL     1      -5.197   0.956  -4.584  0.00  0.00    +0.036 A 
ATOM     32  C   UNL     1      -5.002   2.000  -5.470  0.00  0.00    +0.010 A 
ATOM     33  C   UNL     1      -5.468   3.231  -5.147  0.00  0.00    +0.047 A 
ATOM     34  S   UNL     1      -6.216   2.937  -3.553  0.00  0.00    -0.077 S 
ENDBRANCH  27  30
ENDBRANCH  24  27
ENDBRANCH   2  21
TORSDOF 7
