REMARK  Name = ZINC67061659
REMARK  5 active torsions:
REMARK  status: ('A' for Active; 'I' for Inactive)
REMARK    1  A    between atoms: C_1  and  C_2
REMARK    2  A    between atoms: C_5  and  C_7
REMARK    3  A    between atoms: C_7  and  C_9
REMARK    4  A    between atoms: C_7  and  N_10
REMARK    5  A    between atoms: C_17  and  C_20
REMARK                            x       y       z     vdW  Elec       q    Type
REMARK                         _______ _______ _______ _____ _____    ______ ____
ROOT
ATOM      1  N   UNL     1       2.808  -2.961  -0.918  0.00  0.00    -0.290 N 
ATOM      2  C   UNL     1       3.494  -3.975  -1.482  0.00  0.00    +0.303 C 
ATOM      3  O   UNL     1       3.236  -5.125  -1.181  0.00  0.00    -0.253 OA
ATOM      4  N   UNL     1       4.465  -3.714  -2.380  0.00  0.00    -0.281 N 
ATOM      5  C   UNL     1       4.876  -2.332  -2.671  0.00  0.00    +0.137 C 
ATOM      6  C   UNL     1       6.403  -2.248  -2.559  0.00  0.00    +0.179 C 
ATOM      7  O   UNL     1       6.991  -3.269  -3.368  0.00  0.00    -0.369 OA
ATOM      8  C   UNL     1       6.658  -4.600  -2.965  0.00  0.00    +0.166 C 
ATOM      9  C   UNL     1       5.149  -4.804  -3.093  0.00  0.00    +0.145 C 
ATOM     10  H   UNL     1       3.061  -2.043  -1.102  0.00  0.00    +0.151 HD
ENDROOT
BRANCH   8  11
ATOM     11  C   UNL     1       7.380  -5.588  -3.845  0.00  0.00    -0.016 A 
ATOM     12  C   UNL     1       7.593  -5.297  -5.179  0.00  0.00    +0.009 A 
ATOM     13  C   UNL     1       8.255  -6.201  -5.988  0.00  0.00    +0.040 A 
ATOM     14  C   UNL     1       8.704  -7.400  -5.461  0.00  0.00    +0.142 A 
ATOM     15  C   UNL     1       8.490  -7.691  -4.124  0.00  0.00    +0.076 A 
ATOM     16  C   UNL     1       7.832  -6.782  -3.316  0.00  0.00    +0.029 A 
ATOM     17 CL   UNL     1       9.053  -9.194  -3.461  0.00  0.00    -0.081 Cl
ATOM     18  F   UNL     1       9.351  -8.285  -6.251  0.00  0.00    -0.204 F 
ENDBRANCH   8  11
BRANCH   1  19
ATOM     19  C   UNL     1       1.681  -3.246  -0.025  0.00  0.00    +0.137 C 
ATOM     20  C   UNL     1       2.203  -3.488   1.393  0.00  0.00    +0.036 C 
BRANCH  19  25
ATOM     21  C   UNL     1      -0.034   1.497  -0.008  0.00  0.00    +0.086 C 
ATOM     22  C   UNL     1      -0.009  -0.009  -0.011  0.00  0.00    +0.102 A 
ATOM     23  C   UNL     1      -1.088  -0.814  -0.009  0.00  0.00    +0.045 A 
ATOM     24  C   UNL     1      -0.607  -2.143  -0.014  0.00  0.00    +0.047 A 
ATOM     25  C   UNL     1       0.737  -2.072  -0.019  0.00  0.00    +0.125 A 
ATOM     26  O   UNL     1       1.093  -0.777  -0.024  0.00  0.00    -0.463 OA
ENDBRANCH  19  25
ENDBRANCH   1  19
TORSDOF 3
