REMARK  Name = ZINC09660134
REMARK  8 active torsions:
REMARK  status: ('A' for Active; 'I' for Inactive)
REMARK    1  A    between atoms: C_1  and  C_2
REMARK    2  A    between atoms: C_5  and  S_8
REMARK    3  A    between atoms: S_8  and  C_9
REMARK    4  A    between atoms: C_9  and  C_10
REMARK    5  A    between atoms: C_16  and  C_17
REMARK    6  A    between atoms: C_20  and  O_24
REMARK    7  A    between atoms: C_21  and  O_23
REMARK    8  A    between atoms: O_24  and  C_25
REMARK                            x       y       z     vdW  Elec       q    Type
REMARK                         _______ _______ _______ _____ _____    ______ ____
ROOT
ATOM      1  C   UNL     1       0.267  -6.504   1.873  0.00  0.00    +0.082 C 
ATOM      2  N   UNL     1       0.107  -7.345   0.897  0.00  0.00    -0.174 NA
ATOM      3  N   UNL     1      -0.218  -8.616   1.368  0.00  0.00    -0.132 N 
ATOM      4  C   UNL     1      -0.276  -8.611   2.716  0.00  0.00    +0.274 C 
ATOM      5  O   UNL     1      -0.534  -9.554   3.442  0.00  0.00    -0.268 OA
ATOM      6  C   UNL     1       0.042  -7.234   3.130  0.00  0.00    +0.063 C 
ATOM      7  C   UNL     1       0.113  -6.736   4.419  0.00  0.00    +0.023 C 
ATOM      8  C   UNL     1      -0.450  -9.725   0.567  0.00  0.00    +0.189 A 
ATOM      9  N   UNL     1      -0.766 -10.948   0.925  0.00  0.00    -0.223 NA
ATOM     10  C   UNL     1      -0.964 -11.938   0.029  0.00  0.00    +0.080 A 
ATOM     11  C   UNL     1      -1.305 -13.287   0.280  0.00  0.00    +0.029 A 
ATOM     12  C   UNL     1      -1.470 -14.172  -0.754  0.00  0.00    +0.002 A 
ATOM     13  C   UNL     1      -1.310 -13.780  -2.075  0.00  0.00    +0.001 A 
ATOM     14  C   UNL     1      -0.978 -12.469  -2.358  0.00  0.00    +0.017 A 
ATOM     15  C   UNL     1      -0.810 -11.575  -1.329  0.00  0.00    +0.041 A 
ATOM     16  S   UNL     1      -0.403  -9.850  -1.215  0.00  0.00    -0.050 S 
ENDROOT
BRANCH   7  17
ATOM     17  C   UNL     1       0.020  -7.645   5.560  0.00  0.00    -0.021 A 
ATOM     18  C   UNL     1       0.638  -8.904   5.510  0.00  0.00    +0.012 A 
ATOM     19  C   UNL     1       0.549  -9.756   6.586  0.00  0.00    +0.050 A 
ATOM     20  C   UNL     1      -0.152  -9.375   7.724  0.00  0.00    +0.161 A 
ATOM     21  C   UNL     1      -0.770  -8.125   7.783  0.00  0.00    +0.159 A 
ATOM     22  C   UNL     1      -0.683  -7.260   6.712  0.00  0.00    +0.057 A 
BRANCH  21  23
ATOM     23  O   UNL     1      -1.455  -7.757   8.899  0.00  0.00    -0.503 OA
ATOM     24  H   UNL     1      -0.915  -7.302   9.560  0.00  0.00    +0.292 HD
ENDBRANCH  21  23
BRANCH  20  25
ATOM     25  O   UNL     1      -0.236 -10.221   8.782  0.00  0.00    -0.491 OA
ATOM     26  C   UNL     1       0.419 -11.485   8.655  0.00  0.00    +0.277 C 
ENDBRANCH  20  25
ENDBRANCH   7  17
BRANCH   1  27
ATOM     27  C   UNL     1       0.623  -5.045   1.742  0.00  0.00    +0.132 C 
BRANCH  27  28
ATOM     28  S   UNL     1       0.793  -4.620  -0.013  0.00  0.00    -0.119 S 
BRANCH  28  33
ATOM     29  C   UNL     1       2.204   1.249   0.038  0.00  0.00    +0.044 C 
ATOM     30  C   UNL     1       1.853  -0.216   0.025  0.00  0.00    -0.050 A 
ATOM     31  C   UNL     1       1.738  -0.888  -1.179  0.00  0.00    +0.004 A 
ATOM     32  C   UNL     1       1.415  -2.230  -1.194  0.00  0.00    +0.015 A 
ATOM     33  C   UNL     1       1.206  -2.907   0.002  0.00  0.00    +0.008 A 
ATOM     34  C   UNL     1       1.323  -2.229   1.209  0.00  0.00    +0.015 A 
ATOM     35  C   UNL     1       1.651  -0.888   1.217  0.00  0.00    +0.004 A 
ENDBRANCH  28  33
ENDBRANCH  27  28
ENDBRANCH   1  27
TORSDOF 6
