REMARK  Name = ZINC63478737
REMARK  4 active torsions:
REMARK  status: ('A' for Active; 'I' for Inactive)
REMARK    1  A    between atoms: C_1  and  C_2
REMARK    2  A    between atoms: C_2  and  N_3
REMARK    3  A    between atoms: C_16  and  C_18
REMARK    4  A    between atoms: N_24  and  C_27
REMARK                            x       y       z     vdW  Elec       q    Type
REMARK                         _______ _______ _______ _____ _____    ______ ____
ROOT
ATOM      1  N   UNL     1      -1.951  -1.444  -0.468  0.00  0.00    +0.386 N 
ATOM      2  C   UNL     1      -2.279  -0.537   0.634  0.00  0.00    -0.073 C 
ATOM      3  C   UNL     1      -3.725  -0.770   1.108  0.00  0.00    +0.015 C 
ATOM      4  C   UNL     1      -3.852  -2.255   1.346  0.00  0.00    -0.041 C 
ATOM      5  C   UNL     1      -4.323  -2.962   2.363  0.00  0.00    -0.001 A 
ATOM      6  C   UNL     1      -5.033  -2.565   3.590  0.00  0.00    +0.010 A 
ATOM      7  C   UNL     1      -5.352  -3.569   4.449  0.00  0.00    +0.001 A 
ATOM      8  C   UNL     1      -5.040  -4.912   4.213  0.00  0.00    +0.002 A 
ATOM      9  C   UNL     1      -4.400  -5.368   3.107  0.00  0.00    +0.026 A 
ATOM     10  C   UNL     1      -4.022  -4.407   2.125  0.00  0.00    +0.043 A 
ATOM     11  N   UNL     1      -3.435  -4.566   0.975  0.00  0.00    -0.379 N 
ATOM     12  C   UNL     1      -3.362  -3.266   0.313  0.00  0.00    +0.097 C 
ATOM     13  C   UNL     1      -1.932  -2.851  -0.038  0.00  0.00    -0.000 C 
ATOM     14  H   UNL     1      -3.103  -5.405   0.618  0.00  0.00    +0.160 HD
ATOM     15  H   UNL     1      -2.639  -1.333  -1.198  0.00  0.00    -0.081 HD
ENDROOT
BRANCH  13  16
ATOM     16  C   UNL     1      -1.048  -3.000   1.173  0.00  0.00    +0.071 A 
ATOM     17  H   UNL     1      -0.766  -2.079   4.265  0.00  0.00    +0.173 HD
ATOM     18  C   UNL     1      -1.365  -2.373   2.341  0.00  0.00    +0.259 A 
ATOM     19  N   UNL     1      -0.545  -2.523   3.432  0.00  0.00    -0.274 N 
ATOM     20  C   UNL     1       0.564  -3.281   3.352  0.00  0.00    +0.337 A 
ATOM     21  O   UNL     1       1.278  -3.402   4.328  0.00  0.00    -0.246 OA
ATOM     22  N   UNL     1       0.893  -3.908   2.208  0.00  0.00    -0.229 N 
ATOM     23  C   UNL     1       0.113  -3.791   1.115  0.00  0.00    +0.266 A 
ATOM     24  O   UNL     1       0.413  -4.365   0.082  0.00  0.00    -0.267 OA
ATOM     25  O   UNL     1      -2.476  -1.612   2.425  0.00  0.00    -0.267 OA
BRANCH  22  26
ATOM     26  C   UNL     1       2.054  -4.691   2.153  0.00  0.00    +0.056 A 
ATOM     27  C   UNL     1       3.263  -4.118   1.782  0.00  0.00    +0.026 A 
ATOM     28  C   UNL     1       4.406  -4.892   1.729  0.00  0.00    +0.003 A 
ATOM     29  C   UNL     1       4.347  -6.237   2.044  0.00  0.00    +0.020 A 
ATOM     30  C   UNL     1       3.143  -6.812   2.414  0.00  0.00    +0.043 A 
ATOM     31  C   UNL     1       1.998  -6.040   2.475  0.00  0.00    +0.046 A 
ATOM     32 CL   UNL     1       3.074  -8.501   2.809  0.00  0.00    -0.083 Cl
ENDBRANCH  22  26
ENDBRANCH  13  16
BRANCH   1  34
ATOM     33  C   UNL     1      -0.671   0.331  -1.566  0.00  0.00    -0.017 C 
ATOM     34  C   UNL     1      -0.629  -1.090  -1.002  0.00  0.00    -0.081 C 
ENDBRANCH   1  34
TORSDOF 3
