REMARK  Name = ZINC03913655
REMARK  4 active torsions:
REMARK  status: ('A' for Active; 'I' for Inactive)
REMARK    1  A    between atoms: C_1  and  C_2
REMARK    2  A    between atoms: C_5  and  N_8
REMARK    3  A    between atoms: N_8  and  C_9
REMARK    4  A    between atoms: C_14  and  C_17
REMARK                            x       y       z     vdW  Elec       q    Type
REMARK                         _______ _______ _______ _____ _____    ______ ____
ROOT
ATOM      1  C   UNL     1       0.175  -4.857   1.153  0.00  0.00    +0.171 C 
ATOM      2  N   UNL     1       0.164  -4.183   2.278  0.00  0.00    -0.157 NA
ATOM      3  C   UNL     1       0.192  -4.687   3.488  0.00  0.00    +0.240 C 
ATOM      4  O   UNL     1       0.267  -3.912   4.421  0.00  0.00    -0.274 OA
ATOM      5  C   UNL     1       0.138  -6.151   3.799  0.00  0.00    +0.124 C 
ATOM      6  C   UNL     1       0.888  -6.965   2.752  0.00  0.00    +0.175 C 
ATOM      7  S   UNL     1       0.319  -6.503   1.093  0.00  0.00    -0.076 S 
ENDROOT
BRANCH   6   8
ATOM      8  C   UNL     1       0.627  -8.432   2.976  0.00  0.00    +0.370 C 
ATOM      9  O   UNL     1      -0.260  -8.995   2.358  0.00  0.00    -0.245 OA
ATOM     10  O   UNL     1       1.302  -9.056   3.777  0.00  0.00    -0.245 OA
ENDBRANCH   6   8
BRANCH   1  11
ATOM     11  N   UNL     1       0.057  -4.169  -0.021  0.00  0.00    -0.192 NA
BRANCH  11  16
ATOM     12  C   UNL     1       1.285   1.366  -0.202  0.00  0.00    +0.044 C 
ATOM     13  C   UNL     1       0.958  -0.104  -0.153  0.00  0.00    -0.050 A 
ATOM     14  C   UNL     1       1.557  -0.913   0.795  0.00  0.00    +0.005 A 
ATOM     15  C   UNL     1       1.261  -2.261   0.842  0.00  0.00    +0.025 A 
ATOM     16  C   UNL     1       0.359  -2.804  -0.065  0.00  0.00    +0.056 A 
ATOM     17  C   UNL     1      -0.241  -1.989  -1.016  0.00  0.00    +0.025 A 
ATOM     18  C   UNL     1       0.056  -0.641  -1.054  0.00  0.00    +0.005 A 
ENDBRANCH  11  16
ENDBRANCH   1  11
TORSDOF 3
