REMARK  Name = ZINC06787000
REMARK  10 active torsions:
REMARK  status: ('A' for Active; 'I' for Inactive)
REMARK    1  A    between atoms: C_1  and  C_2
REMARK    2  A    between atoms: C_2  and  O_3
REMARK    3  A    between atoms: O_3  and  C_4
REMARK    4  A    between atoms: C_4  and  C_6
REMARK    5  A    between atoms: C_7  and  C_22
REMARK    6  A    between atoms: C_12  and  C_14
REMARK    7  A    between atoms: C_17  and  O_20
REMARK    8  A    between atoms: O_20  and  C_21
REMARK    9  A    between atoms: C_22  and  N_56
REMARK   10  A    between atoms: C_23  and  N_56
REMARK                            x       y       z     vdW  Elec       q    Type
REMARK                         _______ _______ _______ _____ _____    ______ ____
ROOT
ATOM      1  C   UNL     1      -1.305   2.943  -0.091  0.00  0.00    +0.076 C 
ATOM      2  C   UNL     1      -1.225   1.597  -0.015  0.00  0.00    +0.007 C 
ATOM      3  N   UNL     1      -0.018   0.968   0.098  0.00  0.00    -0.274 N 
ATOM      4  C   UNL     1       1.155   1.613   0.130  0.00  0.00    +0.304 C 
ATOM      5  O   UNL     1       2.179   0.965   0.227  0.00  0.00    -0.252 OA
ATOM      6  N   UNL     1       1.237   2.956   0.059  0.00  0.00    -0.288 N 
ATOM      7  C   UNL     1      -0.011   3.729  -0.059  0.00  0.00    +0.143 C 
ATOM      8  H   UNL     1      -0.010  -0.001   0.153  0.00  0.00    +0.156 HD
ATOM      9  H   UNL     1       2.098   3.403   0.085  0.00  0.00    +0.151 HD
ENDROOT
BRANCH   7  10
ATOM     10  C   UNL     1       0.067   4.547  -1.322  0.00  0.00    -0.022 A 
ATOM     11  C   UNL     1       0.620   4.000  -2.466  0.00  0.00    +0.009 A 
ATOM     12  C   UNL     1       0.687   4.746  -3.627  0.00  0.00    +0.046 A 
ATOM     13  C   UNL     1       0.210   6.049  -3.642  0.00  0.00    +0.120 A 
ATOM     14  C   UNL     1      -0.338   6.597  -2.491  0.00  0.00    +0.046 A 
ATOM     15  C   UNL     1      -0.409   5.845  -1.335  0.00  0.00    +0.009 A 
BRANCH  13  16
ATOM     16  O   UNL     1       0.281   6.786  -4.780  0.00  0.00    -0.495 OA
ATOM     17  C   UNL     1       0.859   6.157  -5.926  0.00  0.00    +0.277 C 
ENDBRANCH  13  16
ENDBRANCH   7  10
BRANCH   1  18
ATOM     18  C   UNL     1      -2.555   3.596  -0.202  0.00  0.00    +0.339 C 
ATOM     19  O   UNL     1      -3.058   4.117   0.776  0.00  0.00    -0.245 OA
BRANCH  18  20
ATOM     20  O   UNL     1      -3.190   3.640  -1.392  0.00  0.00    -0.462 OA
BRANCH  20  22
ATOM     21  C   UNL     1      -5.011   4.264  -2.853  0.00  0.00    +0.048 C 
ATOM     22  C   UNL     1      -4.448   4.316  -1.431  0.00  0.00    +0.229 C 
ENDBRANCH  20  22
ENDBRANCH  18  20
ENDBRANCH   1  18
BRANCH   2  23
ATOM     23  C   UNL     1      -2.488   0.776  -0.049  0.00  0.00    -0.030 C 
BRANCH  23  24
ATOM     24  N   UNL     1      -2.504  -0.037  -1.280  0.00  0.00    +0.384 N 
ATOM     25  H   UNL     1      -1.685  -0.656  -1.287  0.00  0.00    -0.085 HD
ATOM     26  H   UNL     1      -2.470   0.585  -2.096  0.00  0.00    -0.085 HD
BRANCH  24  27
ATOM     27  C   UNL     1      -3.732  -0.852  -1.340  0.00  0.00    -0.071 C 
ATOM     28  C   UNL     1      -3.520  -2.151  -0.560  0.00  0.00    -0.016 C 
ATOM     29  C   UNL     1      -4.791  -3.001  -0.630  0.00  0.00    -0.002 C 
ATOM     30  C   UNL     1      -5.106  -3.328  -2.091  0.00  0.00    -0.000 C 
ATOM     31  C   UNL     1      -5.317  -2.029  -2.871  0.00  0.00    -0.002 C 
ATOM     32  C   UNL     1      -4.046  -1.180  -2.801  0.00  0.00    -0.016 C 
ENDBRANCH  24  27
ENDBRANCH  23  24
ENDBRANCH   2  23
TORSDOF 8
