REMARK  Name = ZINC41643519
REMARK  7 active torsions:
REMARK  status: ('A' for Active; 'I' for Inactive)
REMARK    1  A    between atoms: C_1  and  C_2
REMARK    2  A    between atoms: N_12  and  C_13
REMARK    3  A    between atoms: C_13  and  C_15
REMARK    4  A    between atoms: C_24  and  O_26
REMARK    5  A    between atoms: O_26  and  C_27
REMARK    6  A    between atoms: C_27  and  C_28
REMARK    7  A    between atoms: C_27  and  C_29
REMARK                            x       y       z     vdW  Elec       q    Type
REMARK                         _______ _______ _______ _____ _____    ______ ____
ROOT
ATOM      1  C   UNL     1      -0.256  -2.103  -3.565  0.00  0.00    +0.269 C 
ATOM      2  O   UNL     1      -0.289  -0.886  -3.631  0.00  0.00    -0.268 OA
ENDROOT
BRANCH   1  14
ATOM      3  C   UNL     1      -4.245  -0.336  -1.085  0.00  0.00    +0.063 C 
ATOM      4  C   UNL     1      -3.160  -1.340  -0.792  0.00  0.00    +0.015 A 
ATOM      5  C   UNL     1      -2.197  -1.548  -1.719  0.00  0.00    +0.046 A 
ATOM      6  C   UNL     1      -1.168  -2.482  -1.474  0.00  0.00    +0.068 A 
ATOM      7  C   UNL     1      -1.189  -3.205  -0.192  0.00  0.00    +0.021 A 
ATOM      8  C   UNL     1      -0.209  -4.146   0.131  0.00  0.00    +0.012 A 
ATOM      9  C   UNL     1      -0.265  -4.795   1.332  0.00  0.00    +0.001 A 
ATOM     10  C   UNL     1      -1.287  -4.527   2.233  0.00  0.00    +0.002 A 
ATOM     11  C   UNL     1      -2.263  -3.603   1.935  0.00  0.00    +0.026 A 
ATOM     12  C   UNL     1      -2.227  -2.929   0.718  0.00  0.00    +0.048 A 
ATOM     13  N   UNL     1      -3.184  -1.996   0.391  0.00  0.00    -0.358 N 
ATOM     14  N   UNL     1      -0.206  -2.704  -2.377  0.00  0.00    -0.176 NA
ATOM     15  H   UNL     1      -3.895  -1.807   1.023  0.00  0.00    +0.166 HD
ENDBRANCH   1  14
BRANCH   1  16
ATOM     16  C   UNL     1      -0.272  -2.914  -4.807  0.00  0.00    +0.056 A 
ATOM     17  C   UNL     1      -0.209  -2.320  -6.038  0.00  0.00    +0.105 A 
ATOM     18  C   UNL     1      -0.226  -3.120  -7.202  0.00  0.00    +0.338 A 
ATOM     19  O   UNL     1      -0.170  -2.581  -8.293  0.00  0.00    -0.245 OA
ATOM     20  O   UNL     1      -0.302  -4.458  -7.138  0.00  0.00    -0.422 OA
ATOM     21  C   UNL     1      -0.367  -5.109  -5.957  0.00  0.00    +0.143 A 
ATOM     22  C   UNL     1      -0.349  -4.383  -4.752  0.00  0.00    +0.030 A 
ATOM     23  C   UNL     1      -0.410  -5.054  -3.528  0.00  0.00    +0.016 A 
ATOM     24  C   UNL     1      -0.481  -6.417  -3.504  0.00  0.00    +0.046 A 
ATOM     25  C   UNL     1      -0.493  -7.144  -4.693  0.00  0.00    +0.124 A 
ATOM     26  C   UNL     1      -0.445  -6.493  -5.916  0.00  0.00    +0.092 A 
BRANCH  25  27
ATOM     27  O   UNL     1      -0.563  -8.499  -4.654  0.00  0.00    -0.489 OA
BRANCH  27  28
ATOM     28  C   UNL     1      -0.482  -9.116  -3.368  0.00  0.00    +0.167 C 
ATOM     29  C   UNL     1      -1.893  -9.333  -2.816  0.00  0.00    +0.051 C 
ATOM     30  C   UNL     1       0.230 -10.464  -3.493  0.00  0.00    +0.051 C 
ENDBRANCH  27  28
ENDBRANCH  25  27
ENDBRANCH   1  16
TORSDOF 4
