REMARK  Name = ZINC04045291
REMARK  5 active torsions:
REMARK  status: ('A' for Active; 'I' for Inactive)
REMARK    1  A    between atoms: C_5  and  C_7
REMARK    2  A    between atoms: C_12  and  S_28
REMARK    3  A    between atoms: C_20  and  C_25
REMARK    4  A    between atoms: S_28  and  C_29
REMARK    5  A    between atoms: C_34  and  N_35
REMARK                            x       y       z     vdW  Elec       q    Type
REMARK                         _______ _______ _______ _____ _____    ______ ____
ROOT
ATOM      1  C   UNL     1       1.265   1.711  -0.001  0.00  0.00    +0.106 C 
ATOM      2  C   UNL     1       1.151   3.045   0.711  0.00  0.00    +0.024 C 
ATOM      3  C   UNL     1       2.370   3.958   0.701  0.00  0.00    +0.022 C 
ATOM      4  C   UNL     1       1.797   5.399   0.682  0.00  0.00    +0.070 C 
ATOM      5  C   UNL     1       0.252   5.254   0.577  0.00  0.00    +0.101 C 
ATOM      6  C   UNL     1       0.086   3.874  -0.060  0.00  0.00    +0.045 C 
ATOM      7  C   UNL     1      -1.221   3.184   0.112  0.00  0.00    -0.021 A 
ATOM      8  C   UNL     1      -2.402   3.884   0.172  0.00  0.00    +0.021 A 
ATOM      9  C   UNL     1      -3.613   3.200   0.318  0.00  0.00    +0.064 A 
ATOM     10  C   UNL     1      -3.613   1.804   0.401  0.00  0.00    +0.017 A 
ATOM     11  C   UNL     1      -2.438   1.114   0.347  0.00  0.00    +0.024 A 
ATOM     12  C   UNL     1      -1.225   1.787   0.203  0.00  0.00    +0.031 A 
ATOM     13  N   UNL     1      -0.044   1.047   0.173  0.00  0.00    -0.336 N 
ATOM     14 CL   UNL     1      -0.507   5.299   2.211  0.00  0.00    -0.120 Cl
ATOM     15  H   UNL     1      -0.082   0.082   0.263  0.00  0.00    +0.147 HD
ENDROOT
BRANCH   1  20
ATOM     16  C   UNL     1       3.878   0.475   2.428  0.00  0.00    +0.000 A 
ATOM     17  C   UNL     1       4.358  -0.643   1.772  0.00  0.00    +0.001 A 
ATOM     18  C   UNL     1       3.838  -1.000   0.543  0.00  0.00    +0.020 A 
ATOM     19  C   UNL     1       2.833  -0.241  -0.030  0.00  0.00    +0.046 A 
ATOM     20  C   UNL     1       2.356   0.881   0.625  0.00  0.00    -0.009 A 
ATOM     21  C   UNL     1       2.877   1.237   1.854  0.00  0.00    +0.007 A 
ATOM     22 CL   UNL     1       2.173  -0.693  -1.571  0.00  0.00    -0.083 Cl
ENDBRANCH   1  20
BRANCH   9  23
ATOM     23  C   UNL     1      -4.883   3.946   0.385  0.00  0.00    +0.387 C 
ATOM     24  O   UNL     1      -4.878   5.159   0.313  0.00  0.00    -0.241 OA
ATOM     25  O   UNL     1      -6.047   3.283   0.525  0.00  0.00    -0.241 OA
ENDBRANCH   9  23
BRANCH   4  26
ATOM     26  S   UNL     1       2.238   6.267   2.212  0.00  0.00    -0.118 S 
BRANCH  26  27
ATOM     27  C   UNL     1       1.603   7.893   1.978  0.00  0.00    +0.038 A 
ATOM     28  C   UNL     1       0.943   8.220   0.800  0.00  0.00    +0.017 A 
ATOM     29  C   UNL     1       0.446   9.496   0.620  0.00  0.00    +0.001 A 
ATOM     30  C   UNL     1       0.607  10.448   1.610  0.00  0.00    +0.002 A 
ATOM     31  C   UNL     1       1.263  10.127   2.783  0.00  0.00    +0.034 A 
ATOM     32  C   UNL     1       1.757   8.851   2.973  0.00  0.00    +0.140 A 
BRANCH  32  33
ATOM     33  N   UNL     1       2.454   8.506   4.232  0.00  0.00    +0.058 N 
ATOM     34  O   UNL     1       2.588   9.346   5.104  0.00  0.00    -0.126 OA
ATOM     35  O   UNL     1       2.894   7.382   4.396  0.00  0.00    -0.126 OA
ENDBRANCH  32  33
ENDBRANCH  26  27
ENDBRANCH   4  26
TORSDOF 5
