REMARK  Name = ZINC15956633
REMARK  8 active torsions:
REMARK  status: ('A' for Active; 'I' for Inactive)
REMARK    1  A    between atoms: C_1  and  C_2
REMARK    2  A    between atoms: C_2  and  C_3
REMARK    3  A    between atoms: C_3  and  C_4
REMARK    4  A    between atoms: C_4  and  C_5
REMARK    5  A    between atoms: C_8  and  N_11
REMARK    6  A    between atoms: C_16  and  C_35
REMARK    7  A    between atoms: C_26  and  C_34
REMARK    8  A    between atoms: C_35  and  C_36
REMARK                            x       y       z     vdW  Elec       q    Type
REMARK                         _______ _______ _______ _____ _____    ______ ____
ROOT
ATOM      1  N   UNL     1      -6.737  -4.028   0.045  0.00  0.00    -0.210 N 
ATOM      2  C   UNL     1      -7.375  -4.367   1.171  0.00  0.00    +0.232 C 
ATOM      3  O   UNL     1      -6.907  -4.301   2.288  0.00  0.00    -0.274 OA
ATOM      4  C   UNL     1      -8.769  -4.843   0.835  0.00  0.00    +0.108 C 
ATOM      5  C   UNL     1      -8.883  -6.351   1.145  0.00  0.00    +0.076 C 
ATOM      6  N   UNL     1      -8.405  -7.031  -0.088  0.00  0.00    -0.295 NA
ATOM      7  C   UNL     1      -8.938  -6.204  -1.186  0.00  0.00    +0.136 C 
ATOM      8  C   UNL     1      -8.823  -4.733  -0.714  0.00  0.00    +0.123 C 
ATOM      9  C   UNL     1      -7.459  -4.185  -1.071  0.00  0.00    +0.233 C 
ATOM     10  O   UNL     1      -7.078  -3.930  -2.193  0.00  0.00    -0.274 OA
ATOM     11  C   UNL     1     -10.360  -6.564  -1.509  0.00  0.00    +0.005 A 
ATOM     12  C   UNL     1     -11.526  -6.571  -0.776  0.00  0.00    +0.011 A 
ATOM     13  C   UNL     1     -12.714  -6.964  -1.366  0.00  0.00    -0.049 A 
ATOM     14  C   UNL     1     -12.727  -7.350  -2.694  0.00  0.00    +0.025 A 
ATOM     15  C   UNL     1     -11.562  -7.345  -3.433  0.00  0.00    +0.063 A 
ATOM     16  C   UNL     1     -10.361  -6.951  -2.845  0.00  0.00    +0.057 A 
ATOM     17  N   UNL     1      -9.071  -6.863  -3.375  0.00  0.00    -0.282 N 
ATOM     18  C   UNL     1      -8.177  -6.432  -2.464  0.00  0.00    +0.243 C 
ATOM     19  O   UNL     1      -6.989  -6.261  -2.640  0.00  0.00    -0.273 OA
ATOM     20 CL   UNL     1     -11.591  -7.833  -5.099  0.00  0.00    -0.082 Cl
ATOM     21  C   UNL     1     -13.989  -6.973  -0.564  0.00  0.00    +0.044 C 
ATOM     22  H   UNL     1      -7.397  -7.063  -0.115  0.00  0.00    +0.124 HD
ATOM     23  H   UNL     1      -8.846  -7.085  -4.291  0.00  0.00    +0.155 HD
ENDROOT
BRANCH   1  27
ATOM     24  C   UNL     1      -2.827  -2.583   0.017  0.00  0.00    -0.047 A 
ATOM     25  C   UNL     1      -3.873  -1.751  -0.339  0.00  0.00    +0.005 A 
ATOM     26  C   UNL     1      -5.169  -2.227  -0.331  0.00  0.00    +0.024 A 
ATOM     27  C   UNL     1      -5.422  -3.542   0.035  0.00  0.00    +0.044 A 
ATOM     28  C   UNL     1      -4.370  -4.375   0.391  0.00  0.00    +0.024 A 
ATOM     29  C   UNL     1      -3.075  -3.895   0.376  0.00  0.00    +0.005 A 
BRANCH  24  30
ATOM     30  C   UNL     1      -1.413  -2.061   0.006  0.00  0.00    +0.035 C 
BRANCH  30  31
ATOM     31  C   UNL     1      -0.796  -2.289  -1.375  0.00  0.00    +0.004 C 
BRANCH  31  33
ATOM     32  C   UNL     1       1.257  -1.986  -2.767  0.00  0.00    +0.004 C 
ATOM     33  C   UNL     1       0.639  -1.758  -1.385  0.00  0.00    -0.003 C 
ENDBRANCH  31  33
ENDBRANCH  30  31
ENDBRANCH  24  30
ENDBRANCH   1  27
BRANCH   5  34
ATOM     34  C   UNL     1      -7.995  -6.717   2.336  0.00  0.00    +0.115 C 
BRANCH  34  35
ATOM     35  C   UNL     1      -8.214  -8.164   2.699  0.00  0.00    +0.212 C 
ATOM     36  O   UNL     1      -9.002  -8.835   2.067  0.00  0.00    -0.276 OA
ATOM     37  N   UNL     1      -7.534  -8.711   3.726  0.00  0.00    -0.329 N 
ATOM     38  H   UNL     1      -6.903  -8.174   4.231  0.00  0.00    +0.145 HD
ATOM     39  H   UNL     1      -7.674  -9.642   3.959  0.00  0.00    +0.145 HD
ENDBRANCH  34  35
ENDBRANCH   5  34
TORSDOF 6
