REMARK  Name = ZINC35065787
REMARK  12 active torsions:
REMARK  status: ('A' for Active; 'I' for Inactive)
REMARK    1  A    between atoms: C_1  and  C_2
REMARK    2  A    between atoms: C_2  and  C_3
REMARK    3  A    between atoms: C_3  and  C_4
REMARK    4  A    between atoms: C_4  and  C_5
REMARK    5  A    between atoms: C_5  and  N_6
REMARK    6  A    between atoms: N_6  and  C_7
REMARK    7  A    between atoms: C_7  and  C_9
REMARK    8  A    between atoms: C_7  and  C_10
REMARK    9  A    between atoms: N_20  and  C_21
REMARK   10  A    between atoms: C_26  and  C_27
REMARK   11  A    between atoms: N_30  and  C_31
REMARK   12  A    between atoms: C_36  and  C_37
REMARK                            x       y       z     vdW  Elec       q    Type
REMARK                         _______ _______ _______ _____ _____    ______ ____
ROOT
ATOM      1  C   UNL     1       2.806  -4.943   1.223  0.00  0.00    +0.141 C 
ATOM      2  C   UNL     1       2.598  -4.335  -0.166  0.00  0.00    +0.036 C 
ENDROOT
BRANCH   1   3
ATOM      3  C   UNL     1       3.987  -4.284   1.887  0.00  0.00    +0.138 A 
ATOM      4  N   UNL     1       3.991  -2.990   1.995  0.00  0.00    -0.231 NA
ATOM      5  C   UNL     1       5.020  -2.328   2.581  0.00  0.00    +0.078 A 
ATOM      6  C   UNL     1       5.024  -0.936   2.697  0.00  0.00    +0.028 A 
ATOM      7  C   UNL     1       6.088  -0.305   3.300  0.00  0.00    +0.002 A 
ATOM      8  C   UNL     1       7.161  -1.035   3.795  0.00  0.00    +0.001 A 
ATOM      9  C   UNL     1       7.181  -2.409   3.691  0.00  0.00    +0.015 A 
ATOM     10  C   UNL     1       6.112  -3.067   3.086  0.00  0.00    +0.065 A 
ATOM     11  C   UNL     1       6.078  -4.530   2.948  0.00  0.00    +0.266 A 
ATOM     12  O   UNL     1       6.988  -5.226   3.361  0.00  0.00    -0.267 OA
ATOM     13  N   UNL     1       4.993  -5.075   2.349  0.00  0.00    -0.263 N 
BRANCH  13  14
ATOM     14  C   UNL     1       4.908  -6.465   2.198  0.00  0.00    +0.054 A 
ATOM     15  C   UNL     1       5.322  -7.062   1.014  0.00  0.00    +0.026 A 
ATOM     16  C   UNL     1       5.237  -8.433   0.868  0.00  0.00    +0.002 A 
ATOM     17  C   UNL     1       4.741  -9.210   1.899  0.00  0.00    +0.000 A 
ATOM     18  C   UNL     1       4.328  -8.618   3.078  0.00  0.00    +0.005 A 
ATOM     19  C   UNL     1       4.416  -7.248   3.232  0.00  0.00    -0.026 A 
ATOM     20  C   UNL     1       3.972  -6.605   4.521  0.00  0.00    +0.046 C 
ENDBRANCH  13  14
ENDBRANCH   1   3
BRANCH   1  21
ATOM     21  N   UNL     1       1.606  -4.728   2.035  0.00  0.00    -0.276 N 
ATOM     22  C   UNL     1       0.929  -5.784   2.529  0.00  0.00    +0.307 C 
ATOM     23  O   UNL     1       1.314  -6.914   2.300  0.00  0.00    -0.252 OA
ATOM     24  N   UNL     1      -0.175  -5.586   3.276  0.00  0.00    -0.269 N 
ATOM     25  H   UNL     1      -0.433  -4.687   3.532  0.00  0.00    +0.156 HD
BRANCH  24  26
ATOM     26  C   UNL     1      -0.949  -6.678   3.683  0.00  0.00    +0.038 A 
ATOM     27  C   UNL     1      -0.836  -7.896   3.024  0.00  0.00    +0.023 A 
ATOM     28  C   UNL     1      -1.601  -8.972   3.428  0.00  0.00    +0.002 A 
ATOM     29  C   UNL     1      -2.480  -8.838   4.488  0.00  0.00    +0.000 A 
ATOM     30  C   UNL     1      -2.595  -7.628   5.146  0.00  0.00    +0.005 A 
ATOM     31  C   UNL     1      -1.828  -6.549   4.750  0.00  0.00    -0.029 A 
ATOM     32  C   UNL     1      -1.950  -5.232   5.472  0.00  0.00    +0.045 C 
ENDBRANCH  24  26
BRANCH  21  33
ATOM     33  C   UNL     1       1.143  -3.366   2.311  0.00  0.00    +0.110 C 
BRANCH  33  34
ATOM     34  C   UNL     1       0.168  -2.928   1.216  0.00  0.00    +0.019 C 
BRANCH  34  35
ATOM     35  C   UNL     1      -0.316  -1.505   1.504  0.00  0.00    +0.001 C 
BRANCH  35  37
ATOM     36  C   UNL     1      -1.775   0.356   0.697  0.00  0.00    +0.004 C 
ATOM     37  C   UNL     1      -1.290  -1.067   0.409  0.00  0.00    -0.003 C 
ENDBRANCH  35  37
ENDBRANCH  34  35
ENDBRANCH  33  34
ENDBRANCH  21  33
ENDBRANCH   1  21
TORSDOF 8
