REMARK  Name = ZINC30883119
REMARK  11 active torsions:
REMARK  status: ('A' for Active; 'I' for Inactive)
REMARK    1  A    between atoms: C_1  and  C_2
REMARK    2  A    between atoms: C_5  and  C_8
REMARK    3  A    between atoms: C_11  and  C_13
REMARK    4  A    between atoms: C_13  and  C_14
REMARK    5  A    between atoms: C_17  and  C_32
REMARK    6  A    between atoms: C_19  and  C_24
REMARK    7  A    between atoms: C_22  and  C_23
REMARK    8  A    between atoms: C_24  and  N_25
REMARK    9  A    between atoms: N_28  and  C_31
REMARK   10  A    between atoms: C_32  and  C_33
REMARK   11  A    between atoms: C_32  and  C_34
REMARK                            x       y       z     vdW  Elec       q    Type
REMARK                         _______ _______ _______ _____ _____    ______ ____
ROOT
ATOM      1  C   UNL     1      -1.780  -3.607   1.794  0.00  0.00    +0.024 C 
ATOM      2  C   UNL     1      -2.473  -4.960   1.626  0.00  0.00    +0.012 C 
ATOM      3  C   UNL     1      -3.783  -4.747   0.863  0.00  0.00    -0.003 C 
ATOM      4  C   UNL     1      -4.736  -3.947   1.755  0.00  0.00    -0.002 C 
ATOM      5  C   UNL     1      -4.036  -2.741   2.309  0.00  0.00    -0.026 C 
ATOM      6  C   UNL     1      -2.750  -2.595   2.329  0.00  0.00    -0.073 C 
ATOM      7  C   UNL     1      -2.192  -1.330   2.929  0.00  0.00    +0.039 C 
ENDROOT
BRANCH   3   8
ATOM      8  C   UNL     1      -4.412  -6.099   0.521  0.00  0.00    -0.014 C 
ATOM      9  C   UNL     1      -3.523  -6.835  -0.484  0.00  0.00    +0.007 C 
ATOM     10  C   UNL     1      -4.544  -6.937   1.794  0.00  0.00    +0.007 C 
ENDBRANCH   3   8
BRANCH   1  11
ATOM     11  C   UNL     1      -1.253  -3.135   0.436  0.00  0.00    +0.105 C 
BRANCH  11  15
ATOM     12  C   UNL     1       0.108   0.205   0.784  0.00  0.00    +0.248 A 
ATOM     13  N   UNL     1       1.166  -0.553   0.947  0.00  0.00    -0.107 NA
ATOM     14  N   UNL     1       0.822  -1.789   0.853  0.00  0.00    -0.112 NA
ATOM     15  C   UNL     1      -0.458  -1.868   0.619  0.00  0.00    +0.218 A 
ATOM     16  O   UNL     1      -0.941  -0.614   0.569  0.00  0.00    -0.420 OA
BRANCH  12  21
ATOM     17  C   UNL     1      -0.029   5.957   0.930  0.00  0.00    +0.044 C 
ATOM     18  C   UNL     1       0.007   4.450   0.892  0.00  0.00    -0.050 A 
ATOM     19  C   UNL     1       1.204   3.785   1.089  0.00  0.00    +0.004 A 
ATOM     20  C   UNL     1       1.243   2.406   1.055  0.00  0.00    +0.013 A 
ATOM     21  C   UNL     1       0.073   1.683   0.822  0.00  0.00    +0.038 A 
ATOM     22  C   UNL     1      -1.130   2.361   0.618  0.00  0.00    +0.013 A 
ATOM     23  C   UNL     1      -1.157   3.740   0.660  0.00  0.00    +0.004 A 
ENDBRANCH  12  21
ENDBRANCH  11  15
ENDBRANCH   1  11
BRANCH   4  24
ATOM     24  C   UNL     1      -5.945  -3.499   0.932  0.00  0.00    -0.071 C 
BRANCH  24  25
ATOM     25  N   UNL     1      -6.903  -2.808   1.806  0.00  0.00    +0.382 N 
ATOM     26  C   UNL     1      -7.479  -3.734   2.791  0.00  0.00    -0.063 C 
ATOM     27  C   UNL     1      -8.409  -2.961   3.730  0.00  0.00    +0.065 C 
ATOM     28  N   UNL     1      -9.465  -2.310   2.942  0.00  0.00    -0.309 NA
ATOM     29  C   UNL     1      -8.889  -1.385   1.957  0.00  0.00    +0.065 C 
ATOM     30  C   UNL     1      -7.960  -2.157   1.018  0.00  0.00    -0.063 C 
ATOM     31  C   UNL     1     -10.423  -1.620   3.816  0.00  0.00    +0.104 C 
ATOM     32  H   UNL     1      -6.356  -2.026   2.353  0.00  0.00    -0.082 HD
ENDBRANCH  24  25
ENDBRANCH   4  24
TORSDOF 6
