REMARK  Name = ZINC09720296
REMARK  9 active torsions:
REMARK  status: ('A' for Active; 'I' for Inactive)
REMARK    1  A    between atoms: C_1  and  C_2
REMARK    2  A    between atoms: C_4  and  C_14
REMARK    3  A    between atoms: C_5  and  C_13
REMARK    4  A    between atoms: N_6  and  C_7
REMARK    5  A    between atoms: C_14  and  C_16
REMARK    6  A    between atoms: C_16  and  O_17
REMARK    7  A    between atoms: O_17  and  C_18
REMARK    8  A    between atoms: C_18  and  C_20
REMARK    9  A    between atoms: C_24  and  N_26
REMARK                            x       y       z     vdW  Elec       q    Type
REMARK                         _______ _______ _______ _____ _____    ______ ____
ROOT
ATOM      1  C   UNL     1       7.248   1.386  -0.059  0.00  0.00    +0.202 C 
ATOM      2  O   UNL     1       7.098   0.182  -0.064  0.00  0.00    -0.288 OA
ENDROOT
BRANCH   1   6
ATOM      3  C   UNL     1      11.120   4.698  -0.079  0.00  0.00    +0.064 C 
ATOM      4  C   UNL     1      10.297   3.435  -0.077  0.00  0.00    +0.022 A 
ATOM      5  C   UNL     1       8.954   3.381  -0.065  0.00  0.00    +0.034 A 
ATOM      6  C   UNL     1       8.596   1.956  -0.069  0.00  0.00    +0.042 A 
ATOM      7  C   UNL     1       9.793   1.265  -0.078  0.00  0.00    +0.032 A 
ATOM      8  N   UNL     1      10.797   2.163  -0.089  0.00  0.00    -0.317 N 
ATOM      9  C   UNL     1       9.948  -0.234  -0.080  0.00  0.00    +0.064 C 
BRANCH   8  10
ATOM     10  C   UNL     1      12.160   1.839  -0.103  0.00  0.00    +0.047 A 
ATOM     11  C   UNL     1      12.709   1.185  -1.198  0.00  0.00    +0.026 A 
ATOM     12  C   UNL     1      14.054   0.872  -1.211  0.00  0.00    +0.002 A 
ATOM     13  C   UNL     1      14.852   1.199  -0.131  0.00  0.00    +0.000 A 
ATOM     14  C   UNL     1      14.307   1.846   0.964  0.00  0.00    +0.002 A 
ATOM     15  C   UNL     1      12.964   2.167   0.980  0.00  0.00    +0.026 A 
ENDBRANCH   8  10
ENDBRANCH   1   6
BRANCH   1  16
ATOM     16  C   UNL     1       6.045   2.294  -0.044  0.00  0.00    +0.311 C 
BRANCH  16  17
ATOM     17  O   UNL     1       4.834   1.494  -0.036  0.00  0.00    -0.453 OA
BRANCH  17  18
ATOM     18  C   UNL     1       3.662   2.158  -0.022  0.00  0.00    +0.340 C 
ATOM     19  O   UNL     1       3.652   3.373  -0.016  0.00  0.00    -0.245 OA
BRANCH  18  20
ATOM     20  C   UNL     1       2.389   1.409  -0.014  0.00  0.00    +0.061 A 
ATOM     21  C   UNL     1       2.397   0.012  -0.021  0.00  0.00    +0.015 A 
ATOM     22  C   UNL     1       1.206  -0.684  -0.013  0.00  0.00    +0.003 A 
ATOM     23  C   UNL     1       0.002  -0.004   0.002  0.00  0.00    +0.028 A 
ATOM     24  C   UNL     1      -0.017   1.385   0.010  0.00  0.00    +0.070 A 
ATOM     25  C   UNL     1       1.173   2.094   0.002  0.00  0.00    +0.043 A 
BRANCH  24  26
ATOM     26  N   UNL     1      -1.241   2.070   0.019  0.00  0.00    -0.200 N 
ATOM     27  C   UNL     1      -2.478   1.536   0.116  0.00  0.00    +0.250 A 
ATOM     28  N   UNL     1      -3.331   2.526   0.086  0.00  0.00    -0.116 NA
ATOM     29  N   UNL     1      -2.718   3.650  -0.023  0.00  0.00    -0.023 NA
ATOM     30  N   UNL     1      -1.443   3.458  -0.064  0.00  0.00    -0.039 NA
ENDBRANCH  24  26
ENDBRANCH  18  20
ENDBRANCH  17  18
ENDBRANCH  16  17
ENDBRANCH   1  16
TORSDOF 7
