REMARK  Name = ZINC41027139
REMARK  7 active torsions:
REMARK  status: ('A' for Active; 'I' for Inactive)
REMARK    1  A    between atoms: C_1  and  C_2
REMARK    2  A    between atoms: C_3  and  N_22
REMARK    3  A    between atoms: C_7  and  N_8
REMARK    4  A    between atoms: C_9  and  C_11
REMARK    5  A    between atoms: C_11  and  S_12
REMARK    6  A    between atoms: S_12  and  C_13
REMARK    7  A    between atoms: C_19  and  N_21
REMARK                            x       y       z     vdW  Elec       q    Type
REMARK                         _______ _______ _______ _____ _____    ______ ____
ROOT
ATOM      1  N   UNL     1       0.025  -0.015   2.415  0.00  0.00    -0.285 N 
ATOM      2  C   UNL     1      -0.056  -0.695   3.576  0.00  0.00    +0.227 C 
ATOM      3  O   UNL     1      -0.040  -1.907   3.571  0.00  0.00    -0.275 OA
ATOM      4  H   UNL     1       0.078   0.954   2.423  0.00  0.00    +0.155 HD
ENDROOT
BRANCH   1  11
ATOM      5  C   UNL     1      -1.266   1.183   0.182  0.00  0.00    +0.047 C 
ATOM      6  C   UNL     1      -0.585  -0.158   0.085  0.00  0.00    -0.009 A 
ATOM      7  C   UNL     1      -0.569  -0.844  -1.122  0.00  0.00    +0.029 A 
ATOM      8  C   UNL     1       0.060  -2.080  -1.208  0.00  0.00    +0.023 A 
ATOM      9  C   UNL     1       0.669  -2.626  -0.094  0.00  0.00    +0.004 A 
ATOM     10  C   UNL     1       0.656  -1.945   1.107  0.00  0.00    +0.024 A 
ATOM     11  C   UNL     1       0.033  -0.706   1.199  0.00  0.00    +0.038 A 
BRANCH   7  12
ATOM     12  N   UNL     1      -1.185  -0.293  -2.248  0.00  0.00    -0.358 N 
ATOM     13  H   UNL     1      -1.625   0.569  -2.187  0.00  0.00    +0.142 HD
ATOM     14  H   UNL     1      -1.174  -0.774  -3.090  0.00  0.00    +0.142 HD
ENDBRANCH   7  12
ENDBRANCH   1  11
BRANCH   2  15
ATOM     15  C   UNL     1      -0.168   0.052   4.880  0.00  0.00    +0.173 C 
BRANCH  15  16
ATOM     16  S   UNL     1      -0.259  -1.133   6.250  0.00  0.00    -0.078 S 
BRANCH  16  17
ATOM     17  C   UNL     1      -0.384  -0.118   7.685  0.00  0.00    +0.171 A 
ATOM     18  N   UNL     1      -0.466  -0.704   8.912  0.00  0.00    -0.302 N 
ATOM     19  H   UNL     1      -0.455  -1.671   8.988  0.00  0.00    +0.171 HD
ATOM     20  C   UNL     1      -0.562   0.058  10.022  0.00  0.00    +0.254 A 
ATOM     21  O   UNL     1      -0.636  -0.459  11.125  0.00  0.00    -0.268 OA
ATOM     22  C   UNL     1      -0.576   1.449   9.886  0.00  0.00    +0.113 A 
ATOM     23  C   UNL     1      -0.489   1.997   8.614  0.00  0.00    +0.124 A 
ATOM     24  N   UNL     1      -0.390   1.192   7.550  0.00  0.00    -0.209 NA
BRANCH  23  25
ATOM     25  N   UNL     1      -0.500   3.367   8.447  0.00  0.00    -0.343 N 
ATOM     26  H   UNL     1      -0.568   3.949   9.220  0.00  0.00    +0.144 HD
ATOM     27  H   UNL     1      -0.440   3.748   7.557  0.00  0.00    +0.144 HD
ENDBRANCH  23  25
ENDBRANCH  16  17
ENDBRANCH  15  16
ENDBRANCH   2  15
TORSDOF 6
