REMARK  Name = ZINC13064788
REMARK  17 active torsions:
REMARK  status: ('A' for Active; 'I' for Inactive)
REMARK    1  A    between atoms: C_1  and  C_2
REMARK    2  A    between atoms: C_2  and  C_3
REMARK    3  A    between atoms: C_3  and  C_5
REMARK    4  A    between atoms: C_3  and  N_75
REMARK    5  A    between atoms: N_9  and  C_10
REMARK    6  A    between atoms: C_10  and  C_11
REMARK    7  A    between atoms: C_10  and  C_12
REMARK    8  A    between atoms: C_10  and  C_13
REMARK    9  A    between atoms: C_13  and  C_14
REMARK   10  A    between atoms: C_15  and  C_16
REMARK   11  A    between atoms: C_15  and  N_75
REMARK   12  A    between atoms: C_19  and  O_22
REMARK   13  A    between atoms: O_22  and  C_23
REMARK   14  A    between atoms: C_24  and  C_25
REMARK   15  A    between atoms: C_24  and  N_75
REMARK   16  A    between atoms: C_28  and  C_38
REMARK   17  A    between atoms: C_30  and  C_37
REMARK                            x       y       z     vdW  Elec       q    Type
REMARK                         _______ _______ _______ _____ _____    ______ ____
ROOT
ATOM      1  N   UNL     1       0.734  -1.032   4.088  0.00  0.00    +0.392 N 
ATOM      2  H   UNL     1      -0.001  -1.726   3.909  0.00  0.00    -0.080 HD
ENDROOT
BRANCH   1   3
ATOM      3  C   UNL     1       0.861  -0.151   2.908  0.00  0.00    +0.003 C 
BRANCH   3   4
ATOM      4  C   UNL     1      -0.511   0.079   2.329  0.00  0.00    +0.139 A 
ATOM      5  N   UNL     1      -1.627   0.237   2.998  0.00  0.00    -0.115 NA
ATOM      6  N   UNL     1      -2.581   0.403   2.149  0.00  0.00    -0.023 NA
ATOM      7  N   UNL     1      -2.102   0.359   0.954  0.00  0.00    -0.043 NA
ATOM      8  N   UNL     1      -0.829   0.164   1.024  0.00  0.00    -0.225 N 
BRANCH   8   9
ATOM      9  C   UNL     1       0.097   0.051  -0.106  0.00  0.00    +0.061 C 
ATOM     10  C   UNL     1       0.671  -1.367  -0.155  0.00  0.00    +0.036 C 
ATOM     11  C   UNL     1       1.236   1.057   0.065  0.00  0.00    +0.036 C 
BRANCH   9  12
ATOM     12  C   UNL     1      -0.650   0.343  -1.409  0.00  0.00    +0.026 C 
ATOM     13  C   UNL     1       0.316   0.224  -2.589  0.00  0.00    +0.006 C 
ENDBRANCH   9  12
ENDBRANCH   8   9
ENDBRANCH   3   4
BRANCH   3  15
ATOM     14  C   UNL     1       2.869   0.958   3.899  0.00  0.00    +0.002 C 
ATOM     15  C   UNL     1       1.478   1.191   3.306  0.00  0.00    -0.011 C 
ENDBRANCH   3  15
ENDBRANCH   1   3
BRANCH   1  16
ATOM     16  C   UNL     1       2.010  -1.736   4.332  0.00  0.00    -0.042 C 
BRANCH  16  17
ATOM     17  C   UNL     1       2.175  -2.814   3.292  0.00  0.00    -0.064 A 
ATOM     18  C   UNL     1       1.482  -4.004   3.417  0.00  0.00    +0.005 A 
ATOM     19  C   UNL     1       1.627  -4.992   2.462  0.00  0.00    +0.046 A 
ATOM     20  C   UNL     1       2.477  -4.793   1.383  0.00  0.00    +0.120 A 
ATOM     21  C   UNL     1       3.175  -3.600   1.264  0.00  0.00    +0.046 A 
ATOM     22  C   UNL     1       3.022  -2.613   2.219  0.00  0.00    +0.005 A 
BRANCH  20  23
ATOM     23  O   UNL     1       2.625  -5.765   0.445  0.00  0.00    -0.495 OA
ATOM     24  C   UNL     1       1.875  -6.967   0.632  0.00  0.00    +0.277 C 
ENDBRANCH  20  23
ENDBRANCH  16  17
ENDBRANCH   1  16
BRANCH   1  25
ATOM     25  C   UNL     1       0.362  -0.234   5.276  0.00  0.00    -0.036 C 
BRANCH  25  26
ATOM     26  C   UNL     1      -1.126   0.007   5.247  0.00  0.00    +0.001 A 
ATOM     27  C   UNL     1      -1.982  -1.029   5.428  0.00  0.00    +0.017 A 
ATOM     28  C   UNL     1      -3.421  -0.761   5.394  0.00  0.00    +0.002 A 
ATOM     29  C   UNL     1      -4.352  -1.789   5.574  0.00  0.00    -0.041 A 
ATOM     30  C   UNL     1      -5.688  -1.506   5.538  0.00  0.00    +0.007 A 
ATOM     31  C   UNL     1      -6.130  -0.207   5.323  0.00  0.00    -0.048 A 
ATOM     32  C   UNL     1      -5.230   0.821   5.143  0.00  0.00    +0.029 A 
ATOM     33  C   UNL     1      -3.865   0.557   5.176  0.00  0.00    +0.050 A 
ATOM     34  N   UNL     1      -2.942   1.566   5.000  0.00  0.00    -0.322 N 
ATOM     35  H   UNL     1      -3.250   2.474   4.850  0.00  0.00    +0.169 HD
ATOM     36  C   UNL     1      -1.623   1.312   5.038  0.00  0.00    +0.251 A 
ATOM     37  O   UNL     1      -0.836   2.229   4.882  0.00  0.00    -0.268 OA
ATOM     38  C   UNL     1      -7.608   0.081   5.287  0.00  0.00    +0.044 C 
ATOM     39  C   UNL     1      -3.884  -3.202   5.807  0.00  0.00    +0.044 C 
ENDBRANCH  25  26
ENDBRANCH   1  25
TORSDOF 10
