REMARK  Name = ZINC28059292
REMARK  10 active torsions:
REMARK  status: ('A' for Active; 'I' for Inactive)
REMARK    1  A    between atoms: C_1  and  C_2
REMARK    2  A    between atoms: C_10  and  C_13
REMARK    3  A    between atoms: C_16  and  C_19
REMARK    4  A    between atoms: C_19  and  C_20
REMARK    5  A    between atoms: C_19  and  C_21
REMARK    6  A    between atoms: C_22  and  C_30
REMARK    7  A    between atoms: C_32  and  O_38
REMARK    8  A    between atoms: C_35  and  O_36
REMARK    9  A    between atoms: O_36  and  C_37
REMARK   10  A    between atoms: O_38  and  C_39
REMARK                            x       y       z     vdW  Elec       q    Type
REMARK                         _______ _______ _______ _____ _____    ______ ____
ROOT
ATOM      1  C   UNL     1      -1.785   5.469  -6.060  0.00  0.00    +0.044 C 
ATOM      2  C   UNL     1      -1.945   4.227  -5.223  0.00  0.00    -0.050 A 
ATOM      3  C   UNL     1      -2.931   3.307  -5.536  0.00  0.00    +0.007 A 
ATOM      4  C   UNL     1      -3.091   2.162  -4.776  0.00  0.00    +0.046 A 
ATOM      5  C   UNL     1      -2.261   1.935  -3.694  0.00  0.00    +0.131 A 
ATOM      6  C   UNL     1      -1.261   2.864  -3.377  0.00  0.00    +0.038 A 
ATOM      7  C   UNL     1      -1.107   4.011  -4.145  0.00  0.00    +0.016 A 
ATOM      8  C   UNL     1      -0.385   2.586  -2.214  0.00  0.00    +0.050 C 
ATOM      9  C   UNL     1      -0.773   1.663  -1.332  0.00  0.00    +0.026 C 
ATOM     10  C   UNL     1      -2.099   0.966  -1.532  0.00  0.00    +0.234 C 
ATOM     11  O   UNL     1      -2.387   0.825  -2.922  0.00  0.00    -0.479 OA
ATOM     12  C   UNL     1       0.060   1.294  -0.129  0.00  0.00    +0.178 C 
ATOM     13  N   UNL     1       1.399   1.852  -0.256  0.00  0.00    -0.201 N 
ATOM     14  C   UNL     1       1.744   2.793  -1.173  0.00  0.00    +0.240 A 
ATOM     15  N   UNL     1       3.004   3.066  -0.996  0.00  0.00    -0.092 NA
ATOM     16  N   UNL     1       3.483   2.355  -0.032  0.00  0.00    -0.021 NA
ATOM     17  N   UNL     1       2.564   1.592   0.465  0.00  0.00    -0.042 NA
ATOM     18  N   UNL     1       0.822   3.284  -2.083  0.00  0.00    -0.282 N 
ATOM     19  H   UNL     1       1.006   4.183  -2.691  0.00  0.00    +0.155 HD
ENDROOT
BRANCH  10  20
ATOM     20  C   UNL     1      -3.190   1.775  -0.878  0.00  0.00    -0.003 A 
ATOM     21  C   UNL     1      -3.620   2.953  -1.461  0.00  0.00    +0.008 A 
ATOM     22  C   UNL     1      -4.624   3.693  -0.864  0.00  0.00    +0.004 A 
ATOM     23  C   UNL     1      -5.190   3.260   0.320  0.00  0.00    -0.045 A 
ATOM     24  C   UNL     1      -4.757   2.085   0.905  0.00  0.00    +0.004 A 
ATOM     25  C   UNL     1      -3.757   1.343   0.306  0.00  0.00    +0.008 A 
BRANCH  23  26
ATOM     26  C   UNL     1      -6.280   4.070   0.974  0.00  0.00    +0.013 C 
ATOM     27  C   UNL     1      -5.749   5.466   1.306  0.00  0.00    +0.012 C 
ATOM     28  C   UNL     1      -7.469   4.190   0.018  0.00  0.00    +0.012 C 
ENDBRANCH  23  26
ENDBRANCH  10  20
BRANCH  12  29
ATOM     29  C   UNL     1      -0.593   1.841   1.114  0.00  0.00    +0.026 A 
ATOM     30  C   UNL     1      -0.782   3.203   1.253  0.00  0.00    +0.055 A 
ATOM     31  C   UNL     1      -1.387   3.706   2.395  0.00  0.00    +0.121 A 
ATOM     32  C   UNL     1      -1.793   2.843   3.403  0.00  0.00    +0.049 A 
ATOM     33  C   UNL     1      -1.599   1.482   3.266  0.00  0.00    +0.049 A 
ATOM     34  C   UNL     1      -0.999   0.979   2.121  0.00  0.00    +0.126 A 
BRANCH  34  35
ATOM     35  O   UNL     1      -0.808  -0.361   1.987  0.00  0.00    -0.495 OA
ATOM     36  C   UNL     1      -1.250  -1.190   3.063  0.00  0.00    +0.277 C 
ENDBRANCH  34  35
BRANCH  31  37
ATOM     37  O   UNL     1      -1.578   5.045   2.530  0.00  0.00    -0.495 OA
ATOM     38  C   UNL     1      -2.202   5.494   3.734  0.00  0.00    +0.277 C 
ENDBRANCH  31  37
ENDBRANCH  12  29
TORSDOF 5
