REMARK  Name = ZINC40345031
REMARK  6 active torsions:
REMARK  status: ('A' for Active; 'I' for Inactive)
REMARK    1  A    between atoms: C_1  and  O_2
REMARK    2  A    between atoms: O_2  and  C_3
REMARK    3  A    between atoms: C_6  and  C_9
REMARK    4  A    between atoms: N_17  and  C_27
REMARK    5  A    between atoms: C_18  and  C_20
REMARK    6  A    between atoms: C_27  and  C_28
REMARK                            x       y       z     vdW  Elec       q    Type
REMARK                         _______ _______ _______ _____ _____    ______ ____
ROOT
ATOM      1  C   UNL     1       2.496  -2.495  -4.367  0.00  0.00    +0.099 A 
ATOM      2  C   UNL     1       3.223  -3.689  -4.335  0.00  0.00    +0.035 A 
ATOM      3  C   UNL     1       3.643  -3.909  -5.633  0.00  0.00    +0.126 A 
ATOM      4  N   UNL     1       3.163  -2.864  -6.369  0.00  0.00    -0.272 N 
ATOM      5  H   UNL     1       3.300  -2.745  -7.322  0.00  0.00    +0.189 HD
ATOM      6  N   UNL     1       2.498  -2.064  -5.613  0.00  0.00    -0.173 NA
ATOM      7  C   UNL     1       4.416  -5.156  -5.668  0.00  0.00    +0.266 C 
ATOM      8  O   UNL     1       4.927  -5.628  -6.666  0.00  0.00    -0.268 OA
ATOM      9  N   UNL     1       4.481  -5.701  -4.440  0.00  0.00    -0.281 N 
ATOM     10  C   UNL     1       3.745  -4.835  -3.511  0.00  0.00    +0.142 C 
ENDROOT
BRANCH  10  11
ATOM     11  C   UNL     1       2.599  -5.593  -2.892  0.00  0.00    -0.022 A 
ATOM     12  C   UNL     1       1.897  -6.517  -3.643  0.00  0.00    +0.007 A 
ATOM     13  C   UNL     1       0.846  -7.213  -3.075  0.00  0.00    +0.015 A 
ATOM     14  C   UNL     1       0.498  -6.986  -1.756  0.00  0.00    +0.018 A 
ATOM     15  C   UNL     1       1.202  -6.061  -1.005  0.00  0.00    +0.015 A 
ATOM     16  C   UNL     1       2.255  -5.369  -1.572  0.00  0.00    +0.007 A 
ATOM     17 BR   UNL     1      -0.940  -7.938  -0.980  0.00  0.00    -0.050 Br
ENDBRANCH  10  11
BRANCH   1  21
ATOM     18  C   UNL     1       0.606  -0.607  -1.056  0.00  0.00    +0.120 A 
ATOM     19  C   UNL     1       1.173   0.164  -2.062  0.00  0.00    +0.046 A 
ATOM     20  C   UNL     1       1.786  -0.446  -3.136  0.00  0.00    +0.013 A 
ATOM     21  C   UNL     1       1.837  -1.836  -3.211  0.00  0.00    +0.003 A 
ATOM     22  C   UNL     1       1.267  -2.607  -2.200  0.00  0.00    +0.013 A 
ATOM     23  C   UNL     1       0.659  -1.992  -1.125  0.00  0.00    +0.046 A 
BRANCH  18  25
ATOM     24  C   UNL     1      -0.017   1.425   0.010  0.00  0.00    +0.277 C 
ATOM     25  O   UNL     1       0.002  -0.004   0.002  0.00  0.00    -0.495 OA
ENDBRANCH  18  25
ENDBRANCH   1  21
BRANCH   9  26
ATOM     26  C   UNL     1       5.169  -6.947  -4.090  0.00  0.00    +0.144 C 
BRANCH  26  27
ATOM     27  C   UNL     1       6.595  -6.643  -3.707  0.00  0.00    -0.026 A 
ATOM     28  C   UNL     1       7.582  -6.634  -4.675  0.00  0.00    +0.009 A 
ATOM     29  C   UNL     1       8.891  -6.356  -4.329  0.00  0.00    +0.050 A 
ATOM     30  C   UNL     1       9.217  -6.085  -3.010  0.00  0.00    +0.166 A 
ATOM     31  C   UNL     1       8.222  -6.093  -2.035  0.00  0.00    +0.167 A 
ATOM     32  C   UNL     1       6.912  -6.368  -2.390  0.00  0.00    +0.054 A 
ATOM     33  O   UNL     1       8.791  -5.800  -0.830  0.00  0.00    -0.453 OA
ATOM     34  C   UNL     1      10.204  -6.013  -1.009  0.00  0.00    +0.466 C 
ATOM     35  O   UNL     1      10.408  -5.785  -2.416  0.00  0.00    -0.453 OA
ENDBRANCH  26  27
ENDBRANCH   9  26
TORSDOF 5
