REMARK  Name = ZINC09479408
REMARK  7 active torsions:
REMARK  status: ('A' for Active; 'I' for Inactive)
REMARK    1  A    between atoms: C_1  and  N_2
REMARK    2  A    between atoms: N_2  and  C_3
REMARK    3  A    between atoms: N_2  and  C_28
REMARK    4  A    between atoms: C_3  and  C_4
REMARK    5  A    between atoms: C_5  and  C_15
REMARK    6  A    between atoms: N_17  and  N_18
REMARK    7  A    between atoms: C_19  and  C_20
REMARK                            x       y       z     vdW  Elec       q    Type
REMARK                         _______ _______ _______ _____ _____    ______ ____
ROOT
ATOM      1  C   UNL     1      -8.550   4.033   0.104  0.00  0.00    +0.063 A 
ATOM      2  C   UNL     1      -7.309   4.604   0.095  0.00  0.00    +0.170 A 
ATOM      3  N   UNL     1      -7.455   5.941   0.109  0.00  0.00    -0.124 NA
ATOM      4  N   UNL     1      -8.708   6.238   0.117  0.00  0.00    -0.058 NA
ATOM      5  N   UNL     1      -9.445   5.045   0.118  0.00  0.00    -0.194 N 
ATOM      6  C   UNL     1     -10.840   4.926   0.130  0.00  0.00    +0.240 A 
ATOM      7  C   UNL     1     -11.796   6.037   0.145  0.00  0.00    +0.206 A 
ATOM      8  N   UNL     1     -13.002   5.540   0.154  0.00  0.00    -0.032 NA
ATOM      9  O   UNL     1     -12.890   4.128   0.145  0.00  0.00    -0.239 OA
ATOM     10  N   UNL     1     -11.510   3.809   0.125  0.00  0.00    -0.027 NA
ATOM     11  N   UNL     1     -11.472   7.389   0.150  0.00  0.00    -0.337 N 
ATOM     12  H   UNL     1     -12.270   8.146   0.162  0.00  0.00    +0.144 HD
ATOM     13  H   UNL     1     -10.417   7.702   0.143  0.00  0.00    +0.144 HD
ENDROOT
BRANCH   2  14
ATOM     14  C   UNL     1      -6.026   3.877   0.080  0.00  0.00    +0.285 C 
ATOM     15  O   UNL     1      -6.016   2.661   0.074  0.00  0.00    -0.267 OA
ATOM     16  N   UNL     1      -4.864   4.561   0.072  0.00  0.00    -0.202 N 
ATOM     17  H   UNL     1      -4.873   5.661   0.077  0.00  0.00    +0.178 HD
BRANCH  16  18
ATOM     18  N   UNL     1      -3.645   3.871   0.057  0.00  0.00    -0.187 NA
ATOM     19  C   UNL     1      -2.527   4.529   0.049  0.00  0.00    +0.139 C 
BRANCH  19  20
ATOM     20  C   UNL     1      -1.244   3.803   0.033  0.00  0.00    +0.014 A 
ATOM     21  C   UNL     1      -0.038   4.508   0.025  0.00  0.00    +0.011 A 
ATOM     22  C   UNL     1       1.159   3.823   0.011  0.00  0.00    +0.002 A 
ATOM     23  C   UNL     1       1.169   2.439   0.004  0.00  0.00    +0.021 A 
ATOM     24  C   UNL     1      -0.021   1.732   0.012  0.00  0.00    +0.060 A 
ATOM     25  C   UNL     1      -1.228   2.405   0.021  0.00  0.00    +0.068 A 
ATOM     26 CL   UNL     1      -2.720   1.518   0.024  0.00  0.00    -0.081 Cl
ATOM     27 CL   UNL     1       0.002  -0.004   0.002  0.00  0.00    -0.082 Cl
ENDBRANCH  19  20
ENDBRANCH  16  18
ENDBRANCH   2  14
BRANCH   1  28
ATOM     28  C   UNL     1      -8.861   2.558   0.099  0.00  0.00    -0.020 C 
BRANCH  28  30
ATOM     29  C   UNL     1      -7.683   2.174  -1.981  0.00  0.00    -0.095 C 
ATOM     30  N   UNL     1      -8.975   2.086  -1.287  0.00  0.00    +0.383 N 
ATOM     31  H   UNL     1      -9.684   2.744  -1.811  0.00  0.00    -0.081 HD
BRANCH  30  32
ATOM     32  C   UNL     1      -9.507   0.718  -1.335  0.00  0.00    -0.068 C 
ATOM     33  C   UNL     1      -8.509  -0.240  -0.682  0.00  0.00    -0.015 C 
ATOM     34  C   UNL     1      -9.063  -1.666  -0.732  0.00  0.00    -0.002 C 
ATOM     35  C   UNL     1      -9.285  -2.076  -2.190  0.00  0.00    -0.000 C 
ATOM     36  C   UNL     1     -10.282  -1.117  -2.843  0.00  0.00    -0.002 C 
ATOM     37  C   UNL     1      -9.728   0.308  -2.793  0.00  0.00    -0.015 C 
ENDBRANCH  30  32
ENDBRANCH  28  30
ENDBRANCH   1  28
TORSDOF 6
