REMARK  Name = ZINC35465435
REMARK  15 active torsions:
REMARK  status: ('A' for Active; 'I' for Inactive)
REMARK    1  A    between atoms: C_1  and  O_2
REMARK    2  A    between atoms: O_2  and  C_3
REMARK    3  A    between atoms: C_5  and  C_10
REMARK    4  A    between atoms: C_8  and  O_9
REMARK    5  A    between atoms: C_12  and  C_38
REMARK    6  A    between atoms: C_16  and  C_23
REMARK    7  A    between atoms: C_18  and  O_21
REMARK    8  A    between atoms: O_21  and  C_22
REMARK    9  A    between atoms: C_24  and  C_25
REMARK   10  A    between atoms: N_27  and  CA_28
REMARK   11  A    between atoms: CA_28  and  CB_30
REMARK   12  A    between atoms: CA_28  and  C_35
REMARK   13  A    between atoms: CB_30  and  CG_31
REMARK   14  A    between atoms: CG_31  and  CD_32
REMARK   15  A    between atoms: C_38  and  O_39
REMARK                            x       y       z     vdW  Elec       q    Type
REMARK                         _______ _______ _______ _____ _____    ______ ____
ROOT
ATOM      1  C   UNK A   0      -4.871   0.257   0.037  0.00  0.00    +0.214 C 
ATOM      2  C   UNK A   0      -5.512   0.286  -1.370  0.00  0.00    +0.093 C 
ATOM      3  C   UNK A   0      -6.469  -0.889  -1.304  0.00  0.00    +0.008 A 
ATOM      4  C   UNK A   0      -7.138  -1.586  -2.280  0.00  0.00    +0.016 A 
ATOM      5  C   UNK A   0      -7.970  -2.656  -1.929  0.00  0.00    -0.021 A 
ATOM      6  C   UNK A   0      -8.110  -3.006  -0.581  0.00  0.00    +0.057 A 
ATOM      7  C   UNK A   0      -7.437  -2.297   0.391  0.00  0.00    +0.162 A 
ATOM      8  C   UNK A   0      -6.608  -1.225   0.038  0.00  0.00    +0.166 A 
ATOM      9  O   UNK A   0      -5.876  -0.392   0.835  0.00  0.00    -0.480 OA
ENDROOT
BRANCH   1  12
ATOM     10  C   UNK A   0      -1.201  -0.638   0.010  0.00  0.00    +0.162 A 
ATOM     11  C   UNK A   0      -2.374   0.099   0.019  0.00  0.00    +0.056 A 
ATOM     12  C   UNK A   0      -3.596  -0.546   0.027  0.00  0.00    -0.003 A 
ATOM     13  C   UNK A   0      -3.652  -1.928   0.026  0.00  0.00    +0.011 A 
ATOM     14  C   UNK A   0      -2.485  -2.669   0.017  0.00  0.00    +0.049 A 
ATOM     15  C   UNK A   0      -1.257  -2.028   0.003  0.00  0.00    +0.158 A 
BRANCH  10  17
ATOM     16  C   UNK A   0      -0.017   1.425   0.010  0.00  0.00    +0.277 C 
ATOM     17  O   UNK A   0       0.002  -0.004   0.002  0.00  0.00    -0.491 OA
ENDBRANCH  10  17
BRANCH  15  18
ATOM     18  O   UNK A   0      -0.108  -2.756  -0.012  0.00  0.00    -0.503 OA
ATOM     19  H   UNK A   0       0.232  -2.972   0.867  0.00  0.00    +0.292 HD
ENDBRANCH  15  18
ENDBRANCH   1  12
BRANCH   7  20
ATOM     20  O   UNK A   0      -7.578  -2.642   1.699  0.00  0.00    -0.491 OA
ATOM     21  C   UNK A   0      -8.438  -3.745   1.990  0.00  0.00    +0.277 C 
ENDBRANCH   7  20
BRANCH   5  22
ATOM     22  C   UNK A   0      -8.689  -3.408  -2.968  0.00  0.00    +0.013 C 
ATOM     23  C   UNK A   0      -9.489  -4.438  -2.624  0.00  0.00    +0.068 C 
BRANCH  23  24
ATOM     24  C   UNK A   0     -10.205  -5.186  -3.658  0.00  0.00    +0.238 C 
ATOM     25  O   UNK A   0     -10.079  -4.878  -4.829  0.00  0.00    -0.271 OA
ATOM     26  N   GLU A   1     -11.004  -6.215  -3.314  0.00  0.00    -0.299 N 
ATOM     27  H   GLU A   1     -11.105  -6.460  -2.381  0.00  0.00    +0.150 HD
BRANCH  26  28
ATOM     28  CA  GLU A   1     -11.721  -6.963  -4.349  0.00  0.00    +0.187 C 
BRANCH  28  29
ATOM     29  C   GLU A   1     -13.012  -6.258  -4.676  0.00  0.00    +0.376 C 
ATOM     30  O   GLU A   1     -13.307  -5.226  -4.097  0.00  0.00    -0.244 OA
ATOM     31  OXT GLU A   1     -13.763  -6.720  -5.518  0.00  0.00    -0.244 OA
ENDBRANCH  28  29
BRANCH  28  32
ATOM     32  CB  GLU A   1     -12.025  -8.374  -3.841  0.00  0.00    +0.045 C 
BRANCH  32  33
ATOM     33  CG  GLU A   1     -10.713  -9.133  -3.628  0.00  0.00    +0.127 C 
BRANCH  33  34
ATOM     34  CD  GLU A   1     -11.012 -10.522  -3.127  0.00  0.00    +0.356 C 
ATOM     35  OE1 GLU A   1     -12.167 -10.873  -2.957  0.00  0.00    -0.246 OA
ATOM     36  OE2 GLU A   1     -10.099 -11.296  -2.893  0.00  0.00    -0.246 OA
ENDBRANCH  33  34
ENDBRANCH  32  33
ENDBRANCH  28  32
ENDBRANCH  26  28
ENDBRANCH  23  24
ENDBRANCH   5  22
BRANCH   2  37
ATOM     37  C   UNK A   0      -6.269   1.596  -1.600  0.00  0.00    +0.168 C 
BRANCH  37  38
ATOM     38  O   UNK A   0      -6.748   1.640  -2.945  0.00  0.00    -0.394 OA
ATOM     39  H   UNK A   0      -7.239   2.444  -3.162  0.00  0.00    +0.209 HD
ENDBRANCH  37  38
ENDBRANCH   2  37
TORSDOF 13
