REMARK  Name = ZINC63530468
REMARK  6 active torsions:
REMARK  status: ('A' for Active; 'I' for Inactive)
REMARK    1  A    between atoms: C_1  and  C_2
REMARK    2  A    between atoms: C_2  and  C_4
REMARK    3  A    between atoms: C_2  and  N_14
REMARK    4  A    between atoms: C_15  and  C_17
REMARK    5  A    between atoms: C_19  and  S_27
REMARK    6  A    between atoms: S_27  and  C_28
REMARK                            x       y       z     vdW  Elec       q    Type
REMARK                         _______ _______ _______ _____ _____    ______ ____
ROOT
ATOM      1  C   UNL     1       0.720  -0.994   2.998  0.00  0.00    +0.204 C 
ATOM      2  C   UNL     1       1.448  -0.041   3.920  0.00  0.00    +0.030 C 
ATOM      3  C   UNL     1       0.789  -0.124   5.143  0.00  0.00    +0.010 A 
ATOM      4  C   UNL     1       0.998   0.518   6.383  0.00  0.00    +0.011 A 
ATOM      5  C   UNL     1       0.182   0.238   7.432  0.00  0.00    +0.001 A 
ATOM      6  C   UNL     1      -0.867  -0.675   7.318  0.00  0.00    +0.002 A 
ATOM      7  C   UNL     1      -1.125  -1.327   6.157  0.00  0.00    +0.026 A 
ATOM      8  C   UNL     1      -0.316  -1.087   5.019  0.00  0.00    +0.044 A 
ATOM      9  N   UNL     1      -0.358  -1.587   3.795  0.00  0.00    -0.369 N 
ATOM     10  H   UNL     1      -1.000  -2.240   3.476  0.00  0.00    +0.161 HD
ENDROOT
BRANCH   1  12
ATOM     11  N   UNL     1       0.932   0.075   0.777  0.00  0.00    -0.307 N 
ATOM     12  C   UNL     1       0.145  -0.243   1.825  0.00  0.00    +0.241 C 
ATOM     13  O   UNL     1      -1.025   0.076   1.823  0.00  0.00    -0.273 OA
ATOM     14  H   UNL     1       1.867  -0.179   0.779  0.00  0.00    +0.149 HD
BRANCH  11  16
ATOM     15  C   UNL     1       0.404   2.307  -0.072  0.00  0.00    +0.033 C 
ATOM     16  C   UNL     1       0.373   0.805  -0.363  0.00  0.00    +0.100 C 
BRANCH  16  17
ATOM     17  C   UNL     1       1.191   0.515  -1.595  0.00  0.00    -0.024 A 
ATOM     18  C   UNL     1       2.568   0.429  -1.504  0.00  0.00    +0.009 A 
ATOM     19  C   UNL     1       3.322   0.165  -2.632  0.00  0.00    +0.050 A 
ATOM     20  C   UNL     1       2.699  -0.015  -3.858  0.00  0.00    +0.162 A 
ATOM     21  C   UNL     1       1.315   0.069  -3.949  0.00  0.00    +0.162 A 
ATOM     22  C   UNL     1       0.564   0.331  -2.812  0.00  0.00    +0.055 A 
ATOM     23  O   UNL     1       0.682  -0.112  -5.140  0.00  0.00    -0.485 OA
ATOM     24  C   UNL     1       1.488  -0.008  -6.319  0.00  0.00    +0.270 C 
ATOM     25  C   UNL     1       2.774  -0.817  -6.095  0.00  0.00    +0.270 C 
ATOM     26  O   UNL     1       3.455  -0.271  -4.960  0.00  0.00    -0.485 OA
ENDBRANCH  16  17
ENDBRANCH  11  16
ENDBRANCH   1  12
BRANCH   2  27
ATOM     27  S   UNL     1       2.760   0.906   3.551  0.00  0.00    -0.091 S 
BRANCH  27  28
ATOM     28  C   UNL     1       4.063  -0.253   3.295  0.00  0.00    +0.013 A 
ATOM     29  C   UNL     1       3.855  -1.603   3.551  0.00  0.00    +0.016 A 
ATOM     30  C   UNL     1       4.877  -2.508   3.349  0.00  0.00    +0.021 A 
ATOM     31  C   UNL     1       6.109  -2.073   2.892  0.00  0.00    +0.041 A 
ATOM     32  C   UNL     1       6.319  -0.729   2.636  0.00  0.00    +0.021 A 
ATOM     33  C   UNL     1       5.299   0.181   2.830  0.00  0.00    +0.016 A 
ATOM     34 CL   UNL     1       7.393  -3.214   2.641  0.00  0.00    -0.084 Cl
ENDBRANCH  27  28
ENDBRANCH   2  27
TORSDOF 5
