REMARK  Name = ZINC38655059
REMARK  8 active torsions:
REMARK  status: ('A' for Active; 'I' for Inactive)
REMARK    1  A    between atoms: C_4  and  C_7
REMARK    2  A    between atoms: C_7  and  C_8
REMARK    3  A    between atoms: C_8  and  O_10
REMARK    4  A    between atoms: O_10  and  C_11
REMARK    5  A    between atoms: C_18  and  N_33
REMARK    6  A    between atoms: C_19  and  C_31
REMARK    7  A    between atoms: C_20  and  C_22
REMARK    8  A    between atoms: C_25  and  N_28
REMARK                            x       y       z     vdW  Elec       q    Type
REMARK                         _______ _______ _______ _____ _____    ______ ____
ROOT
ATOM      1  C   UNL     1       5.786  -1.827   2.864  0.00  0.00    +0.135 A 
ATOM      2  C   UNL     1       5.028  -1.450   3.964  0.00  0.00    +0.047 A 
ATOM      3  C   UNL     1       5.504  -1.676   5.240  0.00  0.00    +0.012 A 
ATOM      4  C   UNL     1       6.736  -2.276   5.429  0.00  0.00    +0.008 A 
ATOM      5  C   UNL     1       7.498  -2.654   4.334  0.00  0.00    +0.138 A 
ATOM      6  C   UNL     1       7.018  -2.433   3.050  0.00  0.00    +0.093 A 
ATOM      7  O   UNL     1       8.708  -3.244   4.499  0.00  0.00    -0.441 OA
ATOM      8  C   UNL     1       9.356  -3.128   5.670  0.00  0.00    +0.199 C 
ATOM      9  C   UNL     1       8.715  -2.785   6.813  0.00  0.00    +0.098 C 
ATOM     10  C   UNL     1       7.237  -2.514   6.829  0.00  0.00    +0.098 C 
ENDROOT
BRANCH  10  11
ATOM     11  C   UNL     1       6.519  -3.699   7.422  0.00  0.00    -0.035 A 
ATOM     12  C   UNL     1       6.618  -4.939   6.820  0.00  0.00    +0.007 A 
ATOM     13  C   UNL     1       5.960  -6.026   7.364  0.00  0.00    +0.033 A 
ATOM     14  C   UNL     1       5.203  -5.873   8.510  0.00  0.00    +0.126 A 
ATOM     15  C   UNL     1       5.104  -4.633   9.113  0.00  0.00    +0.033 A 
ATOM     16  C   UNL     1       5.766  -3.547   8.571  0.00  0.00    +0.007 A 
BRANCH  14  17
ATOM     17  N   UNL     1       4.497  -7.036   9.092  0.00  0.00    +0.056 N 
ATOM     18  O   UNL     1       4.582  -8.121   8.565  0.00  0.00    -0.126 OA
ATOM     19  O   UNL     1       3.834  -6.902  10.095  0.00  0.00    -0.126 OA
ENDBRANCH  14  17
ENDBRANCH  10  11
BRANCH   8  20
ATOM     20  N   UNL     1      10.707  -3.366   5.710  0.00  0.00    -0.328 N 
ATOM     21  H   UNL     1      11.180  -3.613   4.900  0.00  0.00    +0.145 HD
ATOM     22  H   UNL     1      11.189  -3.287   6.548  0.00  0.00    +0.145 HD
ENDBRANCH   8  20
BRANCH   9  23
ATOM     23  C   UNL     1       9.462  -2.678   8.030  0.00  0.00    +0.101 C 
ATOM     24  N   UNL     1      10.054  -2.593   8.996  0.00  0.00    -0.191 NA
ENDBRANCH   9  23
BRANCH   1  25
ATOM     25  O   UNL     1       5.319  -1.605   1.607  0.00  0.00    -0.425 OA
BRANCH  25  26
ATOM     26  C   UNL     1       5.391  -0.356   1.119  0.00  0.00    +0.317 C 
ATOM     27  O   UNL     1       5.778   0.546   1.823  0.00  0.00    -0.250 OA
BRANCH  26  28
ATOM     28  C   UNL     1       4.990  -0.081  -0.307  0.00  0.00    +0.156 C 
BRANCH  28  32
ATOM     29  C   UNL     1       5.480   4.079  -1.148  0.00  0.00    +0.000 A 
ATOM     30  C   UNL     1       6.526   3.201  -1.367  0.00  0.00    +0.000 A 
ATOM     31  C   UNL     1       6.367   1.855  -1.095  0.00  0.00    +0.004 A 
ATOM     32  C   UNL     1       5.163   1.387  -0.603  0.00  0.00    -0.037 A 
ATOM     33  C   UNL     1       4.118   2.264  -0.384  0.00  0.00    +0.004 A 
ATOM     34  C   UNL     1       4.276   3.610  -0.657  0.00  0.00    +0.000 A 
ENDBRANCH  28  32
ENDBRANCH  26  28
ENDBRANCH  25  26
ENDBRANCH   1  25
TORSDOF 8
