REMARK  Name = ZINC36688797
REMARK  8 active torsions:
REMARK  status: ('A' for Active; 'I' for Inactive)
REMARK    1  A    between atoms: C_1  and  C_2
REMARK    2  A    between atoms: C_2  and  C_3
REMARK    3  A    between atoms: C_3  and  C_30
REMARK    4  A    between atoms: N_6  and  C_10
REMARK    5  A    between atoms: C_10  and  C_11
REMARK    6  A    between atoms: N_20  and  C_23
REMARK    7  A    between atoms: C_23  and  C_24
REMARK    8  A    between atoms: C_30  and  C_31
REMARK                            x       y       z     vdW  Elec       q    Type
REMARK                         _______ _______ _______ _____ _____    ______ ____
ROOT
ATOM      1  C   UNL     1      -5.368   0.431  -1.812  0.00  0.00    +0.237 C 
ATOM      2  O   UNL     1      -5.362  -0.684  -1.335  0.00  0.00    -0.274 OA
ATOM      3  N   UNL     1      -6.410   0.837  -2.564  0.00  0.00    -0.263 N 
ATOM      4  C   UNL     1      -7.479  -0.023  -2.793  0.00  0.00    +0.165 A 
ATOM      5  N   UNL     1      -7.646  -1.253  -2.356  0.00  0.00    -0.229 NA
ATOM      6  C   UNL     1      -8.727  -1.961  -2.657  0.00  0.00    +0.050 A 
ATOM      7  C   UNL     1      -9.633  -1.320  -3.445  0.00  0.00    -0.002 A 
ATOM      8  S   UNL     1      -8.877   0.260  -3.691  0.00  0.00    -0.059 S 
ATOM      9  C   UNL     1     -10.927  -1.863  -3.944  0.00  0.00    -0.033 C 
ATOM     10  N   UNL     1     -10.913  -3.328  -3.763  0.00  0.00    +0.386 N 
ATOM     11  C   UNL     1     -10.509  -3.650  -2.389  0.00  0.00    -0.072 C 
ATOM     12  C   UNL     1      -9.013  -3.384  -2.195  0.00  0.00    +0.038 C 
ATOM     13  H   UNL     1      -6.415   1.728  -2.946  0.00  0.00    +0.157 HD
ATOM     14  H   UNL     1     -10.259  -3.741  -4.411  0.00  0.00    -0.081 HD
ENDROOT
BRANCH   1  15
ATOM     15  C   UNL     1      -4.210   1.363  -1.565  0.00  0.00    +0.214 C 
BRANCH  15  19
ATOM     16  C   UNL     1      -1.433  -0.534   0.013  0.00  0.00    +0.112 C 
ATOM     17  C   UNL     1      -2.192  -0.043  -1.205  0.00  0.00    +0.247 C 
ATOM     18  O   UNL     1      -1.933  -0.267  -2.368  0.00  0.00    -0.273 OA
ATOM     19  N   UNL     1      -3.214   0.692  -0.725  0.00  0.00    -0.215 N 
ATOM     20  C   UNL     1      -3.207   0.734   0.612  0.00  0.00    +0.310 C 
ATOM     21  O   UNL     1      -4.031   1.335   1.273  0.00  0.00    -0.252 OA
ATOM     22  N   UNL     1      -2.187   0.036   1.143  0.00  0.00    -0.285 N 
ATOM     23  H   UNL     1      -1.987  -0.072   2.086  0.00  0.00    +0.151 HD
BRANCH  16  25
ATOM     24  C   UNL     1      -0.019   1.526   0.010  0.00  0.00    +0.006 C 
ATOM     25  C   UNL     1       0.002  -0.004   0.002  0.00  0.00    +0.032 C 
ENDBRANCH  16  25
BRANCH  16  26
ATOM     26  C   UNL     1      -1.441  -2.062   0.076  0.00  0.00    +0.032 C 
ATOM     27  C   UNL     1      -2.886  -2.565   0.086  0.00  0.00    +0.006 C 
ENDBRANCH  16  26
ENDBRANCH  15  19
ENDBRANCH   1  15
BRANCH  10  28
ATOM     28  C   UNL     1     -12.257  -3.865  -4.017  0.00  0.00    -0.043 C 
BRANCH  28  29
ATOM     29  C   UNL     1     -12.621  -3.645  -5.463  0.00  0.00    -0.064 A 
ATOM     30  C   UNL     1     -13.260  -2.481  -5.845  0.00  0.00    +0.002 A 
ATOM     31  C   UNL     1     -13.595  -2.279  -7.171  0.00  0.00    +0.000 A 
ATOM     32  C   UNL     1     -13.289  -3.241  -8.115  0.00  0.00    +0.000 A 
ATOM     33  C   UNL     1     -12.649  -4.405  -7.733  0.00  0.00    +0.000 A 
ATOM     34  C   UNL     1     -12.311  -4.605  -6.408  0.00  0.00    +0.002 A 
ENDBRANCH  28  29
ENDBRANCH  10  28
TORSDOF 6
