REMARK  Name = ZINC01811359
REMARK  15 active torsions:
REMARK  status: ('A' for Active; 'I' for Inactive)
REMARK    1  A    between atoms: C_1  and  C_2
REMARK    2  A    between atoms: C_2  and  C_3
REMARK    3  A    between atoms: C_2  and  C_4
REMARK    4  A    between atoms: C_2  and  C_5
REMARK    5  A    between atoms: C_7  and  C_16
REMARK    6  A    between atoms: C_9  and  C_12
REMARK    7  A    between atoms: C_10  and  O_11
REMARK    8  A    between atoms: C_12  and  C_13
REMARK    9  A    between atoms: C_12  and  C_14
REMARK   10  A    between atoms: C_12  and  C_15
REMARK   11  A    between atoms: C_16  and  C_18
REMARK   12  A    between atoms: C_16  and  N_71
REMARK   13  A    between atoms: C_21  and  N_24
REMARK   14  A    between atoms: N_24  and  C_25
REMARK   15  A    between atoms: N_24  and  C_26
REMARK                            x       y       z     vdW  Elec       q    Type
REMARK                         _______ _______ _______ _____ _____    ______ ____
ROOT
ATOM      1  C   UNL     1      -0.797   1.984  -1.119  0.00  0.00    -0.007 C 
ENDROOT
BRANCH   1   7
ATOM      2  C   UNL     1       1.347   2.013   0.009  0.00  0.00    -0.049 C 
ATOM      3  C   UNL     1       2.099   1.506   1.241  0.00  0.00    +0.141 C 
ATOM      4  O   UNL     1       2.081   0.076   1.249  0.00  0.00    -0.383 OA
ATOM      5  C   UNL     1       0.765  -0.483   1.260  0.00  0.00    +0.141 C 
ATOM      6  C   UNL     1      -0.001   0.004   0.028  0.00  0.00    -0.049 C 
ATOM      7  N   UNL     1      -0.032   1.482   0.043  0.00  0.00    +0.390 N 
ATOM      8  H   UNL     1      -0.490   1.798   0.905  0.00  0.00    -0.080 HD
ENDBRANCH   1   7
BRANCH   1  11
ATOM      9  C   UNL     1      -0.668   5.581  -2.256  0.00  0.00    -0.000 A 
ATOM     10  C   UNL     1      -0.670   4.199  -2.275  0.00  0.00    +0.010 A 
ATOM     11  C   UNL     1      -0.794   3.490  -1.095  0.00  0.00    -0.056 A 
ATOM     12  C   UNL     1      -0.922   4.161   0.107  0.00  0.00    +0.010 A 
ATOM     13  C   UNL     1      -0.915   5.542   0.133  0.00  0.00    -0.000 A 
ATOM     14  C   UNL     1      -0.790   6.256  -1.050  0.00  0.00    +0.124 A 
BRANCH   9  16
ATOM     15  C   UNL     1      -0.415   5.376  -4.714  0.00  0.00    +0.015 C 
ATOM     16  C   UNL     1      -0.533   6.353  -3.543  0.00  0.00    -0.009 C 
ATOM     17  C   UNL     1      -1.766   7.238  -3.738  0.00  0.00    +0.015 C 
ATOM     18  C   UNL     1       0.720   7.230  -3.482  0.00  0.00    +0.015 C 
ENDBRANCH   9  16
BRANCH  13  19
ATOM     19  C   UNL     1      -1.048   6.273   1.444  0.00  0.00    -0.009 C 
ATOM     20  C   UNL     1      -1.169   5.259   2.583  0.00  0.00    +0.015 C 
ATOM     21  C   UNL     1       0.188   7.147   1.669  0.00  0.00    +0.015 C 
ATOM     22  C   UNL     1      -2.298   7.155   1.412  0.00  0.00    +0.015 C 
ENDBRANCH  13  19
BRANCH  14  23
ATOM     23  O   UNL     1      -0.788   7.615  -1.028  0.00  0.00    -0.506 OA
ATOM     24  H   UNL     1      -1.666   8.011  -1.113  0.00  0.00    +0.292 HD
ENDBRANCH  14  23
ENDBRANCH   1  11
BRANCH   1  25
ATOM     25  C   UNL     1      -2.215   1.482  -1.026  0.00  0.00    -0.057 A 
ATOM     26  C   UNL     1      -2.846   1.424   0.203  0.00  0.00    +0.004 A 
ATOM     27  C   UNL     1      -4.147   0.970   0.291  0.00  0.00    +0.023 A 
ATOM     28  C   UNL     1      -4.818   0.560  -0.855  0.00  0.00    +0.029 A 
ATOM     29  C   UNL     1      -4.178   0.615  -2.087  0.00  0.00    +0.023 A 
ATOM     30  C   UNL     1      -2.879   1.075  -2.168  0.00  0.00    +0.004 A 
BRANCH  28  31
ATOM     31  N   UNL     1      -6.132   0.095  -0.768  0.00  0.00    -0.336 N 
ATOM     32  C   UNL     1      -6.880  -0.218  -1.988  0.00  0.00    +0.129 C 
ATOM     33  C   UNL     1      -6.762  -0.080   0.543  0.00  0.00    +0.129 C 
ENDBRANCH  28  31
ENDBRANCH   1  25
TORSDOF 7
