REMARK  Name = ZINC12391304
REMARK  7 active torsions:
REMARK  status: ('A' for Active; 'I' for Inactive)
REMARK    1  A    between atoms: C_1  and  C_2
REMARK    2  A    between atoms: C_10  and  O_24
REMARK    3  A    between atoms: N_11  and  C_12
REMARK    4  A    between atoms: C_12  and  C_13
REMARK    5  A    between atoms: C_13  and  C_14
REMARK    6  A    between atoms: C_17  and  S_20
REMARK    7  A    between atoms: S_20  and  N_23
REMARK                            x       y       z     vdW  Elec       q    Type
REMARK                         _______ _______ _______ _____ _____    ______ ____
ROOT
ATOM      1  C   UNL     1      -2.410  -1.867   1.684  0.00  0.00    +0.064 C 
ATOM      2  C   UNL     1      -1.125  -2.643   1.550  0.00  0.00    +0.033 A 
ATOM      3  C   UNL     1      -1.126  -4.000   1.753  0.00  0.00    +0.088 A 
ATOM      4  C   UNL     1      -2.121  -5.008   2.101  0.00  0.00    +0.285 A 
ATOM      5  O   UNL     1      -3.311  -4.824   2.301  0.00  0.00    -0.265 OA
ATOM      6  N   UNL     1      -1.463  -6.186   2.156  0.00  0.00    -0.171 N 
ATOM      7  N   UNL     1      -0.108  -6.001   1.867  0.00  0.00    -0.161 NA
ATOM      8  C   UNL     1       0.150  -4.742   1.622  0.00  0.00    +0.104 A 
ATOM      9  C   UNL     1       1.344  -3.972   1.274  0.00  0.00    +0.095 A 
ATOM     10  C   UNL     1       1.215  -2.636   1.092  0.00  0.00    +0.195 A 
ATOM     11  N   UNL     1       0.012  -2.002   1.226  0.00  0.00    -0.315 N 
ATOM     12  C   UNL     1      -2.047  -7.406   2.458  0.00  0.00    +0.198 A 
ATOM     13  N   UNL     1      -1.488  -8.592   2.533  0.00  0.00    -0.221 NA
ATOM     14  C   UNL     1      -2.186  -9.706   2.840  0.00  0.00    +0.081 A 
ATOM     15  C   UNL     1      -1.708 -11.032   2.954  0.00  0.00    +0.029 A 
ATOM     16  C   UNL     1      -2.558 -12.057   3.276  0.00  0.00    +0.002 A 
ATOM     17  C   UNL     1      -3.909 -11.835   3.502  0.00  0.00    +0.001 A 
ATOM     18  C   UNL     1      -4.411 -10.550   3.400  0.00  0.00    +0.017 A 
ATOM     19  C   UNL     1      -3.567  -9.517   3.077  0.00  0.00    +0.041 A 
ATOM     20  S   UNL     1      -3.754  -7.765   2.850  0.00  0.00    -0.048 S 
ENDROOT
BRANCH  10  21
ATOM     21  O   UNL     1       2.310  -1.907   0.769  0.00  0.00    -0.493 OA
ATOM     22  H   UNL     1       2.793  -1.563   1.533  0.00  0.00    +0.294 HD
ENDBRANCH  10  21
BRANCH  11  23
ATOM     23  C   UNL     1      -0.041  -0.553   1.013  0.00  0.00    +0.129 C 
BRANCH  23  24
ATOM     24  C   UNL     1       0.240   0.167   2.333  0.00  0.00    +0.057 C 
BRANCH  24  25
ATOM     25  C   UNL     1       0.186   1.657   2.114  0.00  0.00    -0.046 A 
ATOM     26  C   UNL     1       1.332   2.347   1.767  0.00  0.00    +0.005 A 
ATOM     27  C   UNL     1       1.282   3.713   1.562  0.00  0.00    +0.029 A 
ATOM     28  C   UNL     1       0.086   4.390   1.713  0.00  0.00    +0.105 A 
ATOM     29  C   UNL     1      -1.059   3.701   2.065  0.00  0.00    +0.029 A 
ATOM     30  C   UNL     1      -1.009   2.335   2.266  0.00  0.00    +0.005 A 
BRANCH  28  31
ATOM     31  S   UNL     1       0.022   6.132   1.455  0.00  0.00    +0.056 S 
ATOM     32  O   UNL     1       1.111   6.457   0.602  0.00  0.00    -0.153 OA
ATOM     33  O   UNL     1      -1.324   6.445   1.125  0.00  0.00    -0.153 OA
BRANCH  31  34
ATOM     34  N   UNL     1       0.332   6.854   2.913  0.00  0.00    -0.204 NA
ATOM     35  H   UNL     1       0.764   7.723   2.942  0.00  0.00    +0.144 HD
ATOM     36  H   UNL     1       0.082   6.409   3.738  0.00  0.00    +0.144 HD
ENDBRANCH  31  34
ENDBRANCH  28  31
ENDBRANCH  24  25
ENDBRANCH  23  24
ENDBRANCH  11  23
TORSDOF 6
