REMARK  Name = ZINC13523733
REMARK  9 active torsions:
REMARK  status: ('A' for Active; 'I' for Inactive)
REMARK    1  A    between atoms: C_1  and  C_2
REMARK    2  A    between atoms: C_2  and  C_3
REMARK    3  A    between atoms: C_2  and  C_4
REMARK    4  A    between atoms: C_2  and  N_12
REMARK    5  A    between atoms: C_4  and  C_5
REMARK    6  A    between atoms: C_8  and  O_11
REMARK    7  A    between atoms: C_13  and  C_15
REMARK    8  A    between atoms: C_15  and  C_16
REMARK    9  A    between atoms: N_18  and  N_19
REMARK                            x       y       z     vdW  Elec       q    Type
REMARK                         _______ _______ _______ _____ _____    ______ ____
ROOT
ATOM      1  C   UNL     1       2.661  -0.581  -2.697  0.00  0.00    +0.193 C 
ENDROOT
BRANCH   1   3
ATOM      2  N   UNL     1       0.592  -0.248  -1.383  0.00  0.00    -0.310 N 
ATOM      3  C   UNL     1       1.869   0.113  -1.619  0.00  0.00    +0.222 C 
ATOM      4  O   UNL     1       2.381   0.996  -0.964  0.00  0.00    -0.275 OA
ATOM      5  H   UNL     1       0.183  -0.954  -1.907  0.00  0.00    +0.149 HD
BRANCH   2   7
ATOM      6  C   UNL     1      -0.268   1.922  -0.651  0.00  0.00    +0.031 C 
ATOM      7  C   UNL     1      -0.178   0.427  -0.335  0.00  0.00    +0.033 C 
ATOM      8  C   UNL     1       0.517   0.232   1.014  0.00  0.00    +0.031 C 
BRANCH   7   9
ATOM      9  C   UNL     1      -1.587  -0.167  -0.275  0.00  0.00    +0.060 C 
BRANCH   9  10
ATOM     10  C   UNL     1      -2.379   0.527   0.803  0.00  0.00    -0.045 A 
ATOM     11  C   UNL     1      -2.361   0.038   2.096  0.00  0.00    +0.007 A 
ATOM     12  C   UNL     1      -3.086   0.672   3.086  0.00  0.00    +0.045 A 
ATOM     13  C   UNL     1      -3.833   1.801   2.782  0.00  0.00    +0.117 A 
ATOM     14  C   UNL     1      -3.849   2.290   1.484  0.00  0.00    +0.045 A 
ATOM     15  C   UNL     1      -3.118   1.655   0.499  0.00  0.00    +0.007 A 
BRANCH  13  16
ATOM     16  O   UNL     1      -4.548   2.427   3.754  0.00  0.00    -0.507 OA
ATOM     17  H   UNL     1      -4.058   3.118   4.219  0.00  0.00    +0.292 HD
ENDBRANCH  13  16
ENDBRANCH   9  10
ENDBRANCH   7   9
ENDBRANCH   2   7
ENDBRANCH   1   3
BRANCH   1  18
ATOM     18  C   UNL     1       4.049   0.004  -2.757  0.00  0.00    +0.241 C 
ATOM     19  O   UNL     1       4.363   0.897  -1.999  0.00  0.00    -0.274 OA
ATOM     20  N   UNL     1       4.940  -0.465  -3.652  0.00  0.00    -0.206 N 
ATOM     21  H   UNL     1       4.688  -1.179  -4.259  0.00  0.00    +0.177 HD
BRANCH  20  22
ATOM     22  N   UNL     1       6.230   0.080  -3.708  0.00  0.00    -0.175 NA
ATOM     23  C   UNL     1       7.061  -0.299  -4.648  0.00  0.00    +0.153 C 
ATOM     24  C   UNL     1       6.763  -1.140  -5.831  0.00  0.00    +0.029 A 
ATOM     25  C   UNL     1       5.604  -1.752  -6.296  0.00  0.00    +0.027 A 
ATOM     26  C   UNL     1       5.641  -2.490  -7.463  0.00  0.00    +0.019 A 
ATOM     27  C   UNL     1       6.828  -2.620  -8.165  0.00  0.00    +0.017 A 
ATOM     28  C   UNL     1       7.983  -2.017  -7.710  0.00  0.00    +0.025 A 
ATOM     29  C   UNL     1       7.965  -1.269  -6.538  0.00  0.00    +0.043 A 
ATOM     30  N   UNL     1       8.967  -0.571  -5.872  0.00  0.00    -0.280 N 
ATOM     31  C   UNL     1       8.498   0.023  -4.762  0.00  0.00    +0.269 C 
ATOM     32  O   UNL     1       9.143   0.704  -3.986  0.00  0.00    -0.268 OA
ATOM     33 BR   UNL     1       4.069  -3.326  -8.102  0.00  0.00    -0.050 Br
ATOM     34  H   UNL     1       9.888  -0.516  -6.173  0.00  0.00    +0.155 HD
ENDBRANCH  20  22
ENDBRANCH   1  18
TORSDOF 7
