REMARK  Name = ZINC22420833
REMARK  9 active torsions:
REMARK  status: ('A' for Active; 'I' for Inactive)
REMARK    1  A    between atoms: C_1  and  C_2
REMARK    2  A    between atoms: C_2  and  C_3
REMARK    3  A    between atoms: C_3  and  C_4
REMARK    4  A    between atoms: C_6  and  S_9
REMARK    5  A    between atoms: S_9  and  C_10
REMARK    6  A    between atoms: C_13  and  S_19
REMARK    7  A    between atoms: C_15  and  N_16
REMARK    8  A    between atoms: S_19  and  N_22
REMARK    9  A    between atoms: C_26  and  C_29
REMARK                            x       y       z     vdW  Elec       q    Type
REMARK                         _______ _______ _______ _____ _____    ______ ____
ROOT
ATOM      1  C   UNL     1       1.629   2.368   0.091  0.00  0.00    +0.046 A 
ATOM      2  C   UNL     1       2.702   1.491  -0.018  0.00  0.00    +0.019 A 
ATOM      3  C   UNL     1       3.994   1.974   0.039  0.00  0.00    +0.030 A 
ATOM      4  C   UNL     1       4.222   3.326   0.217  0.00  0.00    +0.108 A 
ATOM      5  C   UNL     1       3.157   4.201   0.332  0.00  0.00    +0.062 A 
ATOM      6  C   UNL     1       1.862   3.726   0.269  0.00  0.00    +0.142 A 
ENDROOT
BRANCH   6   7
ATOM      7  N   UNL     1       0.722   4.663   0.392  0.00  0.00    +0.058 N 
ATOM      8  O   UNL     1       0.927   5.854   0.547  0.00  0.00    -0.126 OA
ATOM      9  O   UNL     1      -0.420   4.244   0.336  0.00  0.00    -0.126 OA
ENDBRANCH   6   7
BRANCH   4  10
ATOM     10  S   UNL     1       5.873   3.937   0.297  0.00  0.00    +0.061 S 
ATOM     11  O   UNL     1       6.689   2.992  -0.383  0.00  0.00    -0.153 OA
ATOM     12  O   UNL     1       5.819   5.306  -0.079  0.00  0.00    -0.153 OA
BRANCH  10  13
ATOM     13  N   UNL     1       6.332   3.901   1.887  0.00  0.00    -0.176 NA
ATOM     14  C   UNL     1       6.104   5.061   2.759  0.00  0.00    +0.109 C 
ATOM     15  C   UNL     1       7.424   5.455   3.419  0.00  0.00    +0.017 C 
ATOM     16  C   UNL     1       8.017   4.239   4.134  0.00  0.00    +0.006 C 
ATOM     17  C   UNL     1       8.296   3.132   3.114  0.00  0.00    +0.002 C 
ATOM     18  C   UNL     1       6.981   2.710   2.452  0.00  0.00    +0.112 C 
ATOM     19  C   UNL     1       8.920   1.929   3.825  0.00  0.00    +0.009 C 
ENDBRANCH  10  13
ENDBRANCH   4  10
BRANCH   1  20
ATOM     20  S   UNL     1      -0.022   1.758   0.012  0.00  0.00    -0.048 S 
BRANCH  20  23
ATOM     21  C   UNL     1      -1.514   2.584  -3.496  0.00  0.00    +0.132 A 
ATOM     22  N   UNL     1      -1.662   2.086  -2.232  0.00  0.00    -0.320 N 
ATOM     23  C   UNL     1      -0.442   2.225  -1.635  0.00  0.00    +0.194 A 
ATOM     24  N   UNL     1       0.359   2.773  -2.519  0.00  0.00    -0.122 NA
ATOM     25  N   UNL     1      -0.280   2.986  -3.614  0.00  0.00    -0.134 NA
ATOM     26  H   UNL     1      -2.500   1.643  -1.674  0.00  0.00    +0.169 HD
BRANCH  21  27
ATOM     27  C   UNL     1      -2.581   2.655  -4.558  0.00  0.00    +0.076 C 
BRANCH  27  29
ATOM     28  C   UNL     1      -3.786   4.167  -6.141  0.00  0.00    +0.004 C 
ATOM     29  C   UNL     1      -2.703   4.095  -5.062  0.00  0.00    +0.004 C 
ENDBRANCH  27  29
ENDBRANCH  21  27
ENDBRANCH  20  23
ENDBRANCH   1  20
TORSDOF 7
