REMARK  Name = ZINC13232156
REMARK  13 active torsions:
REMARK  status: ('A' for Active; 'I' for Inactive)
REMARK    1  A    between atoms: C_1  and  C_2
REMARK    2  A    between atoms: C_2  and  O_3
REMARK    3  A    between atoms: O_3  and  C_4
REMARK    4  A    between atoms: C_7  and  C_10
REMARK    5  A    between atoms: C_13  and  S_19
REMARK    6  A    between atoms: N_14  and  C_15
REMARK    7  A    between atoms: C_15  and  C_16
REMARK    8  A    between atoms: C_16  and  C_17
REMARK    9  A    between atoms: S_19  and  C_20
REMARK   10  A    between atoms: C_20  and  C_22
REMARK   11  A    between atoms: C_20  and  C_23
REMARK   12  A    between atoms: N_25  and  C_26
REMARK   13  A    between atoms: N_25  and  C_27
REMARK                            x       y       z     vdW  Elec       q    Type
REMARK                         _______ _______ _______ _____ _____    ______ ____
ROOT
ATOM      1  C   UNL     1       0.119  -0.840   1.089  0.00  0.00    +0.165 A 
ATOM      2  N   UNL     1       0.257  -2.056   0.613  0.00  0.00    -0.128 NA
ATOM      3  N   UNL     1       0.075  -2.052  -0.660  0.00  0.00    -0.122 NA
ATOM      4  C   UNL     1      -0.195  -0.835  -1.073  0.00  0.00    +0.193 A 
ATOM      5  N   UNL     1      -0.171  -0.020   0.023  0.00  0.00    -0.302 N 
ENDROOT
BRANCH   1   9
ATOM      6  C   UNL     1       0.502   0.339   5.153  0.00  0.00    +0.121 A 
ATOM      7  C   UNL     1       0.278  -0.994   4.837  0.00  0.00    +0.046 A 
ATOM      8  C   UNL     1       0.153  -1.381   3.519  0.00  0.00    +0.015 A 
ATOM      9  C   UNL     1       0.252  -0.430   2.502  0.00  0.00    +0.020 A 
ATOM     10  C   UNL     1       0.483   0.909   2.824  0.00  0.00    +0.015 A 
ATOM     11  C   UNL     1       0.601   1.288   4.144  0.00  0.00    +0.046 A 
BRANCH   6  12
ATOM     12  O   UNL     1       0.624   0.716   6.452  0.00  0.00    -0.492 OA
BRANCH  12  14
ATOM     13  C   UNL     1       0.963   2.335   8.215  0.00  0.00    +0.048 C 
ATOM     14  C   UNL     1       0.853   2.104   6.706  0.00  0.00    +0.225 C 
ENDBRANCH  12  14
ENDBRANCH   6  12
ENDBRANCH   1   9
BRANCH   5  15
ATOM     15  C   UNL     1      -0.411   1.425   0.057  0.00  0.00    +0.137 C 
BRANCH  15  16
ATOM     16  C   UNL     1       0.897   2.166  -0.223  0.00  0.00    +0.147 C 
BRANCH  16  17
ATOM     17  C   UNL     1       0.650   3.653  -0.187  0.00  0.00    +0.358 C 
ATOM     18  O   UNL     1      -0.459   4.075   0.039  0.00  0.00    -0.246 OA
ATOM     19  O   UNL     1       1.662   4.507  -0.407  0.00  0.00    -0.246 OA
ENDBRANCH  16  17
ENDBRANCH  15  16
ENDBRANCH   5  15
BRANCH   4  20
ATOM     20  S   UNL     1      -0.523  -0.344  -2.734  0.00  0.00    -0.074 S 
BRANCH  20  21
ATOM     21  C   UNL     1      -0.376  -1.943  -3.569  0.00  0.00    +0.137 C 
ATOM     22  C   UNL     1      -1.486  -2.877  -3.083  0.00  0.00    +0.029 C 
BRANCH  21  23
ATOM     23  C   UNL     1      -0.502  -1.745  -5.058  0.00  0.00    +0.229 C 
ATOM     24  O   UNL     1      -1.023  -0.741  -5.494  0.00  0.00    -0.274 OA
ATOM     25  N   UNL     1      -0.036  -2.685  -5.904  0.00  0.00    -0.299 N 
ATOM     26  C   UNL     1       0.593  -3.898  -5.377  0.00  0.00    +0.132 C 
BRANCH  25  27
ATOM     27  C   UNL     1      -0.159  -2.493  -7.351  0.00  0.00    +0.098 C 
ATOM     28  C   UNL     1       1.237  -2.491  -7.995  0.00  0.00    +0.046 C 
ATOM     29  C   UNL     1       1.109  -2.612  -9.533  0.00  0.00    +0.168 C 
ATOM     30  S   UNL     1      -0.471  -3.532  -9.736  0.00  0.00    -0.029 S 
ATOM     31  O   UNL     1      -1.401  -2.706 -10.423  0.00  0.00    -0.174 OA
ATOM     32  O   UNL     1      -0.188  -4.832 -10.235  0.00  0.00    -0.174 OA
ATOM     33  C   UNL     1      -0.977  -3.663  -7.969  0.00  0.00    +0.188 C 
ENDBRANCH  25  27
ENDBRANCH  21  23
ENDBRANCH  20  21
ENDBRANCH   4  20
TORSDOF 10
