REMARK  Name = ZINC33960689
REMARK  8 active torsions:
REMARK  status: ('A' for Active; 'I' for Inactive)
REMARK    1  A    between atoms: C_1  and  C_2
REMARK    2  A    between atoms: C_5  and  C_26
REMARK    3  A    between atoms: C_6  and  C_7
REMARK    4  A    between atoms: C_6  and  C_8
REMARK    5  A    between atoms: N_11  and  O_12
REMARK    6  A    between atoms: O_12  and  C_13
REMARK    7  A    between atoms: C_13  and  C_15
REMARK    8  A    between atoms: N_28  and  C_29
REMARK                            x       y       z     vdW  Elec       q    Type
REMARK                         _______ _______ _______ _____ _____    ______ ____
ROOT
ATOM      1  C   UNL     1      -0.033   1.526   0.019  0.00  0.00    +0.018 C 
ATOM      2  C   UNL     1      -0.011  -0.004   0.010  0.00  0.00    +0.015 C 
ATOM      3  C   UNL     1      -1.402  -0.705   0.081  0.00  0.00    +0.014 C 
ATOM      4  C   UNL     1      -1.092  -2.138   0.570  0.00  0.00    +0.018 C 
ATOM      5  C   UNL     1       0.459  -2.165   0.738  0.00  0.00    +0.058 C 
ATOM      6  C   UNL     1       0.724  -0.692   1.213  0.00  0.00    -0.010 C 
ATOM      7  C   UNL     1       2.216  -0.358   1.244  0.00  0.00    +0.013 C 
ATOM      8  C   UNL     1       0.046  -0.389   2.551  0.00  0.00    +0.013 C 
ATOM      9  C   UNL     1       1.006  -2.088  -0.720  0.00  0.00    +0.071 C 
ATOM     10  C   UNL     1       0.709  -0.656  -1.179  0.00  0.00    +0.066 C 
ATOM     11  N   UNL     1       0.981  -0.122  -2.310  0.00  0.00    -0.083 NA
ENDROOT
BRANCH   5  12
ATOM     12  C   UNL     1       1.011  -3.261   1.612  0.00  0.00    +0.224 C 
ATOM     13  O   UNL     1       1.636  -2.982   2.614  0.00  0.00    -0.275 OA
ATOM     14  N   UNL     1       0.811  -4.553   1.282  0.00  0.00    -0.285 N 
ATOM     15  H   UNL     1       0.256  -4.777   0.519  0.00  0.00    +0.155 HD
BRANCH  14  16
ATOM     16  C   UNL     1       1.406  -5.569   2.039  0.00  0.00    +0.034 A 
ATOM     17  C   UNL     1       1.852  -6.728   1.418  0.00  0.00    +0.026 A 
ATOM     18  C   UNL     1       2.438  -7.730   2.167  0.00  0.00    +0.040 A 
ATOM     19  C   UNL     1       2.580  -7.580   3.536  0.00  0.00    +0.124 A 
ATOM     20  C   UNL     1       2.135  -6.425   4.157  0.00  0.00    +0.040 A 
ATOM     21  C   UNL     1       1.555  -5.418   3.411  0.00  0.00    +0.026 A 
ATOM     22  F   UNL     1       3.152  -8.561   4.267  0.00  0.00    -0.205 F 
ENDBRANCH  14  16
ENDBRANCH   5  12
BRANCH  11  23
ATOM     23  O   UNL     1       1.657  -0.872  -3.303  0.00  0.00    -0.312 OA
BRANCH  23  24
ATOM     24  C   UNL     1       1.881  -0.192  -4.445  0.00  0.00    +0.373 C 
ATOM     25  O   UNL     1       1.511   0.962  -4.548  0.00  0.00    -0.242 OA
BRANCH  24  26
ATOM     26  C   UNL     1       2.574  -0.845  -5.566  0.00  0.00    +0.146 A 
ATOM     27  C   UNL     1       2.825  -0.169  -6.753  0.00  0.00    +0.033 A 
ATOM     28  C   UNL     1       3.470  -0.875  -7.800  0.00  0.00    +0.018 A 
ATOM     29  C   UNL     1       3.928  -0.197  -8.940  0.00  0.00    +0.011 A 
ATOM     30  C   UNL     1       4.584  -0.885  -9.920  0.00  0.00    +0.001 A 
ATOM     31  C   UNL     1       4.796  -2.252  -9.803  0.00  0.00    +0.004 A 
ATOM     32  C   UNL     1       4.337  -2.942  -8.700  0.00  0.00    +0.047 A 
ATOM     33  C   UNL     1       3.661  -2.265  -7.694  0.00  0.00    +0.139 A 
ATOM     34  O   UNL     1       3.168  -2.939  -6.627  0.00  0.00    -0.422 OA
ATOM     35  C   UNL     1       3.036  -2.242  -5.472  0.00  0.00    +0.352 A 
ATOM     36  O   UNL     1       3.285  -2.751  -4.395  0.00  0.00    -0.244 OA
ENDBRANCH  24  26
ENDBRANCH  23  24
ENDBRANCH  11  23
TORSDOF 5
