REMARK  Name = ZINC13164930
REMARK  10 active torsions:
REMARK  status: ('A' for Active; 'I' for Inactive)
REMARK    1  A    between atoms: C_1  and  C_2
REMARK    2  A    between atoms: C_7  and  C_9
REMARK    3  A    between atoms: C_7  and  C_29
REMARK    4  A    between atoms: C_7  and  N_62
REMARK    5  A    between atoms: C_9  and  N_10
REMARK    6  A    between atoms: C_11  and  C_13
REMARK    7  A    between atoms: C_16  and  S_19
REMARK    8  A    between atoms: S_19  and  N_22
REMARK    9  A    between atoms: N_22  and  C_23
REMARK   10  A    between atoms: C_23  and  C_24
REMARK                            x       y       z     vdW  Elec       q    Type
REMARK                         _______ _______ _______ _____ _____    ______ ____
ROOT
ATOM      1  N   UNL     1      -2.490   1.124  -3.094  0.00  0.00    -0.313 N 
ATOM      2  C   UNL     1      -3.536   1.528  -3.841  0.00  0.00    +0.244 C 
ATOM      3  O   UNL     1      -3.362   2.296  -4.767  0.00  0.00    -0.270 OA
ATOM      4  H   UNL     1      -2.629   0.512  -2.355  0.00  0.00    +0.149 HD
ENDROOT
BRANCH   2   5
ATOM      5  C   UNL     1      -4.897   1.037  -3.534  0.00  0.00    +0.037 A 
ATOM      6  C   UNL     1      -5.100   0.151  -2.475  0.00  0.00    +0.015 A 
ATOM      7  C   UNL     1      -6.372  -0.300  -2.192  0.00  0.00    +0.029 A 
ATOM      8  C   UNL     1      -7.444   0.117  -2.960  0.00  0.00    +0.105 A 
ATOM      9  C   UNL     1      -7.250   0.991  -4.014  0.00  0.00    +0.029 A 
ATOM     10  C   UNL     1      -5.983   1.454  -4.306  0.00  0.00    +0.015 A 
BRANCH   8  11
ATOM     11  S   UNL     1      -9.066  -0.469  -2.595  0.00  0.00    +0.059 S 
ATOM     12  O   UNL     1      -9.062  -0.848  -1.225  0.00  0.00    -0.153 OA
ATOM     13  O   UNL     1      -9.972   0.493  -3.117  0.00  0.00    -0.153 OA
BRANCH  11  14
ATOM     14  N   UNL     1      -9.293  -1.857  -3.469  0.00  0.00    -0.183 NA
ATOM     15  H   UNL     1      -9.965  -1.885  -4.168  0.00  0.00    +0.148 HD
BRANCH  14  16
ATOM     16  C   UNL     1      -8.480  -3.042  -3.187  0.00  0.00    +0.180 C 
BRANCH  16  17
ATOM     17  C   UNL     1      -9.109  -4.249  -3.834  0.00  0.00    +0.120 A 
ATOM     18  C   UNL     1      -8.856  -4.696  -5.077  0.00  0.00    +0.046 A 
ATOM     19  C   UNL     1      -9.659  -5.844  -5.271  0.00  0.00    +0.041 A 
ATOM     20  C   UNL     1     -10.354  -6.029  -4.135  0.00  0.00    +0.195 A 
ATOM     21  O   UNL     1     -10.013  -5.064  -3.266  0.00  0.00    -0.466 OA
ENDBRANCH  16  17
ENDBRANCH  14  16
ENDBRANCH  11  14
ENDBRANCH   8  11
ENDBRANCH   2   5
BRANCH   1  22
ATOM     22  C   UNL     1      -1.142   1.611  -3.398  0.00  0.00    +0.094 C 
BRANCH  22  23
ATOM     23  C   UNL     1      -0.145   1.005  -2.408  0.00  0.00    -0.013 C 
BRANCH  23  30
ATOM     24  C   UNL     1      -1.033   2.669   2.988  0.00  0.00    +0.007 C 
ATOM     25  C   UNL     1      -0.425   2.477   1.597  0.00  0.00    -0.018 C 
ATOM     26  C   UNL     1      -0.156   0.988   1.357  0.00  0.00    -0.015 C 
ATOM     27  C   UNL     1       0.395   0.796  -0.057  0.00  0.00    -0.078 C 
ATOM     28  C   UNL     1      -0.818   2.736  -0.855  0.00  0.00    -0.078 C 
ATOM     29  C   UNL     1      -1.404   2.987   0.536  0.00  0.00    -0.015 C 
ATOM     30  N   UNL     1      -0.604   1.284  -1.031  0.00  0.00    +0.386 N 
ATOM     31  H   UNL     1      -1.493   0.795  -0.871  0.00  0.00    -0.081 HD
ENDBRANCH  23  30
BRANCH  23  32
ATOM     32  C   UNL     1       1.220   1.598  -2.642  0.00  0.00    -0.022 A 
ATOM     33  C   UNL     1       2.325   1.016  -3.167  0.00  0.00    +0.009 A 
ATOM     34  C   UNL     1       3.482   1.762  -3.289  0.00  0.00    +0.008 A 
ATOM     35  C   UNL     1       3.477   3.055  -2.881  0.00  0.00    +0.045 A 
ATOM     36  S   UNL     1       1.798   3.254  -2.306  0.00  0.00    -0.103 S 
ENDBRANCH  23  32
ENDBRANCH  22  23
ENDBRANCH   1  22
TORSDOF 9
