REMARK  Name = ZINC12071905
REMARK  9 active torsions:
REMARK  status: ('A' for Active; 'I' for Inactive)
REMARK    1  A    between atoms: C_4  and  C_7
REMARK    2  A    between atoms: C_7  and  C_8
REMARK    3  A    between atoms: C_7  and  C_14
REMARK    4  A    between atoms: N_16  and  C_17
REMARK    5  A    between atoms: C_17  and  C_18
REMARK    6  A    between atoms: C_18  and  N_19
REMARK    7  A    between atoms: N_26  and  C_29
REMARK    8  A    between atoms: C_29  and  C_30
REMARK    9  A    between atoms: C_34  and  N_36
REMARK                            x       y       z     vdW  Elec       q    Type
REMARK                         _______ _______ _______ _____ _____    ______ ____
ROOT
ATOM      1  N   UNL     1      -0.238   7.625  -4.758  0.00  0.00    -0.245 N 
ATOM      2  C   UNL     1       0.040   7.241  -3.486  0.00  0.00    +0.165 A 
ATOM      3  C   UNL     1      -1.192   7.123  -2.824  0.00  0.00    +0.103 A 
ATOM      4  C   UNL     1      -2.198   7.451  -3.752  0.00  0.00    +0.150 A 
ATOM      5  N   UNL     1      -1.628   7.745  -4.888  0.00  0.00    -0.177 NA
ATOM      6  C   UNL     1      -1.184   6.715  -1.419  0.00  0.00    +0.265 A 
ATOM      7  O   UNL     1      -2.220   6.595  -0.789  0.00  0.00    -0.267 OA
ATOM      8  N   UNL     1       0.019   6.477  -0.844  0.00  0.00    -0.294 N 
ATOM      9  C   UNL     1       1.161   6.623  -1.562  0.00  0.00    +0.204 A 
ATOM     10  N   UNL     1       1.172   6.979  -2.813  0.00  0.00    -0.218 NA
ENDROOT
BRANCH   1  11
ATOM     11  C   UNL     1       0.746   7.872  -5.815  0.00  0.00    +0.164 C 
BRANCH  11  12
ATOM     12  C   UNL     1       1.171   9.342  -5.782  0.00  0.00    +0.127 C 
BRANCH  12  15
ATOM     13  C   UNL     1       2.675  10.822  -7.000  0.00  0.00    +0.225 C 
ATOM     14  O   UNL     1       2.328  11.727  -6.271  0.00  0.00    -0.275 OA
ATOM     15  N   UNL     1       2.156   9.589  -6.838  0.00  0.00    -0.313 N 
ATOM     16  H   UNL     1       2.433   8.865  -7.421  0.00  0.00    +0.149 HD
BRANCH  13  17
ATOM     17  C   UNL     1       3.688  11.076  -8.087  0.00  0.00    +0.135 C 
BRANCH  17  21
ATOM     18  C   UNL     1       4.875  15.179  -7.994  0.00  0.00    +0.000 A 
ATOM     19  C   UNL     1       4.401  14.623  -9.168  0.00  0.00    +0.000 A 
ATOM     20  C   UNL     1       4.017  13.295  -9.198  0.00  0.00    +0.005 A 
ATOM     21  C   UNL     1       4.107  12.524  -8.054  0.00  0.00    -0.031 A 
ATOM     22  C   UNL     1       4.576  13.081  -6.879  0.00  0.00    +0.005 A 
ATOM     23  C   UNL     1       4.964  14.408  -6.851  0.00  0.00    +0.000 A 
ENDBRANCH  17  21
BRANCH  17  24
ATOM     24  C   UNL     1       4.893  10.200  -7.865  0.00  0.00    -0.031 A 
ATOM     25  C   UNL     1       5.520  10.184  -6.633  0.00  0.00    +0.005 A 
ATOM     26  C   UNL     1       6.623   9.376  -6.429  0.00  0.00    +0.000 A 
ATOM     27  C   UNL     1       7.105   8.591  -7.459  0.00  0.00    +0.000 A 
ATOM     28  C   UNL     1       6.482   8.611  -8.693  0.00  0.00    +0.000 A 
ATOM     29  C   UNL     1       5.376   9.415  -8.896  0.00  0.00    +0.005 A 
ENDBRANCH  17  24
ENDBRANCH  13  17
ENDBRANCH  12  15
ENDBRANCH  11  12
ENDBRANCH   1  11
BRANCH   8  30
ATOM     30  C   UNL     1       0.087   6.067   0.560  0.00  0.00    +0.161 C 
BRANCH  30  31
ATOM     31  C   UNL     1       0.030   4.563   0.647  0.00  0.00    -0.025 A 
ATOM     32  C   UNL     1       1.197   3.824   0.615  0.00  0.00    +0.005 A 
ATOM     33  C   UNL     1       1.144   2.445   0.694  0.00  0.00    +0.003 A 
ATOM     34  C   UNL     1      -0.076   1.805   0.807  0.00  0.00    +0.033 A 
ATOM     35  C   UNL     1      -1.244   2.544   0.836  0.00  0.00    +0.127 A 
ATOM     36  C   UNL     1      -1.191   3.924   0.760  0.00  0.00    +0.038 A 
BRANCH  35  37
ATOM     37  N   UNL     1      -2.551   1.859   0.951  0.00  0.00    +0.056 N 
ATOM     38  O   UNL     1      -2.598   0.644   1.021  0.00  0.00    -0.126 OA
ATOM     39  O   UNL     1      -3.580   2.511   0.976  0.00  0.00    -0.126 OA
ENDBRANCH  35  37
ENDBRANCH  30  31
ENDBRANCH   8  30
TORSDOF 9
