REMARK  Name = ZINC35926362
REMARK  11 active torsions:
REMARK  status: ('A' for Active; 'I' for Inactive)
REMARK    1  A    between atoms: C_1  and  C_2
REMARK    2  A    between atoms: N_5  and  C_8
REMARK    3  A    between atoms: C_8  and  C_9
REMARK    4  A    between atoms: C_23  and  C_25
REMARK    5  A    between atoms: C_25  and  C_26
REMARK    6  A    between atoms: C_26  and  C_28
REMARK    7  A    between atoms: C_26  and  C_29
REMARK    8  A    between atoms: C_29  and  C_30
REMARK    9  A    between atoms: C_30  and  C_31
REMARK   10  A    between atoms: C_30  and  C_32
REMARK   11  A    between atoms: C_30  and  C_33
REMARK                            x       y       z     vdW  Elec       q    Type
REMARK                         _______ _______ _______ _____ _____    ______ ____
ROOT
ATOM      1  C   UNL     1       0.085  -5.436   2.128  0.00  0.00    +0.034 A 
ATOM      2  C   UNL     1      -0.792  -5.626   3.156  0.00  0.00    +0.091 A 
ATOM      3  C   UNL     1      -0.366  -5.365   4.470  0.00  0.00    +0.253 A 
ATOM      4  O   UNL     1      -1.124  -5.524   5.413  0.00  0.00    -0.268 OA
ATOM      5  N   UNL     1       0.899  -4.936   4.669  0.00  0.00    -0.295 N 
ATOM      6  H   UNL     1       1.214  -4.750   5.567  0.00  0.00    +0.172 HD
ATOM      7  C   UNL     1       1.729  -4.765   3.605  0.00  0.00    +0.198 A 
ATOM      8  N   UNL     1       1.323  -5.016   2.376  0.00  0.00    -0.223 NA
ATOM      9  N   UNL     1       3.010  -4.329   3.814  0.00  0.00    -0.298 N 
ATOM     10  C   UNL     1       3.530  -4.164   5.179  0.00  0.00    +0.127 C 
ATOM     11  C   UNL     1       4.817  -4.988   5.316  0.00  0.00    +0.126 C 
ATOM     12  N   UNL     1       5.696  -4.677   4.180  0.00  0.00    -0.298 N 
ATOM     13  C   UNL     1       5.176  -4.842   2.816  0.00  0.00    +0.126 C 
ATOM     14  C   UNL     1       3.891  -4.024   2.679  0.00  0.00    +0.127 C 
ATOM     15  C   UNL     1       6.957  -4.248   4.387  0.00  0.00    +0.216 C 
ATOM     16  O   UNL     1       7.375  -4.115   5.517  0.00  0.00    -0.276 OA
ENDROOT
BRANCH   1  17
ATOM     17  C   UNL     1      -0.347  -5.709   0.710  0.00  0.00    -0.022 C 
BRANCH  17  22
ATOM     18  C   UNL     1       0.398  -1.430  -2.985  0.00  0.00    +0.007 C 
ATOM     19  C   UNL     1       0.469  -2.787  -2.282  0.00  0.00    -0.018 C 
ATOM     20  C   UNL     1      -0.938  -3.381  -2.174  0.00  0.00    -0.016 C 
ATOM     21  C   UNL     1      -0.871  -4.700  -1.400  0.00  0.00    -0.078 C 
ATOM     22  N   UNL     1      -0.337  -4.455  -0.055  0.00  0.00    +0.383 N 
ATOM     23  C   UNL     1       1.039  -3.952  -0.149  0.00  0.00    -0.078 C 
ATOM     24  C   UNL     1       1.045  -2.605  -0.875  0.00  0.00    -0.016 C 
ATOM     25  H   UNL     1      -0.912  -3.772   0.415  0.00  0.00    -0.081 HD
ENDBRANCH  17  22
ENDBRANCH   1  17
BRANCH  15  26
ATOM     26  C   UNL     1       7.848  -3.933   3.212  0.00  0.00    +0.099 C 
BRANCH  26  27
ATOM     27  C   UNL     1       9.215  -3.470   3.719  0.00  0.00    -0.005 C 
ATOM     28  C   UNL     1       9.059  -2.149   4.474  0.00  0.00    +0.008 C 
BRANCH  27  29
ATOM     29  C   UNL     1      10.158  -3.270   2.531  0.00  0.00    +0.010 C 
BRANCH  29  30
ATOM     30  C   UNL     1      11.607  -3.417   2.999  0.00  0.00    -0.037 C 
ATOM     31  C   UNL     1      11.836  -4.841   3.510  0.00  0.00    +0.010 C 
ATOM     32  C   UNL     1      12.552  -3.136   1.829  0.00  0.00    +0.010 C 
ATOM     33  C   UNL     1      11.882  -2.420   4.127  0.00  0.00    +0.010 C 
ENDBRANCH  29  30
ENDBRANCH  27  29
ENDBRANCH  26  27
ENDBRANCH  15  26
TORSDOF 6
