REMARK  Name = ZINC20914367
REMARK  12 active torsions:
REMARK  status: ('A' for Active; 'I' for Inactive)
REMARK    1  A    between atoms: C_1  and  O_2
REMARK    2  A    between atoms: O_2  and  C_3
REMARK    3  A    between atoms: C_3  and  C_5
REMARK    4  A    between atoms: C_8  and  C_11
REMARK    5  A    between atoms: N_12  and  N_13
REMARK    6  A    between atoms: C_17  and  S_20
REMARK    7  A    between atoms: N_18  and  N_19
REMARK    8  A    between atoms: S_20  and  C_21
REMARK    9  A    between atoms: C_21  and  C_22
REMARK   10  A    between atoms: C_22  and  C_23
REMARK   11  A    between atoms: N_25  and  C_26
REMARK   12  A    between atoms: C_29  and  C_32
REMARK                            x       y       z     vdW  Elec       q    Type
REMARK                         _______ _______ _______ _____ _____    ______ ____
ROOT
ATOM      1  N   UNL     1      -0.016   1.383   0.006  0.00  0.00    -0.204 N 
ATOM      2  C   UNL     1       0.003  -0.004  -0.001  0.00  0.00    +0.254 A 
ATOM      3  N   UNL     1      -1.040  -0.796   0.019  0.00  0.00    -0.109 NA
ATOM      4  N   UNL     1      -0.661  -2.024   0.001  0.00  0.00    -0.119 NA
ATOM      5  C   UNL     1       0.648  -2.090  -0.022  0.00  0.00    +0.210 A 
ATOM      6  N   UNL     1       1.117  -0.803  -0.024  0.00  0.00    -0.211 N 
ATOM      7  H   UNL     1       0.929   1.946  -0.002  0.00  0.00    +0.177 HD
ENDROOT
BRANCH   6   8
ATOM      8  N   UNL     1       2.422  -0.401  -0.044  0.00  0.00    -0.294 N 
ATOM      9  H   UNL     1       3.228  -1.149  -0.061  0.00  0.00    +0.163 HD
ATOM     10  H   UNL     1       2.667   0.672  -0.043  0.00  0.00    +0.163 HD
ENDBRANCH   6   8
BRANCH   1  12
ATOM     11  C   UNL     1      -1.256   3.367   0.031  0.00  0.00    +0.138 C 
ATOM     12  N   UNL     1      -1.238   2.067   0.025  0.00  0.00    -0.188 NA
BRANCH  11  16
ATOM     13  C   UNL     1      -4.952   5.435   0.087  0.00  0.00    +0.059 A 
ATOM     14  C   UNL     1      -3.750   6.151   0.076  0.00  0.00    +0.015 A 
ATOM     15  C   UNL     1      -2.559   5.485   0.058  0.00  0.00    +0.010 A 
ATOM     16  C   UNL     1      -2.540   4.086   0.051  0.00  0.00    -0.005 A 
ATOM     17  C   UNL     1      -3.743   3.370   0.056  0.00  0.00    +0.010 A 
ATOM     18  C   UNL     1      -4.934   4.037   0.080  0.00  0.00    +0.015 A 
BRANCH  13  19
ATOM     19  C   UNL     1      -6.239   6.155   0.106  0.00  0.00    +0.339 C 
ATOM     20  O   UNL     1      -6.255   7.370   0.112  0.00  0.00    -0.245 OA
BRANCH  19  22
ATOM     21  C   UNL     1      -8.625   6.240   0.135  0.00  0.00    +0.280 C 
ATOM     22  O   UNL     1      -7.396   5.466   0.116  0.00  0.00    -0.464 OA
ENDBRANCH  19  22
ENDBRANCH  13  19
ENDBRANCH  11  16
ENDBRANCH   1  12
BRANCH   5  23
ATOM     23  S   UNL     1       1.621  -3.559  -0.045  0.00  0.00    -0.084 S 
BRANCH  23  24
ATOM     24  C   UNL     1       0.309  -4.806  -0.029  0.00  0.00    +0.086 C 
BRANCH  24  25
ATOM     25  C   UNL     1       0.932  -6.203  -0.046  0.00  0.00    +0.107 C 
BRANCH  25  26
ATOM     26  C   UNL     1      -0.160  -7.241  -0.033  0.00  0.00    +0.218 C 
ATOM     27  O   UNL     1      -1.323  -6.897  -0.012  0.00  0.00    -0.275 OA
ATOM     28  N   UNL     1       0.155  -8.551  -0.045  0.00  0.00    -0.285 N 
ATOM     29  H   UNL     1       1.206  -8.863  -0.141  0.00  0.00    +0.155 HD
BRANCH  28  30
ATOM     30  C   UNL     1      -0.854  -9.514   0.065  0.00  0.00    +0.033 A 
ATOM     31  C   UNL     1      -0.613 -10.699   0.748  0.00  0.00    +0.024 A 
ATOM     32  C   UNL     1      -1.613 -11.646   0.860  0.00  0.00    +0.014 A 
ATOM     33  C   UNL     1      -2.849 -11.419   0.282  0.00  0.00    +0.055 A 
ATOM     34  C   UNL     1      -3.090 -10.243  -0.403  0.00  0.00    +0.014 A 
ATOM     35  C   UNL     1      -2.096  -9.290  -0.514  0.00  0.00    +0.024 A 
BRANCH  33  36
ATOM     36  C   UNL     1      -3.935 -12.457   0.400  0.00  0.00    +0.417 C 
ATOM     37  F   UNL     1      -3.853 -13.343  -0.680  0.00  0.00    -0.166 F 
ATOM     38  F   UNL     1      -3.776 -13.165   1.596  0.00  0.00    -0.166 F 
ATOM     39  F   UNL     1      -5.184 -11.827   0.393  0.00  0.00    -0.166 F 
ENDBRANCH  33  36
ENDBRANCH  28  30
ENDBRANCH  25  26
ENDBRANCH  24  25
ENDBRANCH  23  24
ENDBRANCH   5  23
TORSDOF 11
