REMARK  Name = ZINC02916654
REMARK  10 active torsions:
REMARK  status: ('A' for Active; 'I' for Inactive)
REMARK    1  A    between atoms: C_1  and  O_2
REMARK    2  A    between atoms: O_2  and  C_3
REMARK    3  A    between atoms: C_7  and  C_11
REMARK    4  A    between atoms: C_8  and  O_9
REMARK    5  A    between atoms: O_9  and  C_10
REMARK    6  A    between atoms: C_24  and  C_26
REMARK    7  A    between atoms: C_30  and  O_34
REMARK    8  A    between atoms: C_31  and  O_32
REMARK    9  A    between atoms: O_32  and  C_33
REMARK   10  A    between atoms: O_34  and  C_35
REMARK                            x       y       z     vdW  Elec       q    Type
REMARK                         _______ _______ _______ _____ _____    ______ ____
ROOT
ATOM      1  C   UNL     1       3.662  -1.990  -3.848  0.00  0.00    +0.017 C 
ATOM      2  C   UNL     1       3.568  -0.776  -3.283  0.00  0.00    -0.023 C 
ATOM      3  C   UNL     1       4.186   0.441  -3.938  0.00  0.00    +0.037 C 
ATOM      4  C   UNL     1       4.859   1.263  -2.829  0.00  0.00    +0.009 C 
ATOM      5  C   UNL     1       3.793   1.731  -1.841  0.00  0.00    +0.035 C 
ATOM      6  C   UNL     1       2.974   0.581  -1.334  0.00  0.00    -0.020 C 
ATOM      7  C   UNL     1       2.855  -0.585  -1.998  0.00  0.00    +0.046 C 
ATOM      8  N   UNL     1       2.088  -1.603  -1.515  0.00  0.00    -0.326 N 
ATOM      9  C   UNL     1       1.415  -1.560  -0.392  0.00  0.00    +0.215 C 
ATOM     10  N   UNL     1       0.620  -2.465   0.221  0.00  0.00    -0.206 NA
ATOM     11  C   UNL     1       0.156  -1.978   1.337  0.00  0.00    +0.203 C 
ATOM     12  N   UNL     1       0.630  -0.714   1.513  0.00  0.00    -0.251 N 
ATOM     13  N   UNL     1       1.438  -0.436   0.408  0.00  0.00    -0.210 N 
ATOM     14  C   UNL     1       2.232   0.721  -0.016  0.00  0.00    +0.159 C 
ATOM     15  H   UNL     1       0.494   0.044   2.300  0.00  0.00    +0.171 HD
ATOM     16  H   UNL     1       2.058  -2.507  -2.140  0.00  0.00    +0.169 HD
ENDROOT
BRANCH   1  21
ATOM     17  C   UNL     1       5.549  -3.347  -6.807  0.00  0.00    +0.162 A 
ATOM     18  C   UNL     1       5.263  -2.386  -7.764  0.00  0.00    +0.049 A 
ATOM     19  C   UNL     1       4.460  -1.303  -7.450  0.00  0.00    +0.004 A 
ATOM     20  C   UNL     1       3.938  -1.169  -6.181  0.00  0.00    +0.012 A 
ATOM     21  C   UNL     1       4.218  -2.130  -5.205  0.00  0.00    +0.021 A 
ATOM     22  C   UNL     1       5.035  -3.222  -5.522  0.00  0.00    +0.169 A 
BRANCH  17  24
ATOM     23  C   UNL     1       6.838  -4.469  -8.461  0.00  0.00    +0.277 C 
ATOM     24  O   UNL     1       6.338  -4.408  -7.123  0.00  0.00    -0.491 OA
ENDBRANCH  17  24
BRANCH  22  25
ATOM     25  O   UNL     1       5.318  -4.159  -4.580  0.00  0.00    -0.491 OA
ATOM     26  C   UNL     1       4.427  -5.272  -4.482  0.00  0.00    +0.277 C 
ENDBRANCH  22  25
ENDBRANCH   1  21
BRANCH  14  27
ATOM     27  C   UNL     1       1.309   1.907  -0.123  0.00  0.00    +0.024 A 
ATOM     28  C   UNL     1       0.940   2.386  -1.366  0.00  0.00    +0.010 A 
ATOM     29  C   UNL     1       0.098   3.478  -1.468  0.00  0.00    +0.004 A 
ATOM     30  C   UNL     1      -0.387   4.089  -0.326  0.00  0.00    +0.049 A 
ATOM     31  C   UNL     1      -0.021   3.614   0.923  0.00  0.00    +0.162 A 
ATOM     32  C   UNL     1       0.831   2.518   1.025  0.00  0.00    +0.167 A 
BRANCH  32  33
ATOM     33  O   UNL     1       1.194   2.049   2.248  0.00  0.00    -0.491 OA
ATOM     34  C   UNL     1       2.362   2.619   2.842  0.00  0.00    +0.277 C 
ENDBRANCH  32  33
BRANCH  31  35
ATOM     35  O   UNL     1      -0.492   4.218   2.047  0.00  0.00    -0.491 OA
ATOM     36  C   UNL     1      -1.362   5.337   1.866  0.00  0.00    +0.277 C 
ENDBRANCH  31  35
ENDBRANCH  14  27
TORSDOF 6
