REMARK  Name = ZINC35842722
REMARK  13 active torsions:
REMARK  status: ('A' for Active; 'I' for Inactive)
REMARK    1  A    between atoms: C_1  and  C_2
REMARK    2  A    between atoms: C_2  and  C_3
REMARK    3  A    between atoms: C_2  and  C_4
REMARK    4  A    between atoms: C_4  and  N_5
REMARK    5  A    between atoms: N_5  and  C_6
REMARK    6  A    between atoms: N_5  and  C_12
REMARK    7  A    between atoms: C_6  and  C_7
REMARK    8  A    between atoms: C_12  and  C_13
REMARK    9  A    between atoms: N_15  and  C_16
REMARK   10  A    between atoms: N_15  and  C_28
REMARK   11  A    between atoms: C_16  and  C_17
REMARK   12  A    between atoms: C_17  and  C_18
REMARK   13  A    between atoms: C_28  and  C_29
REMARK                            x       y       z     vdW  Elec       q    Type
REMARK                         _______ _______ _______ _____ _____    ______ ____
ROOT
ATOM      1  C   UNL     1      -4.157   0.640   0.065  0.00  0.00    +0.199 C 
ATOM      2  O   UNL     1      -3.456   1.439   0.649  0.00  0.00    -0.278 OA
ATOM      3  N   UNL     1      -5.462   0.529   0.383  0.00  0.00    -0.298 N 
ENDROOT
BRANCH   1   4
ATOM      4  C   UNL     1      -3.568  -0.229  -1.017  0.00  0.00    +0.019 C 
BRANCH   4   5
ATOM      5  N   UNL     1      -2.115  -0.024  -1.073  0.00  0.00    +0.390 N 
ATOM      6  H   UNL     1      -1.918   0.958  -1.194  0.00  0.00    -0.081 HD
BRANCH   5   7
ATOM      7  C   UNL     1      -1.505  -0.495   0.178  0.00  0.00    -0.075 C 
BRANCH   7   9
ATOM      8  C   UNL     1       0.156   1.371   0.131  0.00  0.00    +0.005 C 
ATOM      9  C   UNL     1      -0.015  -0.149   0.181  0.00  0.00    -0.034 C 
ATOM     10  C   UNL     1       0.632  -0.694   1.456  0.00  0.00    +0.005 C 
ENDBRANCH   7   9
ENDBRANCH   5   7
BRANCH   5  11
ATOM     11  C   UNL     1      -1.557  -0.778  -2.204  0.00  0.00    -0.002 C 
BRANCH  11  12
ATOM     12  C   UNL     1      -2.080  -0.206  -3.496  0.00  0.00    +0.089 A 
ATOM     13  C   UNL     1      -1.557   0.839  -4.162  0.00  0.00    +0.042 A 
ATOM     14  C   UNL     1      -2.356   1.033  -5.312  0.00  0.00    +0.041 A 
ATOM     15  C   UNL     1      -3.319   0.095  -5.280  0.00  0.00    +0.195 A 
ATOM     16  O   UNL     1      -3.144  -0.656  -4.181  0.00  0.00    -0.470 OA
ENDBRANCH  11  12
ENDBRANCH   5  11
ENDBRANCH   4   5
ENDBRANCH   1   4
BRANCH   3  17
ATOM     17  C   UNL     1      -6.061   1.453   1.349  0.00  0.00    +0.113 C 
BRANCH  17  18
ATOM     18  C   UNL     1      -6.608   2.677   0.612  0.00  0.00    +0.056 C 
BRANCH  18  19
ATOM     19  C   UNL     1      -7.225   3.627   1.606  0.00  0.00    -0.021 A 
ATOM     20  C   UNL     1      -8.521   3.692   1.950  0.00  0.00    +0.087 A 
ATOM     21  N   UNL     1      -8.707   4.678   2.881  0.00  0.00    -0.360 N 
ATOM     22  H   UNL     1      -9.559   4.913   3.281  0.00  0.00    +0.165 HD
ATOM     23  C   UNL     1      -7.506   5.287   3.165  0.00  0.00    +0.047 A 
ATOM     24  C   UNL     1      -6.523   4.651   2.383  0.00  0.00    +0.003 A 
ATOM     25  C   UNL     1      -5.192   5.062   2.469  0.00  0.00    +0.010 A 
ATOM     26  C   UNL     1      -4.848   6.078   3.316  0.00  0.00    +0.001 A 
ATOM     27  C   UNL     1      -5.813   6.705   4.092  0.00  0.00    +0.002 A 
ATOM     28  C   UNL     1      -7.134   6.322   4.016  0.00  0.00    +0.026 A 
ENDBRANCH  18  19
ENDBRANCH  17  18
ENDBRANCH   3  17
BRANCH   3  29
ATOM     29  C   UNL     1      -6.280  -0.516  -0.237  0.00  0.00    +0.142 C 
BRANCH  29  30
ATOM     30  C   UNL     1      -6.347  -1.711   0.678  0.00  0.00    -0.030 A 
ATOM     31  C   UNL     1      -5.357  -2.676   0.628  0.00  0.00    +0.006 A 
ATOM     32  C   UNL     1      -5.418  -3.773   1.467  0.00  0.00    +0.020 A 
ATOM     33  C   UNL     1      -6.468  -3.905   2.357  0.00  0.00    +0.041 A 
ATOM     34  C   UNL     1      -7.458  -2.939   2.407  0.00  0.00    +0.020 A 
ATOM     35  C   UNL     1      -7.393  -1.840   1.572  0.00  0.00    +0.006 A 
ATOM     36 CL   UNL     1      -6.545  -5.282   3.411  0.00  0.00    -0.084 Cl
ENDBRANCH  29  30
ENDBRANCH   3  29
TORSDOF 11
