REMARK  Name = ZINC41637596
REMARK  4 active torsions:
REMARK  status: ('A' for Active; 'I' for Inactive)
REMARK    1  A    between atoms: C_1  and  C_2
REMARK    2  A    between atoms: C_5  and  C_7
REMARK    3  A    between atoms: C_7  and  C_9
REMARK    4  A    between atoms: C_7  and  N_18
REMARK                            x       y       z     vdW  Elec       q    Type
REMARK                         _______ _______ _______ _____ _____    ______ ____
ROOT
ATOM      1  C   UNL     1       1.684  -3.245  -0.023  0.00  0.00    +0.166 C 
ENDROOT
BRANCH   1   2
ATOM      2  N   UNL     1       2.822  -2.969   0.864  0.00  0.00    -0.284 NA
ATOM      3  C   UNL     1       3.754  -4.107   0.897  0.00  0.00    +0.090 C 
ATOM      4  C   UNL     1       5.070  -3.640   1.519  0.00  0.00    +0.051 C 
ATOM      5  C   UNL     1       4.799  -2.929   2.820  0.00  0.00    -0.042 A 
ATOM      6  C   UNL     1       5.851  -2.747   3.705  0.00  0.00    +0.004 A 
ATOM      7  C   UNL     1       5.647  -2.097   4.906  0.00  0.00    +0.000 A 
ATOM      8  C   UNL     1       4.388  -1.625   5.228  0.00  0.00    +0.000 A 
ATOM      9  C   UNL     1       3.341  -1.806   4.348  0.00  0.00    +0.005 A 
ATOM     10  C   UNL     1       3.543  -2.462   3.142  0.00  0.00    -0.030 A 
ATOM     11  C   UNL     1       2.366  -2.646   2.220  0.00  0.00    +0.120 C 
ENDBRANCH   1   2
BRANCH   1  12
ATOM     12  C   UNL     1       2.184  -3.476  -1.425  0.00  0.00    +0.084 A 
ATOM     13  C   UNL     1       1.975  -4.521  -2.235  0.00  0.00    +0.285 A 
ATOM     14  N   UNL     1       2.522  -4.550  -3.495  0.00  0.00    -0.170 N 
ATOM     15  C   UNL     1       3.275  -3.481  -3.873  0.00  0.00    +0.199 A 
ATOM     16  S   UNL     1       3.205  -2.424  -2.446  0.00  0.00    -0.047 S 
ATOM     17  N   UNL     1       3.718  -3.664  -5.087  0.00  0.00    -0.208 NA
ATOM     18  C   UNL     1       3.281  -4.836  -5.543  0.00  0.00    +0.246 A 
ATOM     19  N   UNL     1       2.556  -5.412  -4.622  0.00  0.00    -0.150 NA
ATOM     20  O   UNL     1       1.215  -5.564  -1.806  0.00  0.00    -0.265 OA
ENDBRANCH   1  12
BRANCH   1  25
ATOM     21  C   UNL     1      -0.018   1.503   0.010  0.00  0.00    +0.086 C 
ATOM     22  C   UNL     1       0.002  -0.004   0.002  0.00  0.00    +0.102 A 
ATOM     23  C   UNL     1      -1.078  -0.805   0.003  0.00  0.00    +0.045 A 
ATOM     24  C   UNL     1      -0.601  -2.136  -0.007  0.00  0.00    +0.047 A 
ATOM     25  C   UNL     1       0.742  -2.069  -0.013  0.00  0.00    +0.127 A 
ATOM     26  O   UNL     1       1.102  -0.775  -0.013  0.00  0.00    -0.463 OA
ENDBRANCH   1  25
TORSDOF 3
