REMARK  Name = ZINC14524919
REMARK  7 active torsions:
REMARK  status: ('A' for Active; 'I' for Inactive)
REMARK    1  A    between atoms: C_1  and  C_2
REMARK    2  A    between atoms: N_5  and  C_8
REMARK    3  A    between atoms: C_11  and  C_17
REMARK    4  A    between atoms: C_13  and  N_14
REMARK    5  A    between atoms: C_17  and  N_19
REMARK    6  A    between atoms: C_22  and  C_25
REMARK    7  A    between atoms: C_25  and  N_26
REMARK                            x       y       z     vdW  Elec       q    Type
REMARK                         _______ _______ _______ _____ _____    ______ ____
ROOT
ATOM      1  C   UNL     1      -2.877  -6.243   5.095  0.00  0.00    +0.270 C 
ATOM      2  O   UNL     1      -3.467  -5.947   6.120  0.00  0.00    -0.268 OA
ENDROOT
BRANCH   1   3
ATOM      3  N   UNL     1      -2.712  -7.527   4.766  0.00  0.00    -0.152 NA
ATOM      4  C   UNL     1      -3.193  -8.484   5.557  0.00  0.00    +0.163 A 
ATOM      5  N   UNL     1      -3.119  -9.834   5.394  0.00  0.00    -0.341 N 
ATOM      6  C   UNL     1      -3.684 -10.640   6.333  0.00  0.00    +0.008 A 
ATOM      7  C   UNL     1      -4.283 -10.046   7.371  0.00  0.00    +0.067 A 
ATOM      8  S   UNL     1      -4.032  -8.319   7.005  0.00  0.00    -0.061 S 
ATOM      9  H   UNL     1      -2.673 -10.214   4.621  0.00  0.00    +0.167 HD
BRANCH   6  10
ATOM     10  C   UNL     1      -3.637 -12.141   6.208  0.00  0.00    -0.024 C 
BRANCH  10  11
ATOM     11  N   UNL     1      -4.420 -12.560   5.038  0.00  0.00    +0.383 N 
ATOM     12  C   UNL     1      -4.263 -14.006   4.839  0.00  0.00    -0.078 C 
ATOM     13  C   UNL     1      -5.011 -14.435   3.575  0.00  0.00    -0.019 C 
ATOM     14  C   UNL     1      -6.497 -14.097   3.728  0.00  0.00    -0.004 C 
ATOM     15  C   UNL     1      -6.643 -12.598   4.009  0.00  0.00    -0.019 C 
ATOM     16  C   UNL     1      -5.835 -12.238   5.257  0.00  0.00    -0.078 C 
ATOM     17  H   UNL     1      -4.087 -12.072   4.220  0.00  0.00    -0.081 HD
ENDBRANCH  10  11
ENDBRANCH   6  10
ENDBRANCH   1   3
BRANCH   1  21
ATOM     18  C   UNL     1      -1.343  -3.189   2.568  0.00  0.00    +0.060 A 
ATOM     19  C   UNL     1      -1.170  -4.527   2.225  0.00  0.00    +0.026 A 
ATOM     20  C   UNL     1      -1.666  -5.518   3.042  0.00  0.00    +0.015 A 
ATOM     21  C   UNL     1      -2.342  -5.181   4.216  0.00  0.00    +0.041 A 
ATOM     22  C   UNL     1      -2.514  -3.838   4.558  0.00  0.00    +0.047 A 
ATOM     23  C   UNL     1      -2.012  -2.850   3.741  0.00  0.00    +0.148 A 
BRANCH  18  28
ATOM     24  C   UNL     1       1.346  -1.121  -1.749  0.00  0.00    +0.007 C 
ATOM     25  C   UNL     1       0.527  -1.053  -0.459  0.00  0.00    -0.011 C 
ATOM     26  C   UNL     1       1.304  -1.727   0.674  0.00  0.00    +0.022 C 
ATOM     27  C   UNL     1       0.496  -1.627   1.972  0.00  0.00    +0.105 C 
ATOM     28  N   UNL     1      -0.841  -2.189   1.741  0.00  0.00    -0.328 N 
ATOM     29  C   UNL     1      -1.639  -1.675   0.619  0.00  0.00    +0.105 C 
ATOM     30  C   UNL     1      -0.807  -1.775  -0.664  0.00  0.00    +0.022 C 
ENDBRANCH  18  28
BRANCH  23  31
ATOM     31  N   UNL     1      -2.189  -1.427   4.106  0.00  0.00    +0.058 N 
ATOM     32  O   UNL     1      -2.693  -1.132   5.164  0.00  0.00    -0.126 OA
ATOM     33  O   UNL     1      -1.829  -0.558   3.345  0.00  0.00    -0.126 OA
ENDBRANCH  23  31
ENDBRANCH   1  21
TORSDOF 6
