REMARK  Name = ZINC11691799
REMARK  6 active torsions:
REMARK  status: ('A' for Active; 'I' for Inactive)
REMARK    1  A    between atoms: C_4  and  C_7
REMARK    2  A    between atoms: C_7  and  C_9
REMARK    3  A    between atoms: C_11  and  C_23
REMARK    4  A    between atoms: C_17  and  C_18
REMARK    5  A    between atoms: C_17  and  O_22
REMARK    6  A    between atoms: C_27  and  N_29
REMARK                            x       y       z     vdW  Elec       q    Type
REMARK                         _______ _______ _______ _____ _____    ______ ____
ROOT
ATOM      1  C   UNL     1       1.807   1.056   0.949  0.00  0.00    +0.144 C 
ATOM      2  C   UNL     1       1.368   2.276   0.131  0.00  0.00    +0.117 C 
ATOM      3  N   UNL     1       0.039   2.025  -0.430  0.00  0.00    -0.319 N 
ATOM      4  C   UNL     1      -0.373   0.781  -0.718  0.00  0.00    +0.133 C 
ATOM      5  S   UNL     1      -1.935   0.567  -1.385  0.00  0.00    -0.019 S 
ATOM      6  N   UNL     1       0.391  -0.301  -0.505  0.00  0.00    -0.291 N 
ATOM      7  C   UNL     1       1.740  -0.184   0.051  0.00  0.00    +0.241 C 
ATOM      8  H   UNL     1      -0.554   2.773  -0.600  0.00  0.00    +0.148 HD
ATOM      9  H   UNL     1       0.041  -1.179  -0.723  0.00  0.00    +0.151 HD
ENDROOT
BRANCH   2  10
ATOM     10  C   UNL     1       1.318   3.489   1.022  0.00  0.00    -0.024 A 
ATOM     11  C   UNL     1       0.148   3.811   1.686  0.00  0.00    +0.009 A 
ATOM     12  C   UNL     1       0.101   4.919   2.508  0.00  0.00    +0.053 A 
ATOM     13  C   UNL     1       1.226   5.717   2.660  0.00  0.00    +0.209 A 
ATOM     14  C   UNL     1       2.397   5.396   1.989  0.00  0.00    +0.173 A 
ATOM     15  C   UNL     1       2.440   4.283   1.172  0.00  0.00    +0.042 A 
ATOM     16  O   UNL     1       1.180   6.811   3.465  0.00  0.00    -0.285 OA
BRANCH  14  17
ATOM     17  N   UNL     1       3.598   6.245   2.149  0.00  0.00    +0.060 N 
ATOM     18  O   UNL     1       4.626   5.963   1.559  0.00  0.00    -0.126 OA
ATOM     19  O   UNL     1       3.559   7.226   2.869  0.00  0.00    -0.126 OA
ENDBRANCH  14  17
ENDBRANCH   2  10
BRANCH   7  20
ATOM     20  C   UNL     1       2.752  -0.048  -1.088  0.00  0.00    +0.436 C 
ATOM     21  F   UNL     1       2.457   1.094  -1.840  0.00  0.00    -0.166 F 
ATOM     22  F   UNL     1       4.041   0.064  -0.556  0.00  0.00    -0.166 F 
ATOM     23  F   UNL     1       2.683  -1.178  -1.910  0.00  0.00    -0.166 F 
ENDBRANCH   7  20
BRANCH   1  24
ATOM     24  C   UNL     1       0.885   0.879   2.127  0.00  0.00    +0.173 C 
ATOM     25  O   UNL     1      -0.292   1.150   2.022  0.00  0.00    -0.292 OA
BRANCH  24  29
ATOM     26  C   UNL     1       2.407  -0.567   5.813  0.00  0.00    +0.000 A 
ATOM     27  C   UNL     1       1.063  -0.259   5.697  0.00  0.00    +0.001 A 
ATOM     28  C   UNL     1       0.560   0.212   4.502  0.00  0.00    +0.011 A 
ATOM     29  C   UNL     1       1.413   0.378   3.406  0.00  0.00    +0.018 A 
ATOM     30  C   UNL     1       2.769   0.059   3.530  0.00  0.00    +0.011 A 
ATOM     31  C   UNL     1       3.257  -0.406   4.733  0.00  0.00    +0.001 A 
ENDBRANCH  24  29
ENDBRANCH   1  24
BRANCH   7  32
ATOM     32  O   UNL     1       2.041  -1.348   0.822  0.00  0.00    -0.364 OA
ATOM     33  H   UNL     1       2.012  -2.173   0.317  0.00  0.00    +0.212 HD
ENDBRANCH   7  32
TORSDOF 6
