REMARK  Name = ZINC10085433
REMARK  9 active torsions:
REMARK  status: ('A' for Active; 'I' for Inactive)
REMARK    1  A    between atoms: C_1  and  C_2
REMARK    2  A    between atoms: C_5  and  S_8
REMARK    3  A    between atoms: S_8  and  N_11
REMARK    4  A    between atoms: N_11  and  C_12
REMARK    5  A    between atoms: N_11  and  C_13
REMARK    6  A    between atoms: C_16  and  C_19
REMARK    7  A    between atoms: N_21  and  C_22
REMARK    8  A    between atoms: C_27  and  C_28
REMARK    9  A    between atoms: C_27  and  N_62
REMARK                            x       y       z     vdW  Elec       q    Type
REMARK                         _______ _______ _______ _____ _____    ______ ____
ROOT
ATOM      1  C   UNL     1      -0.447   1.280  -0.266  0.00  0.00    +0.051 A 
ATOM      2  C   UNL     1       0.815   1.849  -0.414  0.00  0.00    +0.025 A 
ATOM      3  C   UNL     1       1.906   1.050  -0.671  0.00  0.00    +0.015 A 
ATOM      4  C   UNL     1       1.746  -0.334  -0.781  0.00  0.00    +0.037 A 
ATOM      5  C   UNL     1       0.477  -0.902  -0.632  0.00  0.00    +0.015 A 
ATOM      6  C   UNL     1      -0.610  -0.098  -0.376  0.00  0.00    +0.025 A 
ENDROOT
BRANCH   4   7
ATOM      7  C   UNL     1       2.913  -1.194  -1.055  0.00  0.00    +0.244 C 
ATOM      8  O   UNL     1       2.772  -2.397  -1.151  0.00  0.00    -0.270 OA
ATOM      9  N   UNL     1       4.135  -0.644  -1.199  0.00  0.00    -0.310 N 
ATOM     10  H   UNL     1       4.247   0.316  -1.123  0.00  0.00    +0.149 HD
BRANCH   9  11
ATOM     11  C   UNL     1       5.295  -1.498  -1.471  0.00  0.00    +0.055 C 
ATOM     12  C   UNL     1       5.939  -1.965  -0.146  0.00  0.00    +0.002 C 
ATOM     13  C   UNL     1       7.456  -1.898  -0.456  0.00  0.00    -0.077 C 
ATOM     14  C   UNL     1       6.393  -0.694  -2.191  0.00  0.00    -0.056 C 
ATOM     15  N   UNL     1       7.551  -0.695  -1.297  0.00  0.00    +0.384 N 
ATOM     16  H   UNL     1       7.533   0.144  -0.705  0.00  0.00    -0.081 HD
BRANCH  15  17
ATOM     17  C   UNL     1       8.820  -0.710  -2.086  0.00  0.00    -0.043 C 
BRANCH  17  18
ATOM     18  C   UNL     1       9.992  -0.454  -1.173  0.00  0.00    -0.064 A 
ATOM     19  C   UNL     1      10.431   0.839  -0.959  0.00  0.00    +0.002 A 
ATOM     20  C   UNL     1      11.503   1.074  -0.118  0.00  0.00    +0.000 A 
ATOM     21  C   UNL     1      12.142   0.016   0.500  0.00  0.00    +0.000 A 
ATOM     22  C   UNL     1      11.706  -1.277   0.282  0.00  0.00    +0.000 A 
ATOM     23  C   UNL     1      10.631  -1.512  -0.555  0.00  0.00    +0.002 A 
ENDBRANCH  17  18
ENDBRANCH  15  17
ENDBRANCH   9  11
ENDBRANCH   4   7
BRANCH   1  24
ATOM     24  N   UNL     1      -1.548   2.091  -0.013  0.00  0.00    -0.206 N 
ATOM     25  C   UNL     1      -2.887   1.654  -0.416  0.00  0.00    +0.157 C 
BRANCH  24  26
ATOM     26  S   UNL     1      -1.346   3.549   0.745  0.00  0.00    +0.074 S 
ATOM     27  O   UNL     1      -2.579   3.849   1.384  0.00  0.00    -0.150 OA
ATOM     28  O   UNL     1      -0.118   3.471   1.456  0.00  0.00    -0.150 OA
BRANCH  26  33
ATOM     29  C   UNL     1      -0.581   7.705  -3.562  0.00  0.00    +0.044 C 
ATOM     30  C   UNL     1      -0.772   6.668  -2.486  0.00  0.00    -0.050 A 
ATOM     31  C   UNL     1      -2.046   6.274  -2.124  0.00  0.00    +0.005 A 
ATOM     32  C   UNL     1      -2.222   5.322  -1.137  0.00  0.00    +0.029 A 
ATOM     33  C   UNL     1      -1.122   4.763  -0.513  0.00  0.00    +0.109 A 
ATOM     34  C   UNL     1       0.152   5.160  -0.872  0.00  0.00    +0.029 A 
ATOM     35  C   UNL     1       0.328   6.109  -1.861  0.00  0.00    +0.005 A 
ENDBRANCH  26  33
ENDBRANCH  24  26
ENDBRANCH   1  24
TORSDOF 7
