REMARK  Name = ZINC32906695
REMARK  7 active torsions:
REMARK  status: ('A' for Active; 'I' for Inactive)
REMARK    1  A    between atoms: C_1  and  S_2
REMARK    2  A    between atoms: S_2  and  C_5
REMARK    3  A    between atoms: C_10  and  S_11
REMARK    4  A    between atoms: S_11  and  N_14
REMARK    5  A    between atoms: N_14  and  C_15
REMARK    6  A    between atoms: C_19  and  S_21
REMARK    7  A    between atoms: S_21  and  N_24
REMARK                            x       y       z     vdW  Elec       q    Type
REMARK                         _______ _______ _______ _____ _____    ______ ____
ROOT
ATOM      1  C   UNL     1       4.526   4.434   4.297  0.00  0.00    +0.076 A 
ATOM      2  C   UNL     1       3.921   5.681   4.204  0.00  0.00    +0.027 A 
ATOM      3  C   UNL     1       2.554   5.772   4.029  0.00  0.00    +0.004 A 
ATOM      4  C   UNL     1       1.788   4.624   3.948  0.00  0.00    +0.029 A 
ATOM      5  C   UNL     1       2.386   3.381   4.040  0.00  0.00    +0.114 A 
ATOM      6  C   UNL     1       3.752   3.283   4.220  0.00  0.00    +0.055 A 
ENDROOT
BRANCH   5   7
ATOM      7  S   UNL     1       1.405   1.922   3.935  0.00  0.00    +0.100 S 
ATOM      8  O   UNL     1       0.087   2.290   4.319  0.00  0.00    -0.146 OA
ATOM      9  O   UNL     1       2.132   0.895   4.596  0.00  0.00    -0.146 OA
BRANCH   7  10
ATOM     10  N   UNL     1       1.331   1.496   2.336  0.00  0.00    -0.118 NA
ATOM     11  C   UNL     1       0.664   0.447   1.977  0.00  0.00    +0.117 C 
ATOM     12  C   UNL     1      -0.042  -0.390   2.970  0.00  0.00    +0.073 C 
ATOM     13  C   UNL     1       0.764  -1.574   3.532  0.00  0.00    +0.008 C 
ATOM     14  C   UNL     1       1.571  -2.250   2.394  0.00  0.00    +0.002 C 
ATOM     15  C   UNL     1       0.788  -2.337   1.112  0.00  0.00    +0.019 C 
ATOM     16  C   UNL     1       1.220  -1.136   0.263  0.00  0.00    +0.102 C 
ATOM     17  N   UNL     1       0.585   0.062   0.629  0.00  0.00    -0.331 N 
ATOM     18  H   UNL     1       0.052   0.656  -0.128  0.00  0.00    +0.147 HD
ENDBRANCH   7  10
ENDBRANCH   5   7
BRANCH   1  19
ATOM     19  N   UNL     1       5.908   4.338   4.473  0.00  0.00    -0.098 NA
BRANCH  19  20
ATOM     20  S   UNL     1       6.671   5.308   5.577  0.00  0.00    +0.093 S 
ATOM     21  O   UNL     1       8.036   4.912   5.590  0.00  0.00    -0.148 OA
ATOM     22  O   UNL     1       6.268   6.641   5.293  0.00  0.00    -0.148 OA
BRANCH  20  28
ATOM     23  C   UNL     1       6.256   5.742   8.239  0.00  0.00    +0.114 A 
ATOM     24  C   UNL     1       5.737   5.432   9.483  0.00  0.00    +0.029 A 
ATOM     25  C   UNL     1       4.987   4.284   9.652  0.00  0.00    +0.002 A 
ATOM     26  C   UNL     1       4.750   3.448   8.576  0.00  0.00    +0.002 A 
ATOM     27  C   UNL     1       5.265   3.760   7.332  0.00  0.00    +0.031 A 
ATOM     28  C   UNL     1       6.015   4.909   7.163  0.00  0.00    +0.135 A 
BRANCH  23  30
ATOM     29  C   UNL     1       8.868   6.610   7.559  0.00  0.00    +0.200 C 
ATOM     30  S   UNL     1       7.218   7.203   8.025  0.00  0.00    -0.004 S 
ATOM     31  O   UNL     1       6.613   7.879   6.931  0.00  0.00    -0.170 OA
ATOM     32  O   UNL     1       7.259   7.802   9.313  0.00  0.00    -0.170 OA
ENDBRANCH  23  30
ENDBRANCH  20  28
ENDBRANCH  19  20
ENDBRANCH   1  19
TORSDOF 6
