REMARK  Name = ZINC04013084
REMARK  7 active torsions:
REMARK  status: ('A' for Active; 'I' for Inactive)
REMARK    1  A    between atoms: C_1  and  C_2
REMARK    2  A    between atoms: C_2  and  C_3
REMARK    3  A    between atoms: C_6  and  C_9
REMARK    4  A    between atoms: C_9  and  C_26
REMARK    5  A    between atoms: N_10  and  N_11
REMARK    6  A    between atoms: C_12  and  C_14
REMARK    7  A    between atoms: C_15  and  C_25
REMARK                            x       y       z     vdW  Elec       q    Type
REMARK                         _______ _______ _______ _____ _____    ______ ____
ROOT
ATOM      1  N   UNL     1      -4.300   2.675   6.428  0.00  0.00    -0.202 N 
ATOM      2  C   UNL     1      -5.276   1.930   6.984  0.00  0.00    +0.280 C 
ATOM      3  O   UNL     1      -5.588   0.865   6.484  0.00  0.00    -0.267 OA
ATOM      4  H   UNL     1      -4.051   3.523   6.827  0.00  0.00    +0.178 HD
ENDROOT
BRANCH   2   5
ATOM      5  C   UNL     1      -5.964   2.404   8.194  0.00  0.00    +0.107 A 
ATOM      6  C   UNL     1      -6.960   1.745   8.843  0.00  0.00    -0.013 A 
ATOM      7  C   UNL     1      -7.346   2.534   9.953  0.00  0.00    +0.004 A 
ATOM      8  C   UNL     1      -8.303   2.370  10.963  0.00  0.00    +0.025 A 
ATOM      9  C   UNL     1      -8.448   3.330  11.923  0.00  0.00    +0.019 A 
ATOM     10  C   UNL     1      -7.653   4.470  11.909  0.00  0.00    +0.017 A 
ATOM     11  C   UNL     1      -6.705   4.653  10.927  0.00  0.00    +0.027 A 
ATOM     12  C   UNL     1      -6.540   3.689   9.937  0.00  0.00    +0.047 A 
ATOM     13  N   UNL     1      -5.697   3.587   8.855  0.00  0.00    -0.350 N 
ATOM     14  H   UNL     1      -5.027   4.239   8.597  0.00  0.00    +0.166 HD
ATOM     15 BR   UNL     1      -9.740   3.105  13.285  0.00  0.00    -0.050 Br
ATOM     16  C   UNL     1      -7.547   0.414   8.451  0.00  0.00    +0.047 C 
ENDBRANCH   2   5
BRANCH   1  18
ATOM     17  C   UNL     1      -2.704   2.940   4.740  0.00  0.00    +0.063 C 
ATOM     18  N   UNL     1      -3.644   2.223   5.275  0.00  0.00    -0.184 NA
ATOM     19  C   UNL     1      -2.317   4.259   5.359  0.00  0.00    +0.068 C 
BRANCH  17  23
ATOM     20  C   UNL     1      -0.718   1.572   1.248  0.00  0.00    -0.048 A 
ATOM     21  C   UNL     1      -0.357   2.780   1.817  0.00  0.00    +0.004 A 
ATOM     22  C   UNL     1      -1.001   3.234   2.949  0.00  0.00    +0.010 A 
ATOM     23  C   UNL     1      -2.014   2.465   3.527  0.00  0.00    -0.003 A 
ATOM     24  C   UNL     1      -2.370   1.243   2.950  0.00  0.00    +0.010 A 
ATOM     25  C   UNL     1      -1.720   0.804   1.816  0.00  0.00    +0.004 A 
BRANCH  20  27
ATOM     26  C   UNL     1      -0.753   1.593  -1.232  0.00  0.00    +0.009 C 
ATOM     27  C   UNL     1      -0.013   1.086   0.008  0.00  0.00    +0.032 C 
ENDBRANCH  20  27
ENDBRANCH  17  23
ENDBRANCH   1  18
TORSDOF 4
