REMARK  Name = ZINC12449141
REMARK  5 active torsions:
REMARK  status: ('A' for Active; 'I' for Inactive)
REMARK    1  A    between atoms: C_3  and  C_7
REMARK    2  A    between atoms: C_7  and  N_56
REMARK    3  A    between atoms: C_10  and  N_58
REMARK    4  A    between atoms: C_13  and  N_58
REMARK    5  A    between atoms: N_22  and  C_23
REMARK                            x       y       z     vdW  Elec       q    Type
REMARK                         _______ _______ _______ _____ _____    ______ ____
ROOT
ATOM      1  C   UNL     1      -0.347   3.135   1.375  0.00  0.00    -0.037 C 
ATOM      2  C   UNL     1      -0.374   1.610   1.208  0.00  0.00    -0.011 C 
ATOM      3  C   UNL     1       0.363   1.224  -0.076  0.00  0.00    +0.005 C 
ATOM      4  C   UNL     1      -0.463   1.661  -1.292  0.00  0.00    +0.056 C 
ATOM      5  C   UNL     1      -0.854   3.106  -1.106  0.00  0.00    +0.047 A 
ATOM      6  C   UNL     1      -0.801   3.763   0.081  0.00  0.00    -0.020 A 
ATOM      7  C   UNL     1      -1.232   5.071  -0.131  0.00  0.00    +0.137 A 
ATOM      8  N   UNL     1      -1.536   5.199  -1.400  0.00  0.00    -0.174 NA
ATOM      9  N   UNL     1      -1.305   3.970  -2.034  0.00  0.00    -0.236 N 
ENDROOT
BRANCH   9  10
ATOM     10  C   UNL     1      -1.508   3.691  -3.393  0.00  0.00    +0.071 A 
ATOM     11  C   UNL     1      -1.137   4.619  -4.356  0.00  0.00    +0.066 A 
ATOM     12  C   UNL     1      -1.334   4.339  -5.697  0.00  0.00    +0.128 A 
ATOM     13  C   UNL     1      -1.910   3.139  -6.078  0.00  0.00    +0.076 A 
ATOM     14  C   UNL     1      -2.286   2.214  -5.118  0.00  0.00    +0.128 A 
ATOM     15  C   UNL     1      -2.086   2.488  -3.777  0.00  0.00    +0.066 A 
ATOM     16  F   UNL     1      -2.848   1.044  -5.492  0.00  0.00    -0.205 F 
ATOM     17  F   UNL     1      -0.968   5.240  -6.635  0.00  0.00    -0.205 F 
ENDBRANCH   9  10
BRANCH   1  18
ATOM     18  N   UNL     1      -1.262   3.524   2.465  0.00  0.00    +0.385 N 
ATOM     19  H   UNL     1      -2.218   3.595   2.096  0.00  0.00    -0.085 HD
ATOM     20  H   UNL     1      -1.232   2.812   3.204  0.00  0.00    -0.085 HD
BRANCH  18  23
ATOM     21  C   UNL     1      -1.654   6.819   4.308  0.00  0.00    -0.080 C 
ATOM     22  C   UNL     1      -2.082   5.498   3.666  0.00  0.00    -0.034 C 
ATOM     23  C   UNL     1      -0.861   4.827   3.029  0.00  0.00    -0.075 C 
ATOM     24  C   UNL     1       0.211   4.613   4.101  0.00  0.00    -0.034 C 
ATOM     25  C   UNL     1       0.572   5.961   4.730  0.00  0.00    -0.080 C 
ATOM     26  N   UNL     1      -0.639   6.542   5.347  0.00  0.00    +0.382 N 
ATOM     27  H   UNL     1      -1.027   5.870   6.019  0.00  0.00    -0.081 HD
BRANCH  26  28
ATOM     28  C   UNL     1      -0.294   7.789   6.060  0.00  0.00    -0.041 C 
BRANCH  28  31
ATOM     29  C   UNL     1       0.824   6.841   9.537  0.00  0.00    +0.020 A 
ATOM     30  C   UNL     1      -0.008   7.157   8.474  0.00  0.00    +0.005 A 
ATOM     31  C   UNL     1       0.569   7.446   7.247  0.00  0.00    -0.046 A 
ATOM     32  C   UNL     1       1.946   7.421   7.128  0.00  0.00    +0.112 A 
ATOM     33  N   UNL     1       2.707   7.121   8.162  0.00  0.00    -0.263 NA
ATOM     34  C   UNL     1       2.192   6.836   9.342  0.00  0.00    +0.111 A 
ENDBRANCH  28  31
ENDBRANCH  26  28
ENDBRANCH  18  23
ENDBRANCH   1  18
TORSDOF 5
