REMARK  Name = ZINC12630162
REMARK  1 active torsions:
REMARK  status: ('A' for Active; 'I' for Inactive)
REMARK    1  A    between atoms: C_3  and  C_8
REMARK                            x       y       z     vdW  Elec       q    Type
REMARK                         _______ _______ _______ _____ _____    ______ ____
ROOT
ATOM      1  C   UNL     1       3.672   2.183  -0.022  0.00  0.00    +0.209 C 
ATOM      2  N   UNL     1       4.669   1.508   0.829  0.00  0.00    -0.294 N 
ATOM      3  C   UNL     1       5.387   0.453   0.331  0.00  0.00    +0.160 C 
ATOM      4  N   UNL     1       5.677   0.362  -0.955  0.00  0.00    -0.302 N 
ATOM      5  C   UNL     1       5.192   1.310  -1.793  0.00  0.00    +0.213 A 
ATOM      6  N   UNL     1       4.229   2.214  -1.379  0.00  0.00    -0.286 N 
ATOM      7  C   UNL     1       3.955   3.052  -2.435  0.00  0.00    +0.076 A 
ATOM      8  C   UNL     1       3.109   4.138  -2.616  0.00  0.00    +0.077 A 
ATOM      9  C   UNL     1       3.068   4.782  -3.837  0.00  0.00    +0.164 A 
ATOM     10  C   UNL     1       3.869   4.351  -4.890  0.00  0.00    +0.164 A 
ATOM     11  C   UNL     1       4.713   3.272  -4.729  0.00  0.00    +0.079 A 
ATOM     12  C   UNL     1       4.765   2.610  -3.498  0.00  0.00    +0.095 A 
ATOM     13  N   UNL     1       5.485   1.539  -3.046  0.00  0.00    -0.212 NA
ATOM     14  O   UNL     1       3.817   5.003  -6.089  0.00  0.00    -0.488 OA
ATOM     15  C   UNL     1       2.598   4.866  -6.823  0.00  0.00    +0.232 C 
ATOM     16  C   UNL     1       1.568   5.881  -6.353  0.00  0.00    +0.082 C 
ATOM     17  C   UNL     1       1.142   5.648  -4.912  0.00  0.00    +0.232 C 
ATOM     18  O   UNL     1       2.238   5.852  -4.019  0.00  0.00    -0.488 OA
ATOM     19  N   UNL     1       5.815  -0.527   1.185  0.00  0.00    -0.332 N 
ATOM     20  H   UNL     1       4.815   1.810   1.739  0.00  0.00    +0.151 HD
ATOM     21  H   UNL     1       5.609  -0.471   2.131  0.00  0.00    +0.145 HD
ATOM     22  H   UNL     1       6.325  -1.279   0.844  0.00  0.00    +0.145 HD
ATOM     23  H   UNL     1       6.223  -0.366  -1.291  0.00  0.00    +0.171 HD
ENDROOT
BRANCH   1  26
ATOM     24  C   UNL     1      -0.017   1.378   0.010  0.00  0.00    +0.001 A 
ATOM     25  C   UNL     1       1.171   2.086   0.002  0.00  0.00    +0.007 A 
ATOM     26  C   UNL     1       2.378   1.411  -0.013  0.00  0.00    -0.006 A 
ATOM     27  C   UNL     1       2.397   0.029  -0.022  0.00  0.00    +0.022 A 
ATOM     28  C   UNL     1       1.210  -0.679  -0.014  0.00  0.00    +0.018 A 
ATOM     29  C   UNL     1       0.002  -0.004   0.002  0.00  0.00    +0.015 A 
ATOM     30 BR   UNL     1       1.236  -2.570  -0.025  0.00  0.00    -0.050 Br
ENDBRANCH   1  26
TORSDOF 1
