REMARK  Name = ZINC63698213
REMARK  7 active torsions:
REMARK  status: ('A' for Active; 'I' for Inactive)
REMARK    1  A    between atoms: C_1  and  C_2
REMARK    2  A    between atoms: C_2  and  C_19
REMARK    3  A    between atoms: C_5  and  C_10
REMARK    4  A    between atoms: C_7  and  C_8
REMARK    5  A    between atoms: C_7  and  C_9
REMARK    6  A    between atoms: N_21  and  N_22
REMARK    7  A    between atoms: C_23  and  C_24
REMARK                            x       y       z     vdW  Elec       q    Type
REMARK                         _______ _______ _______ _____ _____    ______ ____
ROOT
ATOM      1  C   UNL     1      -0.442   1.534  -0.235  0.00  0.00    +0.021 C 
ATOM      2  C   UNL     1      -0.213   0.024  -0.146  0.00  0.00    +0.051 C 
ATOM      3  C   UNL     1      -1.565  -0.724  -0.037  0.00  0.00    +0.017 C 
ATOM      4  C   UNL     1      -1.915  -0.580   1.465  0.00  0.00    +0.009 C 
ATOM      5  C   UNL     1      -0.557  -0.719   2.185  0.00  0.00    +0.038 C 
ATOM      6  C   UNL     1       0.525  -0.335   1.160  0.00  0.00    -0.015 C 
ATOM      7  C   UNL     1       1.465  -1.518   0.923  0.00  0.00    +0.012 C 
ATOM      8  C   UNL     1       1.318   0.873   1.663  0.00  0.00    +0.012 C 
ENDROOT
BRANCH   5   9
ATOM      9  C   UNL     1      -0.501   0.227   3.386  0.00  0.00    +0.178 C 
ATOM     10  N   UNL     1       0.681  -0.067   4.205  0.00  0.00    -0.363 N 
ATOM     11  C   UNL     1       0.262  -0.408   5.389  0.00  0.00    +0.060 A 
ATOM     12  C   UNL     1       0.959  -0.808   6.619  0.00  0.00    +0.027 A 
ATOM     13  C   UNL     1       0.243  -1.112   7.720  0.00  0.00    +0.002 A 
ATOM     14  C   UNL     1      -1.162  -1.065   7.748  0.00  0.00    +0.002 A 
ATOM     15  C   UNL     1      -1.899  -0.713   6.675  0.00  0.00    +0.027 A 
ATOM     16  C   UNL     1      -1.226  -0.358   5.418  0.00  0.00    +0.060 A 
ATOM     17  N   UNL     1      -1.668   0.012   4.251  0.00  0.00    -0.363 N 
ATOM     18  H   UNL     1       1.606  -0.017   3.916  0.00  0.00    +0.162 HD
ATOM     19  H   UNL     1      -2.598   0.125   3.999  0.00  0.00    +0.162 HD
ENDBRANCH   5   9
BRANCH   2  20
ATOM     20  C   UNL     1       0.566  -0.461  -1.342  0.00  0.00    +0.239 C 
ATOM     21  O   UNL     1       0.131  -1.367  -2.022  0.00  0.00    -0.273 OA
ATOM     22  N   UNL     1       1.745   0.111  -1.656  0.00  0.00    -0.207 N 
ATOM     23  H   UNL     1       2.092   0.835  -1.112  0.00  0.00    +0.177 HD
BRANCH  22  24
ATOM     24  N   UNL     1       2.469  -0.339  -2.767  0.00  0.00    -0.188 NA
ATOM     25  C   UNL     1       3.604   0.212  -3.069  0.00  0.00    +0.138 C 
BRANCH  25  26
ATOM     26  C   UNL     1       4.366  -0.263  -4.239  0.00  0.00    -0.005 A 
ATOM     27  C   UNL     1       3.866  -1.301  -5.028  0.00  0.00    +0.010 A 
ATOM     28  C   UNL     1       4.583  -1.740  -6.121  0.00  0.00    +0.016 A 
ATOM     29  C   UNL     1       5.797  -1.153  -6.437  0.00  0.00    +0.018 A 
ATOM     30  C   UNL     1       6.298  -0.123  -5.660  0.00  0.00    +0.016 A 
ATOM     31  C   UNL     1       5.589   0.329  -4.567  0.00  0.00    +0.010 A 
ATOM     32 BR   UNL     1       6.774  -1.761  -7.938  0.00  0.00    -0.050 Br
ENDBRANCH  25  26
ENDBRANCH  22  24
ENDBRANCH   2  20
TORSDOF 4
