REMARK  Name = ZINC59782463
REMARK  10 active torsions:
REMARK  status: ('A' for Active; 'I' for Inactive)
REMARK    1  A    between atoms: C_1  and  C_2
REMARK    2  A    between atoms: C_2  and  C_3
REMARK    3  A    between atoms: N_11  and  C_15
REMARK    4  A    between atoms: C_15  and  C_16
REMARK    5  A    between atoms: N_18  and  C_19
REMARK    6  A    between atoms: C_19  and  C_20
REMARK    7  A    between atoms: C_20  and  C_22
REMARK    8  A    between atoms: C_20  and  N_30
REMARK    9  A    between atoms: C_27  and  O_28
REMARK   10  A    between atoms: O_28  and  C_29
REMARK                            x       y       z     vdW  Elec       q    Type
REMARK                         _______ _______ _______ _____ _____    ______ ____
ROOT
ATOM      1  C   UNL     1      -2.978  -2.926  -5.920  0.00  0.00    +0.231 C 
ATOM      2  O   UNL     1      -2.799  -1.793  -6.314  0.00  0.00    -0.274 OA
ATOM      3  N   UNL     1      -3.950  -3.684  -6.466  0.00  0.00    -0.315 N 
ATOM      4  H   UNL     1      -4.093  -4.590  -6.150  0.00  0.00    +0.149 HD
ENDROOT
BRANCH   1   5
ATOM      5  C   UNL     1      -2.114  -3.487  -4.820  0.00  0.00    +0.213 C 
BRANCH   5  14
ATOM      6  C   UNL     1      -0.659   1.166  -1.210  0.00  0.00    -0.011 C 
ATOM      7  C   UNL     1      -1.324   1.288  -2.583  0.00  0.00    +0.006 C 
ATOM      8  C   UNL     1      -0.392   0.714  -3.652  0.00  0.00    +0.035 C 
ATOM      9  C   UNL     1      -0.096  -0.749  -3.341  0.00  0.00    +0.113 C 
ATOM     10  C   UNL     1       0.544  -0.889  -1.964  0.00  0.00    +0.035 C 
ATOM     11  C   UNL     1      -0.392  -0.308  -0.901  0.00  0.00    +0.006 C 
ATOM     12  C   UNL     1      -1.360  -1.572  -3.421  0.00  0.00    +0.247 C 
ATOM     13  O   UNL     1      -2.361  -1.448  -2.749  0.00  0.00    -0.273 OA
ATOM     14  N   UNL     1      -1.141  -2.475  -4.400  0.00  0.00    -0.215 N 
ATOM     15  C   UNL     1       0.076  -2.332  -4.939  0.00  0.00    +0.310 C 
ATOM     16  O   UNL     1       0.503  -3.029  -5.838  0.00  0.00    -0.252 OA
ATOM     17  N   UNL     1       0.774  -1.329  -4.373  0.00  0.00    -0.285 N 
ATOM     18  H   UNL     1       1.673  -1.045  -4.602  0.00  0.00    +0.151 HD
BRANCH   6  20
ATOM     19  C   UNL     1      -1.752   3.253  -0.379  0.00  0.00    +0.004 C 
ATOM     20  C   UNL     1      -1.585   1.751  -0.141  0.00  0.00    -0.000 C 
ENDBRANCH   6  20
ENDBRANCH   5  14
ENDBRANCH   1   5
BRANCH   3  21
ATOM     21  C   UNL     1      -4.790  -3.139  -7.535  0.00  0.00    +0.093 C 
BRANCH  21  22
ATOM     22  C   UNL     1      -5.724  -4.233  -8.057  0.00  0.00    -0.017 C 
BRANCH  22  23
ATOM     23  N   UNL     1      -6.488  -4.800  -6.938  0.00  0.00    +0.385 N 
ATOM     24  C   UNL     1      -7.466  -5.764  -7.454  0.00  0.00    -0.078 C 
ATOM     25  C   UNL     1      -8.209  -6.418  -6.287  0.00  0.00    -0.019 C 
ATOM     26  C   UNL     1      -8.933  -5.336  -5.480  0.00  0.00    -0.004 C 
ATOM     27  C   UNL     1      -7.913  -4.296  -5.009  0.00  0.00    -0.019 C 
ATOM     28  C   UNL     1      -7.181  -3.721  -6.224  0.00  0.00    -0.078 C 
ATOM     29  H   UNL     1      -5.857  -5.269  -6.305  0.00  0.00    -0.081 HD
ENDBRANCH  22  23
BRANCH  22  30
ATOM     30  C   UNL     1      -4.910  -5.319  -8.711  0.00  0.00    -0.018 A 
ATOM     31  C   UNL     1      -4.635  -6.486  -8.024  0.00  0.00    +0.005 A 
ATOM     32  C   UNL     1      -3.887  -7.482  -8.623  0.00  0.00    +0.000 A 
ATOM     33  C   UNL     1      -3.413  -7.314  -9.911  0.00  0.00    +0.004 A 
ATOM     34  C   UNL     1      -3.685  -6.150 -10.602  0.00  0.00    +0.046 A 
ATOM     35  C   UNL     1      -4.440  -5.151 -10.005  0.00  0.00    +0.122 A 
BRANCH  35  36
ATOM     36  O   UNL     1      -4.714  -4.006 -10.685  0.00  0.00    -0.495 OA
ATOM     37  C   UNL     1      -4.198  -3.902 -12.014  0.00  0.00    +0.277 C 
ENDBRANCH  35  36
ENDBRANCH  22  30
ENDBRANCH  21  22
ENDBRANCH   3  21
TORSDOF 8
