REMARK  Name = ZINC09580225
REMARK  9 active torsions:
REMARK  status: ('A' for Active; 'I' for Inactive)
REMARK    1  A    between atoms: C_1  and  O_2
REMARK    2  A    between atoms: O_2  and  C_3
REMARK    3  A    between atoms: C_3  and  C_4
REMARK    4  A    between atoms: C_4  and  N_5
REMARK    5  A    between atoms: C_14  and  S_15
REMARK    6  A    between atoms: S_15  and  C_16
REMARK    7  A    between atoms: C_16  and  C_17
REMARK    8  A    between atoms: N_19  and  C_20
REMARK    9  A    between atoms: C_23  and  N_26
REMARK                            x       y       z     vdW  Elec       q    Type
REMARK                         _______ _______ _______ _____ _____    ______ ____
ROOT
ATOM      1  N   UNL     1      -0.708   1.565   1.206  0.00  0.00    -0.285 N 
ATOM      2  C   UNL     1      -1.686   0.815   1.746  0.00  0.00    +0.263 A 
ATOM      3  O   UNL     1      -1.997  -0.251   1.243  0.00  0.00    -0.267 OA
ATOM      4  C   UNL     1      -2.358   1.287   2.918  0.00  0.00    +0.076 A 
ATOM      5  C   UNL     1      -3.439   0.642   3.665  0.00  0.00    -0.023 A 
ATOM      6  C   UNL     1      -3.908   1.294   4.748  0.00  0.00    -0.004 A 
ATOM      7  S   UNL     1      -2.953   2.784   4.838  0.00  0.00    -0.073 S 
ATOM      8  C   UNL     1      -1.923   2.526   3.416  0.00  0.00    +0.117 A 
ATOM      9  N   UNL     1      -0.949   3.218   2.836  0.00  0.00    -0.216 NA
ATOM     10  C   UNL     1      -0.344   2.758   1.759  0.00  0.00    +0.173 A 
ATOM     11  C   UNL     1      -5.002   0.850   5.672  0.00  0.00    +0.043 C 
ATOM     12  C   UNL     1      -5.774  -0.292   4.995  0.00  0.00    +0.005 C 
ATOM     13  C   UNL     1      -4.768  -1.307   4.446  0.00  0.00    +0.005 C 
ATOM     14  C   UNL     1      -4.023  -0.707   3.253  0.00  0.00    +0.037 C 
ENDROOT
BRANCH   1  15
ATOM     15  C   UNL     1      -0.016   1.087   0.006  0.00  0.00    +0.155 C 
BRANCH  15  16
ATOM     16  C   UNL     1      -0.746   1.594  -1.239  0.00  0.00    +0.181 C 
BRANCH  16  18
ATOM     17  C   UNL     1      -2.819   1.420  -2.429  0.00  0.00    +0.194 C 
ATOM     18  O   UNL     1      -2.049   1.010  -1.297  0.00  0.00    -0.381 OA
ENDBRANCH  16  18
ENDBRANCH  15  16
ENDBRANCH   1  15
BRANCH  10  19
ATOM     19  S   UNL     1       0.949   3.700   1.020  0.00  0.00    -0.078 S 
BRANCH  19  20
ATOM     20  C   UNL     1       0.984   5.120   2.142  0.00  0.00    +0.173 C 
BRANCH  20  21
ATOM     21  C   UNL     1       2.047   6.089   1.692  0.00  0.00    +0.227 C 
ATOM     22  O   UNL     1       2.715   5.844   0.710  0.00  0.00    -0.275 OA
ATOM     23  N   UNL     1       2.256   7.228   2.381  0.00  0.00    -0.285 N 
ATOM     24  H   UNL     1       1.678   7.457   3.126  0.00  0.00    +0.155 HD
BRANCH  23  25
ATOM     25  C   UNL     1       3.306   8.081   2.023  0.00  0.00    +0.034 A 
ATOM     26  C   UNL     1       3.995   8.785   3.001  0.00  0.00    +0.025 A 
ATOM     27  C   UNL     1       5.035   9.621   2.644  0.00  0.00    +0.034 A 
ATOM     28  C   UNL     1       5.382   9.767   1.313  0.00  0.00    +0.126 A 
ATOM     29  C   UNL     1       4.693   9.071   0.337  0.00  0.00    +0.034 A 
ATOM     30  C   UNL     1       3.657   8.229   0.687  0.00  0.00    +0.025 A 
BRANCH  28  31
ATOM     31  N   UNL     1       6.492  10.669   0.934  0.00  0.00    +0.056 N 
ATOM     32  O   UNL     1       6.799  10.798  -0.238  0.00  0.00    -0.126 OA
ATOM     33  O   UNL     1       7.100  11.282   1.793  0.00  0.00    -0.126 OA
ENDBRANCH  28  31
ENDBRANCH  23  25
ENDBRANCH  20  21
ENDBRANCH  19  20
ENDBRANCH  10  19
TORSDOF 8
