REMARK  Name = ZINC39657596
REMARK  6 active torsions:
REMARK  status: ('A' for Active; 'I' for Inactive)
REMARK    1  A    between atoms: C_3  and  C_6
REMARK    2  A    between atoms: C_6  and  C_7
REMARK    3  A    between atoms: C_7  and  N_8
REMARK    4  A    between atoms: C_9  and  C_11
REMARK    5  A    between atoms: C_22  and  C_24
REMARK    6  A    between atoms: C_27  and  C_29
REMARK                            x       y       z     vdW  Elec       q    Type
REMARK                         _______ _______ _______ _____ _____    ______ ____
ROOT
ATOM      1  C   UNL     1       7.697   3.238   2.554  0.00  0.00    +0.100 C 
ATOM      2  C   UNL     1       8.652   2.159   1.996  0.00  0.00    +0.121 C 
ATOM      3  N   UNL     1       9.884   2.292   2.809  0.00  0.00    -0.294 N 
ATOM      4  C   UNL     1       9.392   2.553   4.183  0.00  0.00    +0.115 C 
ATOM      5  C   UNL     1       8.186   3.493   3.990  0.00  0.00    -0.004 C 
ATOM      6  C   UNL     1       7.086   3.151   4.991  0.00  0.00    -0.010 C 
ATOM      7  C   UNL     1       7.575   3.469   6.407  0.00  0.00    -0.082 C 
ATOM      8  N   UNL     1       7.924   4.891   6.499  0.00  0.00    +0.379 N 
ATOM      9  C   UNL     1       9.045   5.191   5.600  0.00  0.00    -0.082 C 
ATOM     10  C   UNL     1       8.618   4.947   4.150  0.00  0.00    -0.010 C 
ATOM     11  C   UNL     1      11.162   2.199   2.393  0.00  0.00    +0.282 C 
ATOM     12  O   UNL     1      12.073   2.333   3.189  0.00  0.00    -0.267 OA
ATOM     13  H   UNL     1       7.125   5.450   6.237  0.00  0.00    -0.086 HD
ATOM     14  H   UNL     1       8.187   5.111   7.448  0.00  0.00    -0.086 HD
ENDROOT
BRANCH  11  15
ATOM     15  C   UNL     1      11.456   1.935   0.982  0.00  0.00    +0.190 A 
ATOM     16  C   UNL     1      12.711   1.810   0.426  0.00  0.00    +0.055 A 
ATOM     17  C   UNL     1      12.525   1.564  -0.938  0.00  0.00    +0.050 A 
ATOM     18  C   UNL     1      11.178   1.548  -1.163  0.00  0.00    +0.136 A 
ATOM     19  O   UNL     1      10.544   1.766   0.001  0.00  0.00    -0.450 OA
BRANCH  18  20
ATOM     20  C   UNL     1      10.527   1.321  -2.469  0.00  0.00    +0.017 A 
ATOM     21  C   UNL     1      11.302   1.093  -3.609  0.00  0.00    +0.014 A 
ATOM     22  C   UNL     1      10.688   0.881  -4.825  0.00  0.00    +0.039 A 
ATOM     23  C   UNL     1       9.305   0.895  -4.918  0.00  0.00    +0.123 A 
ATOM     24  C   UNL     1       8.531   1.121  -3.791  0.00  0.00    +0.039 A 
ATOM     25  C   UNL     1       9.134   1.328  -2.568  0.00  0.00    +0.014 A 
ATOM     26  F   UNL     1       8.710   0.687  -6.113  0.00  0.00    -0.205 F 
ENDBRANCH  18  20
ENDBRANCH  11  15
BRANCH   1  28
ATOM     27  N   UNL     1       5.251   3.592   2.448  0.00  0.00    -0.315 N 
ATOM     28  C   UNL     1       6.279   2.728   2.565  0.00  0.00    +0.218 C 
ATOM     29  O   UNL     1       6.062   1.540   2.680  0.00  0.00    -0.275 OA
ATOM     30  H   UNL     1       5.425   4.542   2.357  0.00  0.00    +0.149 HD
BRANCH  27  31
ATOM     31  C   UNL     1       3.873   3.097   2.459  0.00  0.00    +0.109 C 
BRANCH  31  32
ATOM     32  C   UNL     1       2.906   4.274   2.312  0.00  0.00    +0.061 C 
BRANCH  32  35
ATOM     33  C   UNL     1      -0.619   3.098   3.147  0.00  0.00    +0.008 A 
ATOM     34  C   UNL     1       0.655   3.582   3.377  0.00  0.00    +0.011 A 
ATOM     35  C   UNL     1       1.488   3.764   2.323  0.00  0.00    -0.009 A 
ATOM     36  S   UNL     1       0.470   3.244   0.952  0.00  0.00    -0.102 S 
ATOM     37  C   UNL     1      -0.998   2.820   1.876  0.00  0.00    +0.045 A 
ENDBRANCH  32  35
ENDBRANCH  31  32
ENDBRANCH  27  31
ENDBRANCH   1  28
TORSDOF 6
