REMARK  Name = ZINC11872287
REMARK  9 active torsions:
REMARK  status: ('A' for Active; 'I' for Inactive)
REMARK    1  A    between atoms: C_1  and  C_2
REMARK    2  A    between atoms: C_2  and  C_3
REMARK    3  A    between atoms: C_3  and  C_5
REMARK    4  A    between atoms: C_3  and  N_6
REMARK    5  A    between atoms: C_8  and  C_28
REMARK    6  A    between atoms: C_11  and  C_13
REMARK    7  A    between atoms: N_15  and  C_16
REMARK    8  A    between atoms: N_15  and  C_17
REMARK    9  A    between atoms: C_17  and  C_18
REMARK                            x       y       z     vdW  Elec       q    Type
REMARK                         _______ _______ _______ _____ _____    ______ ____
ROOT
ATOM      1  N   UNL     1       0.990   6.576   2.504  0.00  0.00    -0.349 N 
ATOM      2  C   UNL     1       0.772   5.638   1.568  0.00  0.00    +0.102 A 
ATOM      3  C   UNL     1       1.668   5.424   0.543  0.00  0.00    +0.100 A 
ATOM      4  C   UNL     1       2.878   6.261   0.488  0.00  0.00    +0.206 A 
ATOM      5  O   UNL     1       3.706   6.122  -0.397  0.00  0.00    -0.286 OA
ATOM      6  C   UNL     1       3.047   7.271   1.545  0.00  0.00    +0.100 A 
ATOM      7  C   UNL     1       2.072   7.372   2.514  0.00  0.00    +0.102 A 
ENDROOT
BRANCH   3   8
ATOM      8  C   UNL     1       1.419   4.388  -0.474  0.00  0.00    +0.252 C 
ATOM      9  O   UNL     1       2.353   3.862  -1.048  0.00  0.00    -0.270 OA
ATOM     10  N   UNL     1       0.155   4.023  -0.768  0.00  0.00    -0.297 N 
ATOM     11  C   UNL     1      -0.073   3.127  -1.919  0.00  0.00    +0.108 C 
ATOM     12  C   UNL     1      -1.118   2.040  -1.609  0.00  0.00    +0.019 C 
ATOM     13  C   UNL     1      -0.918   1.513  -0.209  0.00  0.00    +0.002 C 
ATOM     14  C   UNL     1      -1.784   2.312   0.761  0.00  0.00    +0.002 C 
ATOM     15  C   UNL     1      -1.166   3.557   1.239  0.00  0.00    +0.019 C 
ATOM     16  C   UNL     1      -0.921   4.526   0.056  0.00  0.00    +0.108 C 
ENDBRANCH   3   8
BRANCH   6  17
ATOM     17  C   UNL     1       4.228   8.151   1.568  0.00  0.00    +0.252 C 
ATOM     18  O   UNL     1       5.343   7.675   1.476  0.00  0.00    -0.270 OA
ATOM     19  N   UNL     1       4.072   9.485   1.689  0.00  0.00    -0.296 N 
ATOM     20  C   UNL     1       2.728  10.066   1.709  0.00  0.00    +0.132 C 
BRANCH  19  21
ATOM     21  C   UNL     1       5.247  10.352   1.802  0.00  0.00    +0.143 C 
BRANCH  21  22
ATOM     22  C   UNL     1       5.627  10.863   0.436  0.00  0.00    -0.022 A 
ATOM     23  C   UNL     1       4.849  10.575  -0.643  0.00  0.00    +0.006 A 
ATOM     24  C   UNL     1       5.184  11.040  -1.913  0.00  0.00    +0.001 A 
ATOM     25  C   UNL     1       6.299  11.794  -2.112  0.00  0.00    +0.008 A 
ATOM     26  C   UNL     1       7.127  12.112  -1.022  0.00  0.00    -0.018 A 
ATOM     27  C   UNL     1       6.784  11.644   0.271  0.00  0.00    -0.013 A 
ATOM     28  C   UNL     1       7.614  11.958   1.361  0.00  0.00    +0.009 A 
ATOM     29  C   UNL     1       8.729  12.712   1.162  0.00  0.00    +0.001 A 
ATOM     30  C   UNL     1       9.065  13.176  -0.109  0.00  0.00    +0.001 A 
ATOM     31  C   UNL     1       8.287  12.888  -1.188  0.00  0.00    +0.008 A 
ENDBRANCH  21  22
ENDBRANCH  19  21
ENDBRANCH   6  17
BRANCH   1  32
ATOM     32  C   UNL     1      -0.005   6.742   3.566  0.00  0.00    +0.083 C 
ATOM     33  C   UNL     1       0.653   6.496   4.925  0.00  0.00    +0.031 C 
BRANCH  32  35
ATOM     34  C   UNL     1      -1.691   8.303   4.548  0.00  0.00    +0.006 C 
ATOM     35  C   UNL     1      -0.565   8.166   3.522  0.00  0.00    +0.021 C 
ENDBRANCH  32  35
ENDBRANCH   1  32
TORSDOF 6
