REMARK  Name = ZINC36643293
REMARK  15 active torsions:
REMARK  status: ('A' for Active; 'I' for Inactive)
REMARK    1  A    between atoms: C_1  and  C_2
REMARK    2  A    between atoms: C_2  and  C_3
REMARK    3  A    between atoms: C_3  and  C_4
REMARK    4  A    between atoms: C_4  and  N_5
REMARK    5  A    between atoms: N_5  and  C_6
REMARK    6  A    between atoms: N_5  and  S_8
REMARK    7  A    between atoms: C_6  and  C_7
REMARK    8  A    between atoms: S_8  and  C_11
REMARK    9  A    between atoms: C_14  and  C_17
REMARK   10  A    between atoms: N_19  and  C_20
REMARK   11  A    between atoms: C_20  and  C_21
REMARK   12  A    between atoms: C_21  and  C_22
REMARK   13  A    between atoms: C_22  and  N_23
REMARK   14  A    between atoms: N_23  and  C_24
REMARK   15  A    between atoms: N_23  and  C_25
REMARK                            x       y       z     vdW  Elec       q    Type
REMARK                         _______ _______ _______ _____ _____    ______ ____
ROOT
ATOM      1  C   UNL     1      -6.058   1.636   3.311  0.00  0.00    +0.252 C 
ATOM      2  O   UNL     1      -5.340   2.194   4.118  0.00  0.00    -0.270 OA
ATOM      3  N   UNL     1      -7.320   2.067   3.120  0.00  0.00    -0.246 N 
ATOM      4  C   UNL     1      -7.762   3.218   3.751  0.00  0.00    +0.168 A 
ATOM      5  N   UNL     1      -8.944   3.786   3.694  0.00  0.00    -0.224 NA
ATOM      6  C   UNL     1      -9.238   4.919   4.369  0.00  0.00    +0.080 A 
ATOM      7  C   UNL     1     -10.461   5.627   4.394  0.00  0.00    +0.032 A 
ATOM      8  C   UNL     1     -10.594   6.771   5.136  0.00  0.00    +0.040 A 
ATOM      9  C   UNL     1      -9.540   7.275   5.888  0.00  0.00    +0.125 A 
ATOM     10  C   UNL     1      -8.327   6.606   5.887  0.00  0.00    +0.055 A 
ATOM     11  C   UNL     1      -8.187   5.459   5.145  0.00  0.00    +0.043 A 
ATOM     12  S   UNL     1      -6.870   4.303   4.855  0.00  0.00    -0.052 S 
ATOM     13  F   UNL     1      -9.695   8.405   6.611  0.00  0.00    -0.205 F 
ENDROOT
BRANCH   1  17
ATOM     14  C   UNL     1      -4.585  -1.673   1.093  0.00  0.00    +0.106 A 
ATOM     15  C   UNL     1      -3.809  -0.536   1.231  0.00  0.00    +0.029 A 
ATOM     16  C   UNL     1      -4.281   0.542   1.950  0.00  0.00    +0.015 A 
ATOM     17  C   UNL     1      -5.545   0.484   2.539  0.00  0.00    +0.037 A 
ATOM     18  C   UNL     1      -6.324  -0.666   2.396  0.00  0.00    +0.015 A 
ATOM     19  C   UNL     1      -5.841  -1.735   1.670  0.00  0.00    +0.029 A 
BRANCH  14  20
ATOM     20  S   UNL     1      -3.974  -3.046   0.172  0.00  0.00    +0.061 S 
ATOM     21  O   UNL     1      -4.668  -4.193   0.644  0.00  0.00    -0.153 OA
ATOM     22  O   UNL     1      -2.557  -2.951   0.194  0.00  0.00    -0.153 OA
BRANCH  20  23
ATOM     23  N   UNL     1      -4.439  -2.826  -1.402  0.00  0.00    -0.177 NA
BRANCH  23  24
ATOM     24  C   UNL     1      -5.721  -3.361  -1.868  0.00  0.00    +0.106 C 
ATOM     25  C   UNL     1      -5.498  -4.733  -2.509  0.00  0.00    +0.022 C 
ENDBRANCH  23  24
BRANCH  23  26
ATOM     26  C   UNL     1      -3.570  -2.096  -2.327  0.00  0.00    +0.109 C 
BRANCH  26  27
ATOM     27  C   UNL     1      -3.997  -0.628  -2.379  0.00  0.00    +0.017 C 
BRANCH  27  29
ATOM     28  C   UNL     1      -3.516   1.602  -3.397  0.00  0.00    +0.004 C 
ATOM     29  C   UNL     1      -3.089   0.134  -3.346  0.00  0.00    -0.002 C 
ENDBRANCH  27  29
ENDBRANCH  26  27
ENDBRANCH  23  26
ENDBRANCH  20  23
ENDBRANCH  14  20
ENDBRANCH   1  17
BRANCH   3  30
ATOM     30  C   UNL     1      -8.226   1.318   2.245  0.00  0.00    +0.114 C 
BRANCH  30  31
ATOM     31  C   UNL     1      -9.122   0.413   3.093  0.00  0.00    +0.001 C 
BRANCH  31  32
ATOM     32  C   UNL     1      -9.973  -0.467   2.176  0.00  0.00    -0.078 C 
BRANCH  32  33
ATOM     33  N   UNL     1     -10.834  -1.335   2.990  0.00  0.00    +0.376 N 
ATOM     34  C   UNL     1     -11.793  -0.511   3.738  0.00  0.00    -0.097 C 
ATOM     35  C   UNL     1     -11.563  -2.262   2.114  0.00  0.00    -0.097 C 
ATOM     36  H   UNL     1     -10.265  -1.860   3.637  0.00  0.00    -0.083 HD
ENDBRANCH  32  33
ENDBRANCH  31  32
ENDBRANCH  30  31
ENDBRANCH   3  30
TORSDOF 11
