REMARK  Name = ZINC15840161
REMARK  8 active torsions:
REMARK  status: ('A' for Active; 'I' for Inactive)
REMARK    1  A    between atoms: C_1  and  N_2
REMARK    2  A    between atoms: N_2  and  C_3
REMARK    3  A    between atoms: N_2  and  S_9
REMARK    4  A    between atoms: S_9  and  C_12
REMARK    5  A    between atoms: C_16  and  N_18
REMARK    6  A    between atoms: C_19  and  C_21
REMARK    7  A    between atoms: C_21  and  C_22
REMARK    8  A    between atoms: C_27  and  N_28
REMARK                            x       y       z     vdW  Elec       q    Type
REMARK                         _______ _______ _______ _____ _____    ______ ____
ROOT
ATOM      1  C   UNL     1       6.922  -0.123  -4.962  0.00  0.00    +0.110 A 
ATOM      2  C   UNL     1       6.093   0.366  -5.955  0.00  0.00    +0.029 A 
ATOM      3  C   UNL     1       4.778   0.680  -5.670  0.00  0.00    +0.004 A 
ATOM      4  C   UNL     1       4.287   0.506  -4.390  0.00  0.00    +0.023 A 
ATOM      5  C   UNL     1       5.116   0.016  -3.391  0.00  0.00    +0.035 A 
ATOM      6  C   UNL     1       6.439  -0.294  -3.680  0.00  0.00    +0.052 A 
ENDROOT
BRANCH   5   7
ATOM      7  N   UNL     1       4.622  -0.161  -2.094  0.00  0.00    -0.285 N 
ATOM      8  C   UNL     1       3.350  -0.566  -1.906  0.00  0.00    +0.222 C 
ATOM      9  O   UNL     1       2.664  -0.869  -2.859  0.00  0.00    -0.275 OA
ATOM     10  H   UNL     1       5.195   0.008  -1.329  0.00  0.00    +0.155 HD
BRANCH   8  11
ATOM     11  C   UNL     1       2.781  -0.643  -0.513  0.00  0.00    +0.133 C 
BRANCH  11  12
ATOM     12  C   UNL     1       1.353  -1.120  -0.579  0.00  0.00    -0.008 A 
ATOM     13  C   UNL     1       0.320  -0.203  -0.631  0.00  0.00    +0.006 A 
ATOM     14  C   UNL     1      -0.990  -0.640  -0.692  0.00  0.00    +0.000 A 
ATOM     15  C   UNL     1      -1.266  -1.995  -0.701  0.00  0.00    +0.002 A 
ATOM     16  C   UNL     1      -0.233  -2.912  -0.655  0.00  0.00    +0.033 A 
ATOM     17  C   UNL     1       1.077  -2.474  -0.589  0.00  0.00    +0.130 A 
BRANCH  17  18
ATOM     18  N   UNL     1       2.183  -3.456  -0.534  0.00  0.00    +0.057 N 
ATOM     19  O   UNL     1       3.228  -3.229  -1.117  0.00  0.00    -0.126 OA
ATOM     20  O   UNL     1       2.048  -4.491   0.094  0.00  0.00    -0.126 OA
ENDBRANCH  17  18
ENDBRANCH  11  12
ENDBRANCH   8  11
ENDBRANCH   5   7
BRANCH   1  21
ATOM     21  S   UNL     1       8.598  -0.522  -5.331  0.00  0.00    +0.075 S 
ATOM     22  O   UNL     1       9.055  -1.366  -4.283  0.00  0.00    -0.150 OA
ATOM     23  O   UNL     1       8.631  -0.916  -6.696  0.00  0.00    -0.150 OA
BRANCH  21  25
ATOM     24  C   UNL     1       9.579   1.767  -6.385  0.00  0.00    +0.157 C 
ATOM     25  N   UNL     1       9.470   0.882  -5.223  0.00  0.00    -0.206 N 
BRANCH  25  26
ATOM     26  C   UNL     1      10.102   1.221  -4.025  0.00  0.00    +0.051 A 
ATOM     27  C   UNL     1       9.591   0.766  -2.816  0.00  0.00    +0.025 A 
ATOM     28  C   UNL     1      10.221   1.099  -1.633  0.00  0.00    +0.002 A 
ATOM     29  C   UNL     1      11.352   1.895  -1.650  0.00  0.00    +0.000 A 
ATOM     30  C   UNL     1      11.860   2.354  -2.851  0.00  0.00    +0.002 A 
ATOM     31  C   UNL     1      11.238   2.020  -4.038  0.00  0.00    +0.025 A 
ENDBRANCH  25  26
ENDBRANCH  21  25
ENDBRANCH   1  21
TORSDOF 7
