REMARK  Name = ZINC10660229
REMARK  7 active torsions:
REMARK  status: ('A' for Active; 'I' for Inactive)
REMARK    1  A    between atoms: C_6  and  O_30
REMARK    2  A    between atoms: C_7  and  C_11
REMARK    3  A    between atoms: C_11  and  O_13
REMARK    4  A    between atoms: O_13  and  C_14
REMARK    5  A    between atoms: C_14  and  C_15
REMARK    6  A    between atoms: N_17  and  C_18
REMARK    7  A    between atoms: C_19  and  C_27
REMARK                            x       y       z     vdW  Elec       q    Type
REMARK                         _______ _______ _______ _____ _____    ______ ____
ROOT
ATOM      1  C   UNL     1       0.209  -6.975  -0.039  0.00  0.00    +0.255 C 
ATOM      2  O   UNL     1      -0.783  -6.277  -0.025  0.00  0.00    -0.272 OA
ATOM      3  N   UNL     1       0.088  -8.317  -0.045  0.00  0.00    -0.277 N 
ATOM      4  H   UNL     1       0.882  -8.875  -0.056  0.00  0.00    +0.155 HD
ENDROOT
BRANCH   3   5
ATOM      5  C   UNL     1      -1.170  -8.900  -0.037  0.00  0.00    +0.084 A 
ATOM      6  C   UNL     1      -1.483 -10.251  -0.036  0.00  0.00    +0.068 A 
ATOM      7  C   UNL     1      -2.891 -10.606  -0.026  0.00  0.00    -0.023 A 
ATOM      8  C   UNL     1      -3.728  -9.546  -0.019  0.00  0.00    -0.004 A 
ATOM      9  S   UNL     1      -2.663  -8.133  -0.017  0.00  0.00    -0.077 S 
ATOM     10  C   UNL     1      -5.225  -9.582  -0.010  0.00  0.00    +0.043 C 
ATOM     11  C   UNL     1      -5.676 -11.000  -0.390  0.00  0.00    +0.005 C 
ATOM     12  C   UNL     1      -4.880 -12.012   0.440  0.00  0.00    +0.005 C 
ATOM     13  C   UNL     1      -3.421 -12.032  -0.022  0.00  0.00    +0.037 C 
BRANCH   6  14
ATOM     14  C   UNL     1      -0.436 -11.277  -0.045  0.00  0.00    +0.244 C 
ATOM     15  O   UNL     1       0.006 -11.705   1.005  0.00  0.00    -0.270 OA
ATOM     16  N   UNL     1       0.036 -11.748  -1.216  0.00  0.00    -0.325 N 
ATOM     17  H   UNL     1      -0.316 -11.407  -2.053  0.00  0.00    +0.145 HD
ATOM     18  H   UNL     1       0.729 -12.427  -1.222  0.00  0.00    +0.145 HD
ENDBRANCH   6  14
ENDBRANCH   3   5
BRANCH   1  19
ATOM     19  C   UNL     1       1.576  -6.341  -0.048  0.00  0.00    +0.328 C 
BRANCH  19  20
ATOM     20  O   UNL     1       1.441  -4.918  -0.039  0.00  0.00    -0.452 OA
BRANCH  20  21
ATOM     21  C   UNL     1       2.579  -4.196  -0.046  0.00  0.00    +0.343 C 
ATOM     22  O   UNL     1       3.655  -4.758  -0.059  0.00  0.00    -0.245 OA
BRANCH  21  29
ATOM     23  C   UNL     1      -0.016   1.356   0.009  0.00  0.00    +0.001 A 
ATOM     24  C   UNL     1       1.169   2.090   0.002  0.00  0.00    +0.001 A 
ATOM     25  C   UNL     1       2.379   1.467  -0.013  0.00  0.00    +0.008 A 
ATOM     26  C   UNL     1       2.440   0.063  -0.021  0.00  0.00    -0.014 A 
ATOM     27  C   UNL     1       3.675  -0.607  -0.037  0.00  0.00    +0.054 A 
ATOM     28  C   UNL     1       3.711  -1.970  -0.044  0.00  0.00    +0.131 A 
ATOM     29  C   UNL     1       2.517  -2.723  -0.037  0.00  0.00    +0.101 A 
ATOM     30  C   UNL     1       1.286  -2.085  -0.021  0.00  0.00    +0.027 A 
ATOM     31  C   UNL     1       1.234  -0.684  -0.013  0.00  0.00    -0.017 A 
ATOM     32  C   UNL     1       0.002  -0.004   0.002  0.00  0.00    +0.008 A 
BRANCH  28  33
ATOM     33  O   UNL     1       4.908  -2.610  -0.059  0.00  0.00    -0.506 OA
ATOM     34  H   UNL     1       5.263  -2.800   0.820  0.00  0.00    +0.292 HD
ENDBRANCH  28  33
ENDBRANCH  21  29
ENDBRANCH  20  21
ENDBRANCH  19  20
ENDBRANCH   1  19
TORSDOF 7
