REMARK  Name = ZINC36484944
REMARK  15 active torsions:
REMARK  status: ('A' for Active; 'I' for Inactive)
REMARK    1  A    between atoms: C_1  and  C_2
REMARK    2  A    between atoms: C_2  and  C_3
REMARK    3  A    between atoms: C_3  and  C_4
REMARK    4  A    between atoms: C_4  and  N_5
REMARK    5  A    between atoms: C_6  and  C_8
REMARK    6  A    between atoms: C_8  and  C_10
REMARK    7  A    between atoms: C_8  and  N_20
REMARK    8  A    between atoms: C_13  and  O_18
REMARK    9  A    between atoms: C_14  and  O_16
REMARK   10  A    between atoms: O_16  and  C_17
REMARK   11  A    between atoms: O_18  and  C_19
REMARK   12  A    between atoms: N_20  and  C_21
REMARK   13  A    between atoms: C_28  and  C_30
REMARK   14  A    between atoms: C_31  and  O_37
REMARK   15  A    between atoms: C_35  and  O_36
REMARK                            x       y       z     vdW  Elec       q    Type
REMARK                         _______ _______ _______ _____ _____    ______ ____
ROOT
ATOM      1  N   UNL     1      -4.733  -5.973   0.361  0.00  0.00    -0.251 N 
ATOM      2  C   UNL     1      -4.448  -6.252   1.648  0.00  0.00    +0.259 C 
ATOM      3  O   UNL     1      -3.794  -5.469   2.310  0.00  0.00    -0.269 OA
ENDROOT
BRANCH   1   4
ATOM      4  C   UNL     1      -5.392  -6.919  -0.430  0.00  0.00    +0.039 A 
ATOM      5  C   UNL     1      -6.690  -6.680  -0.866  0.00  0.00    +0.023 A 
ATOM      6  C   UNL     1      -7.338  -7.615  -1.648  0.00  0.00    +0.003 A 
ATOM      7  C   UNL     1      -6.697  -8.789  -1.998  0.00  0.00    +0.020 A 
ATOM      8  C   UNL     1      -5.405  -9.031  -1.566  0.00  0.00    +0.043 A 
ATOM      9  C   UNL     1      -4.749  -8.096  -0.788  0.00  0.00    +0.043 A 
ATOM     10 CL   UNL     1      -4.605 -10.507  -2.008  0.00  0.00    -0.083 Cl
ENDBRANCH   1   4
BRANCH   2  11
ATOM     11  C   UNL     1      -4.928  -7.506   2.253  0.00  0.00    +0.120 A 
ATOM     12  C   UNL     1      -4.085  -8.625   2.321  0.00  0.00    +0.133 A 
ATOM     13  C   UNL     1      -4.546  -9.800   2.893  0.00  0.00    +0.046 A 
ATOM     14  C   UNL     1      -5.833  -9.871   3.395  0.00  0.00    +0.007 A 
ATOM     15  C   UNL     1      -6.672  -8.774   3.333  0.00  0.00    +0.046 A 
ATOM     16  C   UNL     1      -6.229  -7.588   2.770  0.00  0.00    +0.133 A 
BRANCH  16  17
ATOM     17  O   UNL     1      -7.052  -6.511   2.716  0.00  0.00    -0.506 OA
ATOM     18  H   UNL     1      -7.588  -6.466   1.911  0.00  0.00    +0.292 HD
ENDBRANCH  16  17
BRANCH  12  19
ATOM     19  O   UNL     1      -2.822  -8.558   1.829  0.00  0.00    -0.506 OA
ATOM     20  H   UNL     1      -2.163  -8.269   2.475  0.00  0.00    +0.292 HD
ENDBRANCH  12  19
ENDBRANCH   2  11
BRANCH   1  21
ATOM     21  C   UNL     1      -4.353  -4.678  -0.209  0.00  0.00    +0.198 C 
BRANCH  21  22
ATOM     22  C   UNL     1      -4.924  -4.553  -1.598  0.00  0.00    -0.014 A 
ATOM     23  C   UNL     1      -4.616  -5.500  -2.557  0.00  0.00    +0.010 A 
ATOM     24  C   UNL     1      -5.137  -5.390  -3.833  0.00  0.00    +0.050 A 
ATOM     25  C   UNL     1      -5.970  -4.330  -4.152  0.00  0.00    +0.162 A 
ATOM     26  C   UNL     1      -6.280  -3.377  -3.187  0.00  0.00    +0.162 A 
ATOM     27  C   UNL     1      -5.759  -3.496  -1.908  0.00  0.00    +0.055 A 
BRANCH  26  28
ATOM     28  O   UNL     1      -7.097  -2.335  -3.495  0.00  0.00    -0.491 OA
ATOM     29  C   UNL     1      -7.372  -1.395  -2.454  0.00  0.00    +0.277 C 
ENDBRANCH  26  28
BRANCH  25  30
ATOM     30  O   UNL     1      -6.483  -4.220  -5.407  0.00  0.00    -0.491 OA
ATOM     31  C   UNL     1      -6.122  -5.234  -6.347  0.00  0.00    +0.277 C 
ENDBRANCH  25  30
ENDBRANCH  21  22
BRANCH  21  33
ATOM     32  N   UNL     1      -2.269  -3.466  -0.764  0.00  0.00    -0.313 N 
ATOM     33  C   UNL     1      -2.851  -4.578  -0.272  0.00  0.00    +0.238 C 
ATOM     34  O   UNL     1      -2.165  -5.498   0.120  0.00  0.00    -0.273 OA
ATOM     35  H   UNL     1      -2.818  -2.731  -1.078  0.00  0.00    +0.149 HD
BRANCH  32  36
ATOM     36  C   UNL     1      -0.809  -3.370  -0.826  0.00  0.00    +0.104 C 
BRANCH  36  37
ATOM     37  C   UNL     1      -0.412  -2.017  -1.421  0.00  0.00    +0.018 C 
BRANCH  37  39
ATOM     38  C   UNL     1       1.510  -0.564  -2.081  0.00  0.00    +0.004 C 
ATOM     39  C   UNL     1       1.113  -1.916  -1.486  0.00  0.00    -0.002 C 
ENDBRANCH  37  39
ENDBRANCH  36  37
ENDBRANCH  32  36
ENDBRANCH  21  33
ENDBRANCH   1  21
TORSDOF 12
