REMARK  Name = ZINC26687577
REMARK  14 active torsions:
REMARK  status: ('A' for Active; 'I' for Inactive)
REMARK    1  A    between atoms: C_1  and  C_2
REMARK    2  A    between atoms: C_2  and  O_3
REMARK    3  A    between atoms: O_3  and  C_4
REMARK    4  A    between atoms: C_7  and  C_12
REMARK    5  A    between atoms: C_9  and  O_10
REMARK    6  A    between atoms: O_10  and  C_11
REMARK    7  A    between atoms: C_19  and  C_37
REMARK    8  A    between atoms: C_20  and  C_31
REMARK    9  A    between atoms: C_21  and  C_23
REMARK   10  A    between atoms: C_26  and  O_29
REMARK   11  A    between atoms: O_29  and  C_30
REMARK   12  A    between atoms: C_31  and  O_33
REMARK   13  A    between atoms: O_33  and  C_34
REMARK   14  A    between atoms: C_34  and  C_35
REMARK                            x       y       z     vdW  Elec       q    Type
REMARK                         _______ _______ _______ _____ _____    ______ ____
ROOT
ATOM      1  C   UNL     1      -0.451   4.141   4.691  0.00  0.00    +0.028 C 
ATOM      2  C   UNL     1      -0.579   4.107   3.339  0.00  0.00    +0.081 A 
ATOM      3  C   UNL     1      -0.443   2.972   2.416  0.00  0.00    +0.268 A 
ATOM      4  O   UNL     1      -0.178   1.858   2.828  0.00  0.00    -0.266 OA
ATOM      5  N   UNL     1      -0.619   3.200   1.108  0.00  0.00    -0.275 N 
ATOM      6  C   UNL     1      -0.918   4.479   0.696  0.00  0.00    +0.178 A 
ATOM      7  N   UNL     1      -1.110   4.819  -0.554  0.00  0.00    -0.228 NA
ATOM      8  C   UNL     1      -1.045   3.986  -1.585  0.00  0.00    +0.053 C 
ATOM      9  C   UNL     1      -0.759   2.663  -1.392  0.00  0.00    +0.085 C 
ATOM     10  C   UNL     1      -0.523   2.185   0.022  0.00  0.00    +0.162 C 
ATOM     11  C   UNL     1      -1.287   4.503  -2.979  0.00  0.00    +0.066 C 
ATOM     12  S   UNL     1      -0.959   5.431   2.202  0.00  0.00    -0.046 S 
ENDROOT
BRANCH   1  16
ATOM     13  C   UNL     1      -0.110   0.520   6.876  0.00  0.00    +0.162 A 
ATOM     14  C   UNL     1      -1.027   0.620   5.838  0.00  0.00    +0.050 A 
ATOM     15  C   UNL     1      -1.141   1.793   5.126  0.00  0.00    +0.012 A 
ATOM     16  C   UNL     1      -0.332   2.889   5.448  0.00  0.00    -0.020 A 
ATOM     17  C   UNL     1       0.597   2.785   6.492  0.00  0.00    +0.057 A 
ATOM     18  C   UNL     1       0.701   1.607   7.204  0.00  0.00    +0.162 A 
BRANCH  18  19
ATOM     19  O   UNL     1       1.597   1.504   8.221  0.00  0.00    -0.491 OA
ATOM     20  C   UNL     1       2.395   2.656   8.502  0.00  0.00    +0.277 C 
ENDBRANCH  18  19
BRANCH  13  21
ATOM     21  O   UNL     1      -0.001  -0.640   7.575  0.00  0.00    -0.489 OA
BRANCH  21  23
ATOM     22  C   UNL     1      -0.597  -2.927   8.081  0.00  0.00    +0.048 C 
ATOM     23  C   UNL     1      -0.861  -1.714   7.187  0.00  0.00    +0.226 C 
ENDBRANCH  21  23
ENDBRANCH  13  21
ENDBRANCH   1  16
BRANCH  10  24
ATOM     24  C   UNL     1       0.853   1.573   0.080  0.00  0.00    -0.020 A 
ATOM     25  C   UNL     1       1.967   2.387   0.179  0.00  0.00    +0.009 A 
ATOM     26  C   UNL     1       3.229   1.829   0.226  0.00  0.00    +0.046 A 
ATOM     27  C   UNL     1       3.379   0.450   0.175  0.00  0.00    +0.120 A 
ATOM     28  C   UNL     1       2.260  -0.364   0.077  0.00  0.00    +0.046 A 
ATOM     29  C   UNL     1       1.000   0.199   0.029  0.00  0.00    +0.009 A 
BRANCH  27  30
ATOM     30  O   UNL     1       4.620  -0.102   0.223  0.00  0.00    -0.495 OA
ATOM     31  C   UNL     1       5.727   0.798   0.324  0.00  0.00    +0.277 C 
ENDBRANCH  27  30
ENDBRANCH  10  24
BRANCH   9  32
ATOM     32  C   UNL     1      -0.689   1.774  -2.477  0.00  0.00    +0.340 C 
ATOM     33  O   UNL     1      -1.019   2.144  -3.590  0.00  0.00    -0.245 OA
BRANCH  32  34
ATOM     34  O   UNL     1      -0.255   0.509  -2.286  0.00  0.00    -0.457 OA
BRANCH  34  35
ATOM     35  C   UNL     1      -0.209  -0.341  -3.434  0.00  0.00    +0.259 C 
BRANCH  35  36
ATOM     36  C   UNL     1       0.297  -1.702  -3.031  0.00  0.00    +0.006 C 
ATOM     37  C   UNL     1      -0.304  -2.780  -3.470  0.00  0.00    +0.007 C 
ENDBRANCH  35  36
ENDBRANCH  34  35
ENDBRANCH  32  34
ENDBRANCH   9  32
TORSDOF 10
