REMARK  Name = ZINC38800126
REMARK  5 active torsions:
REMARK  status: ('A' for Active; 'I' for Inactive)
REMARK    1  A    between atoms: C_4  and  C_7
REMARK    2  A    between atoms: N_9  and  N_10
REMARK    3  A    between atoms: N_10  and  C_11
REMARK    4  A    between atoms: N_10  and  S_17
REMARK    5  A    between atoms: S_17  and  C_20
REMARK                            x       y       z     vdW  Elec       q    Type
REMARK                         _______ _______ _______ _____ _____    ______ ____
ROOT
ATOM      1  N   UNL     1       4.941  -2.713  -0.062  0.00  0.00    -0.118 N 
ENDROOT
BRANCH   1   2
ATOM      2  C   UNL     1       5.479  -3.141   1.153  0.00  0.00    +0.072 A 
ATOM      3  C   UNL     1       4.736  -3.959   1.994  0.00  0.00    +0.026 A 
ATOM      4  C   UNL     1       5.270  -4.381   3.196  0.00  0.00    +0.002 A 
ATOM      5  C   UNL     1       6.545  -3.990   3.562  0.00  0.00    +0.000 A 
ATOM      6  C   UNL     1       7.289  -3.176   2.727  0.00  0.00    +0.002 A 
ATOM      7  C   UNL     1       6.762  -2.755   1.522  0.00  0.00    +0.026 A 
ENDBRANCH   1   2
BRANCH   1  10
ATOM      8  C   UNL     1       4.022  -0.517  -0.073  0.00  0.00    +0.262 C 
ATOM      9  O   UNL     1       5.148  -0.060  -0.061  0.00  0.00    -0.269 OA
ATOM     10  N   UNL     1       3.836  -1.852  -0.074  0.00  0.00    -0.210 N 
ATOM     11  H   UNL     1       2.938  -2.217  -0.084  0.00  0.00    +0.175 HD
BRANCH   8  15
ATOM     12  C   UNL     1       0.670   2.092  -0.112  0.00  0.00    +0.000 A 
ATOM     13  C   UNL     1       1.951   2.616  -0.098  0.00  0.00    +0.001 A 
ATOM     14  C   UNL     1       3.044   1.774  -0.085  0.00  0.00    +0.013 A 
ATOM     15  C   UNL     1       2.855   0.391  -0.086  0.00  0.00    +0.038 A 
ATOM     16  C   UNL     1       1.561  -0.131  -0.100  0.00  0.00    +0.013 A 
ATOM     17  C   UNL     1       0.477   0.722  -0.113  0.00  0.00    +0.001 A 
ENDBRANCH   8  15
ENDBRANCH   1  10
BRANCH   1  18
ATOM     18  S   UNL     1       5.610  -3.223  -1.489  0.00  0.00    +0.090 S 
ATOM     19  O   UNL     1       5.387  -2.186  -2.435  0.00  0.00    -0.148 OA
ATOM     20  O   UNL     1       6.911  -3.704  -1.179  0.00  0.00    -0.148 OA
BRANCH  18  21
ATOM     21  C   UNL     1       4.676  -4.613  -2.035  0.00  0.00    +0.112 A 
ATOM     22  C   UNL     1       5.078  -5.947  -1.606  0.00  0.00    +0.031 A 
ATOM     23  C   UNL     1       4.406  -7.055  -1.988  0.00  0.00    +0.027 A 
ATOM     24  C   UNL     1       3.238  -6.926  -2.857  0.00  0.00    +0.056 A 
ATOM     25  N   UNL     1       2.390  -7.765  -3.395  0.00  0.00    -0.268 N 
ATOM     26  C   UNL     1       1.479  -7.048  -4.135  0.00  0.00    +0.308 C 
ATOM     27  O   UNL     1       0.558  -7.528  -4.762  0.00  0.00    -0.252 OA
ATOM     28  N   UNL     1       1.769  -5.707  -4.057  0.00  0.00    -0.267 N 
ATOM     29  C   UNL     1       2.825  -5.555  -3.297  0.00  0.00    +0.058 A 
ATOM     30  C   UNL     1       3.606  -4.410  -2.834  0.00  0.00    +0.054 A 
ATOM     31  H   UNL     1       1.275  -4.993  -4.491  0.00  0.00    +0.156 HD
ATOM     32  H   UNL     1       2.402  -8.730  -3.290  0.00  0.00    +0.156 HD
ENDBRANCH  18  21
ENDBRANCH   1  18
TORSDOF 5
