REMARK  Name = ZINC50323919
REMARK  3 active torsions:
REMARK  status: ('A' for Active; 'I' for Inactive)
REMARK    1  A    between atoms: C_13  and  C_15
REMARK    2  A    between atoms: C_16  and  N_24
REMARK    3  A    between atoms: C_17  and  C_21
REMARK                            x       y       z     vdW  Elec       q    Type
REMARK                         _______ _______ _______ _____ _____    ______ ____
ROOT
ATOM      1  C   UNL     1       0.199   2.508   0.310  0.00  0.00    +0.000 C 
ATOM      2  C   UNL     1       1.656   2.228  -0.062  0.00  0.00    +0.002 C 
ATOM      3  C   UNL     1       2.402   1.657   1.148  0.00  0.00    +0.023 C 
ATOM      4  C   UNL     1       1.720   0.362   1.587  0.00  0.00    +0.079 C 
ATOM      5  C   UNL     1       0.274   0.669   1.989  0.00  0.00    +0.010 C 
ATOM      6  C   UNL     1      -0.477   1.215   0.776  0.00  0.00    +0.005 C 
ATOM      7  C   UNL     1      -0.388  -0.612   2.495  0.00  0.00    +0.007 C 
ATOM      8  C   UNL     1       0.358  -1.108   3.737  0.00  0.00    +0.019 C 
ATOM      9  C   UNL     1       1.815  -1.410   3.377  0.00  0.00    +0.108 C 
ATOM     10  N   UNL     1       2.414  -0.220   2.741  0.00  0.00    -0.293 N 
ATOM     11  C   UNL     1       3.564   0.315   3.200  0.00  0.00    +0.266 C 
ATOM     12  O   UNL     1       4.079   1.247   2.610  0.00  0.00    -0.268 OA
ENDROOT
BRANCH  11  13
ATOM     13  C   UNL     1       4.192  -0.226   4.407  0.00  0.00    +0.141 A 
ATOM     14  C   UNL     1       4.799   0.496   5.430  0.00  0.00    +0.078 A 
ATOM     15  C   UNL     1       5.243  -0.469   6.348  0.00  0.00    +0.087 A 
ATOM     16  N   UNL     1       4.914  -1.646   5.884  0.00  0.00    -0.176 NA
ATOM     17  N   UNL     1       4.298  -1.548   4.762  0.00  0.00    -0.271 N 
ATOM     18  H   UNL     1       3.961  -2.295   4.242  0.00  0.00    +0.189 HD
BRANCH  15  19
ATOM     19  C   UNL     1       5.969  -0.197   7.641  0.00  0.00    +0.041 C 
ATOM     20  C   UNL     1       6.541  -1.399   8.396  0.00  0.00    +0.010 C 
ATOM     21  C   UNL     1       5.308  -0.671   8.936  0.00  0.00    +0.010 C 
ENDBRANCH  15  19
BRANCH  14  22
ATOM     22  N   UNL     1       4.938   1.880   5.524  0.00  0.00    -0.355 N 
ATOM     23  H   UNL     1       4.588   2.451   4.822  0.00  0.00    +0.142 HD
ATOM     24  H   UNL     1       5.383   2.272   6.291  0.00  0.00    +0.142 HD
ENDBRANCH  14  22
ENDBRANCH  11  13
TORSDOF 3
