REMARK  Name = ZINC34953100
REMARK  20 active torsions:
REMARK  status: ('A' for Active; 'I' for Inactive)
REMARK    1  A    between atoms: C_1  and  C_2
REMARK    2  A    between atoms: C_2  and  N_3
REMARK    3  A    between atoms: N_3  and  C_4
REMARK    4  A    between atoms: N_3  and  C_6
REMARK    5  A    between atoms: C_4  and  C_5
REMARK    6  A    between atoms: C_6  and  C_7
REMARK    7  A    between atoms: C_7  and  N_8
REMARK    8  A    between atoms: C_9  and  C_26
REMARK    9  A    between atoms: C_11  and  C_12
REMARK   10  A    between atoms: C_12  and  C_13
REMARK   11  A    between atoms: C_15  and  C_20
REMARK   12  A    between atoms: C_18  and  C_19
REMARK   13  A    between atoms: C_29  and  O_34
REMARK   14  A    between atoms: C_30  and  O_32
REMARK   15  A    between atoms: O_32  and  C_33
REMARK   16  A    between atoms: O_34  and  C_35
REMARK   17  A    between atoms: C_35  and  C_36
REMARK   18  A    between atoms: C_36  and  C_37
REMARK   19  A    between atoms: C_37  and  C_38
REMARK   20  A    between atoms: C_37  and  C_39
REMARK                            x       y       z     vdW  Elec       q    Type
REMARK                         _______ _______ _______ _____ _____    ______ ____
ROOT
ATOM      1  N   UNL     1      -2.181  -3.423  -1.936  0.00  0.00    -0.285 N 
ATOM      2  C   UNL     1      -2.152  -4.269  -3.136  0.00  0.00    +0.145 C 
ATOM      3  C   UNL     1      -2.594  -5.644  -2.693  0.00  0.00    +0.076 C 
ATOM      4  C   UNL     1      -2.845  -5.565  -1.365  0.00  0.00    +0.249 C 
ATOM      5  O   UNL     1      -3.265  -6.587  -0.585  0.00  0.00    -0.282 OA
ATOM      6  C   UNL     1      -2.581  -4.186  -0.903  0.00  0.00    +0.288 C 
ATOM      7  O   UNL     1      -2.709  -3.797   0.241  0.00  0.00    -0.266 OA
ENDROOT
BRANCH   2   8
ATOM      8  C   UNL     1      -3.102  -3.728  -4.173  0.00  0.00    -0.019 A 
ATOM      9  C   UNL     1      -4.361  -3.297  -3.798  0.00  0.00    +0.009 A 
ATOM     10  C   UNL     1      -5.236  -2.801  -4.746  0.00  0.00    +0.050 A 
ATOM     11  C   UNL     1      -4.852  -2.734  -6.076  0.00  0.00    +0.162 A 
ATOM     12  C   UNL     1      -3.585  -3.167  -6.453  0.00  0.00    +0.162 A 
ATOM     13  C   UNL     1      -2.711  -3.659  -5.497  0.00  0.00    +0.055 A 
BRANCH  12  14
ATOM     14  O   UNL     1      -3.203  -3.103  -7.757  0.00  0.00    -0.491 OA
ATOM     15  C   UNL     1      -1.930  -3.660  -8.088  0.00  0.00    +0.277 C 
ENDBRANCH  12  14
BRANCH  11  16
ATOM     16  O   UNL     1      -5.712  -2.246  -7.010  0.00  0.00    -0.488 OA
BRANCH  16  17
ATOM     17  C   UNL     1      -6.996  -1.820  -6.549  0.00  0.00    +0.229 C 
BRANCH  17  18
ATOM     18  C   UNL     1      -7.817  -1.306  -7.734  0.00  0.00    +0.044 C 
BRANCH  18  19
ATOM     19  C   UNL     1      -9.192  -0.850  -7.241  0.00  0.00    -0.014 C 
ATOM     20  C   UNL     1      -9.027   0.353  -6.311  0.00  0.00    +0.007 C 
ATOM     21  C   UNL     1     -10.058  -0.454  -8.439  0.00  0.00    +0.007 C 
ENDBRANCH  18  19
ENDBRANCH  17  18
ENDBRANCH  16  17
ENDBRANCH  11  16
ENDBRANCH   2   8
BRANCH   3  22
ATOM     22  C   UNL     1      -2.726  -6.834  -3.538  0.00  0.00    +0.195 C 
ATOM     23  O   UNL     1      -2.502  -6.760  -4.732  0.00  0.00    -0.287 OA
BRANCH  22  24
ATOM     24  C   UNL     1      -3.131  -8.124  -2.940  0.00  0.00    +0.025 A 
ATOM     25  C   UNL     1      -4.428  -8.607  -3.126  0.00  0.00    +0.015 A 
ATOM     26  C   UNL     1      -4.799  -9.811  -2.566  0.00  0.00    -0.050 A 
ATOM     27  C   UNL     1      -3.889 -10.541  -1.821  0.00  0.00    +0.003 A 
ATOM     28  C   UNL     1      -2.602 -10.069  -1.633  0.00  0.00    +0.004 A 
ATOM     29  C   UNL     1      -2.216  -8.868  -2.192  0.00  0.00    -0.040 A 
ATOM     30  C   UNL     1      -0.812  -8.358  -1.992  0.00  0.00    +0.044 C 
ATOM     31  C   UNL     1      -6.199 -10.334  -2.764  0.00  0.00    +0.044 C 
ENDBRANCH  22  24
ENDBRANCH   3  22
BRANCH   1  32
ATOM     32  C   UNL     1      -1.829  -2.002  -1.874  0.00  0.00    +0.090 C 
BRANCH  32  33
ATOM     33  C   UNL     1      -0.335  -1.859  -1.580  0.00  0.00    -0.060 C 
BRANCH  33  34
ATOM     34  N   UNL     1       0.017  -0.434  -1.518  0.00  0.00    +0.380 N 
ATOM     35  H   UNL     1      -0.270   0.021  -2.371  0.00  0.00    -0.082 HD
BRANCH  34  37
ATOM     36  C   UNL     1      -0.390   1.695  -0.378  0.00  0.00    -0.017 C 
ATOM     37  C   UNL     1      -0.665   0.190  -0.376  0.00  0.00    -0.082 C 
ENDBRANCH  34  37
BRANCH  34  38
ATOM     38  C   UNL     1       1.471  -0.296  -1.354  0.00  0.00    -0.082 C 
ATOM     39  C   UNL     1       2.178  -0.829  -2.602  0.00  0.00    -0.017 C 
ENDBRANCH  34  38
ENDBRANCH  33  34
ENDBRANCH  32  33
ENDBRANCH   1  32
TORSDOF 13
