REMARK  Name = ZINC46843034
REMARK  8 active torsions:
REMARK  status: ('A' for Active; 'I' for Inactive)
REMARK    1  A    between atoms: C_1  and  C_2
REMARK    2  A    between atoms: C_7  and  C_10
REMARK    3  A    between atoms: C_14  and  C_17
REMARK    4  A    between atoms: C_17  and  N_18
REMARK    5  A    between atoms: C_19  and  C_21
REMARK    6  A    between atoms: C_21  and  C_22
REMARK    7  A    between atoms: C_22  and  C_23
REMARK    8  A    between atoms: C_25  and  C_28
REMARK                            x       y       z     vdW  Elec       q    Type
REMARK                         _______ _______ _______ _____ _____    ______ ____
ROOT
ATOM      1  N   UNL     1       4.638   3.978  -5.162  0.00  0.00    -0.311 N 
ATOM      2  C   UNL     1       5.221   4.826  -6.033  0.00  0.00    +0.214 C 
ATOM      3  O   UNL     1       5.915   4.392  -6.929  0.00  0.00    -0.276 OA
ATOM      4  H   UNL     1       4.083   4.325  -4.446  0.00  0.00    +0.149 HD
ENDROOT
BRANCH   1   5
ATOM      5  C   UNL     1       4.841   2.534  -5.298  0.00  0.00    +0.141 C 
BRANCH   5  17
ATOM      6  C   UNL     1       0.016   1.546   0.045  0.00  0.00    +0.039 C 
ATOM      7  C   UNL     1       0.015   0.016   0.022  0.00  0.00    +0.133 C 
ATOM      8  C   UNL     1       0.716  -0.478  -1.248  0.00  0.00    +0.137 C 
ATOM      9  N   UNL     1       2.143  -0.135  -1.154  0.00  0.00    -0.312 N 
ATOM     10  C   UNL     1       2.865  -0.509   0.072  0.00  0.00    +0.137 C 
ATOM     11  C   UNL     1       2.060  -0.013   1.279  0.00  0.00    +0.133 C 
ATOM     12  O   UNL     1       0.711  -0.479   1.169  0.00  0.00    -0.371 OA
ATOM     13  C   UNL     1       2.684  -0.553   2.567  0.00  0.00    +0.039 C 
ATOM     14  C   UNL     1       2.791   0.524  -2.193  0.00  0.00    +0.099 A 
ATOM     15  C   UNL     1       2.117   0.757  -3.387  0.00  0.00    +0.042 A 
ATOM     16  C   UNL     1       2.773   1.413  -4.413  0.00  0.00    +0.010 A 
ATOM     17  C   UNL     1       4.087   1.816  -4.208  0.00  0.00    -0.014 A 
ATOM     18  C   UNL     1       4.694   1.552  -2.997  0.00  0.00    +0.089 A 
ATOM     19  N   UNL     1       4.042   0.928  -2.034  0.00  0.00    -0.349 N 
ATOM     20  H   UNL     1       4.491   0.759  -1.192  0.00  0.00    +0.167 HD
ENDBRANCH   5  17
ENDBRANCH   1   5
BRANCH   2  21
ATOM     21  C   UNL     1       5.012   6.311  -5.894  0.00  0.00    +0.105 C 
BRANCH  21  22
ATOM     22  C   UNL     1       5.778   7.040  -7.000  0.00  0.00    +0.108 C 
BRANCH  22  23
ATOM     23  C   UNL     1       5.569   8.526  -6.860  0.00  0.00    +0.228 A 
ATOM     24  N   UNL     1       6.315   9.338  -6.167  0.00  0.00    -0.191 NA
ATOM     25  C   UNL     1       5.842  10.594  -6.263  0.00  0.00    +0.202 A 
ATOM     26  N   UNL     1       4.779  10.583  -7.028  0.00  0.00    -0.056 NA
ATOM     27  O   UNL     1       4.588   9.236  -7.433  0.00  0.00    -0.338 OA
BRANCH  25  28
ATOM     28  C   UNL     1       6.426  11.791  -5.609  0.00  0.00    +0.023 A 
ATOM     29  C   UNL     1       7.568  11.669  -4.819  0.00  0.00    +0.013 A 
ATOM     30  C   UNL     1       8.108  12.786  -4.214  0.00  0.00    +0.021 A 
ATOM     31  C   UNL     1       7.517  14.025  -4.390  0.00  0.00    +0.041 A 
ATOM     32  C   UNL     1       6.382  14.151  -5.174  0.00  0.00    +0.021 A 
ATOM     33  C   UNL     1       5.839  13.042  -5.789  0.00  0.00    +0.013 A 
ATOM     34 CL   UNL     1       8.200  15.426  -3.626  0.00  0.00    -0.084 Cl
ENDBRANCH  25  28
ENDBRANCH  22  23
ENDBRANCH  21  22
ENDBRANCH   2  21
TORSDOF 6
