REMARK  Name = ZINC20992647
REMARK  7 active torsions:
REMARK  status: ('A' for Active; 'I' for Inactive)
REMARK    1  A    between atoms: N_8  and  C_20
REMARK    2  A    between atoms: C_10  and  C_13
REMARK    3  A    between atoms: C_20  and  C_21
REMARK    4  A    between atoms: N_23  and  C_24
REMARK    5  A    between atoms: C_24  and  C_25
REMARK    6  A    between atoms: C_25  and  C_27
REMARK    7  A    between atoms: C_25  and  N_33
REMARK                            x       y       z     vdW  Elec       q    Type
REMARK                         _______ _______ _______ _____ _____    ______ ____
ROOT
ATOM      1  C   UNL     1      10.412   1.991  -6.140  0.00  0.00    +0.000 A 
ATOM      2  C   UNL     1      10.283   1.310  -7.337  0.00  0.00    +0.004 A 
ATOM      3  C   UNL     1       9.141   0.577  -7.600  0.00  0.00    +0.046 A 
ATOM      4  C   UNL     1       8.123   0.528  -6.657  0.00  0.00    +0.123 A 
ATOM      5  C   UNL     1       8.250   1.225  -5.471  0.00  0.00    -0.022 A 
ATOM      6  C   UNL     1       9.393   1.951  -5.205  0.00  0.00    +0.005 A 
ATOM      7  C   UNL     1       7.118   1.190  -4.463  0.00  0.00    -0.038 C 
ATOM      8  N   UNL     1       7.023  -0.165  -3.907  0.00  0.00    +0.391 N 
ATOM      9  C   UNL     1       6.232  -1.061  -4.746  0.00  0.00    -0.027 C 
ATOM     10  C   UNL     1       6.895  -1.399  -6.064  0.00  0.00    +0.190 C 
ATOM     11  O   UNL     1       7.016  -0.230  -6.885  0.00  0.00    -0.486 OA
ATOM     12  H   UNL     1       8.043  -0.575  -3.888  0.00  0.00    -0.080 HD
ENDROOT
BRANCH  10  13
ATOM     13  C   UNL     1       6.065  -2.428  -6.787  0.00  0.00    +0.026 A 
ATOM     14  C   UNL     1       5.151  -2.031  -7.744  0.00  0.00    +0.010 A 
ATOM     15  C   UNL     1       4.393  -2.976  -8.412  0.00  0.00    +0.001 A 
ATOM     16  C   UNL     1       4.542  -4.318  -8.114  0.00  0.00    +0.003 A 
ATOM     17  C   UNL     1       5.451  -4.717  -7.153  0.00  0.00    +0.039 A 
ATOM     18  C   UNL     1       6.214  -3.772  -6.488  0.00  0.00    +0.130 A 
ATOM     19  F   UNL     1       7.103  -4.161  -5.548  0.00  0.00    -0.205 F 
ENDBRANCH  10  13
BRANCH   8  20
ATOM     20  C   UNL     1       6.503  -0.134  -2.533  0.00  0.00    +0.019 C 
BRANCH  20  21
ATOM     21  C   UNL     1       5.075   0.349  -2.547  0.00  0.00    +0.197 C 
ATOM     22  O   UNL     1       4.543   0.638  -3.598  0.00  0.00    -0.278 OA
ATOM     23  N   UNL     1       4.389   0.458  -1.392  0.00  0.00    -0.315 N 
ATOM     24  H   UNL     1       4.872   0.195  -0.439  0.00  0.00    +0.149 HD
BRANCH  23  25
ATOM     25  C   UNL     1       3.002   0.927  -1.406  0.00  0.00    +0.127 C 
BRANCH  25  26
ATOM     26  C   UNL     1       2.492   1.054   0.031  0.00  0.00    +0.104 C 
BRANCH  26  27
ATOM     27  C   UNL     1       2.484  -0.305   0.683  0.00  0.00    -0.026 A 
ATOM     28  C   UNL     1       3.505  -0.688   1.538  0.00  0.00    +0.025 A 
ATOM     29  C   UNL     1       3.467  -1.944   2.113  0.00  0.00    +0.111 A 
ATOM     30  N   UNL     1       2.469  -2.770   1.865  0.00  0.00    -0.263 NA
ATOM     31  C   UNL     1       1.480  -2.439   1.057  0.00  0.00    +0.111 A 
ATOM     32  C   UNL     1       1.454  -1.202   0.441  0.00  0.00    +0.025 A 
ENDBRANCH  26  27
BRANCH  26  33
ATOM     33  N   UNL     1       1.128   1.600   0.021  0.00  0.00    -0.290 NA
ATOM     34  C   UNL     1       1.087   2.900  -0.663  0.00  0.00    +0.113 C 
ATOM     35  C   UNL     1      -0.359   3.404  -0.704  0.00  0.00    +0.175 C 
ATOM     36  O   UNL     1      -0.871   3.477   0.630  0.00  0.00    -0.377 OA
ATOM     37  C   UNL     1      -0.846   2.227   1.325  0.00  0.00    +0.175 C 
ATOM     38  C   UNL     1       0.595   1.712   1.386  0.00  0.00    +0.113 C 
ENDBRANCH  26  33
ENDBRANCH  25  26
ENDBRANCH  23  25
ENDBRANCH  20  21
ENDBRANCH   8  20
TORSDOF 7
