REMARK  Name = ZINC21702905
REMARK  6 active torsions:
REMARK  status: ('A' for Active; 'I' for Inactive)
REMARK    1  A    between atoms: C_1  and  C_2
REMARK    2  A    between atoms: C_12  and  C_14
REMARK    3  A    between atoms: C_14  and  C_16
REMARK    4  A    between atoms: C_14  and  N_17
REMARK    5  A    between atoms: N_17  and  C_18
REMARK    6  A    between atoms: C_27  and  C_30
REMARK                            x       y       z     vdW  Elec       q    Type
REMARK                         _______ _______ _______ _____ _____    ______ ____
ROOT
ATOM      1  N   UNL     1       0.393   0.057   0.454  0.00  0.00    -0.333 N 
ATOM      2  H   UNL     1       1.355  -0.441   0.263  0.00  0.00    +0.147 HD
ENDROOT
BRANCH   1   3
ATOM      3  C   UNL     1      -0.675  -0.667   0.996  0.00  0.00    +0.030 A 
ATOM      4  C   UNL     1      -1.887  -0.036   1.242  0.00  0.00    +0.026 A 
ATOM      5  C   UNL     1      -2.946  -0.749   1.774  0.00  0.00    +0.049 A 
ATOM      6  C   UNL     1      -2.796  -2.092   2.070  0.00  0.00    +0.143 A 
ATOM      7  C   UNL     1      -1.579  -2.727   1.829  0.00  0.00    +0.077 A 
ATOM      8  C   UNL     1      -0.520  -2.015   1.292  0.00  0.00    +0.050 A 
ATOM      9  N   UNL     1      -1.443  -4.088   2.136  0.00  0.00    -0.279 N 
ATOM     10  C   UNL     1      -2.554  -4.825   2.354  0.00  0.00    +0.258 C 
ATOM     11  O   UNL     1      -2.459  -5.997   2.651  0.00  0.00    -0.271 OA
ATOM     12  C   UNL     1      -3.913  -4.184   2.228  0.00  0.00    +0.256 C 
ATOM     13  O   UNL     1      -3.829  -2.805   2.597  0.00  0.00    -0.478 OA
ATOM     14  C   UNL     1      -4.396  -4.295   0.780  0.00  0.00    +0.062 C 
ATOM     15  H   UNL     1      -0.442  -4.541   2.197  0.00  0.00    +0.155 HD
ENDBRANCH   1   3
BRANCH   1  16
ATOM     16  C   UNL     1       0.229   1.479   0.141  0.00  0.00    +0.154 C 
ATOM     17  C   UNL     1      -0.387   1.627  -1.252  0.00  0.00    +0.038 C 
BRANCH  16  28
ATOM     18  C   UNL     1      -0.313   4.317   1.258  0.00  0.00    +0.029 C 
ATOM     19  C   UNL     1       0.511   4.406  -0.029  0.00  0.00    +0.083 C 
ATOM     20  C   UNL     1       1.119   5.811  -0.174  0.00  0.00    +0.059 C 
ATOM     21  C   UNL     1       2.613   5.579  -0.188  0.00  0.00    -0.024 A 
ATOM     22  C   UNL     1       3.666   6.466  -0.300  0.00  0.00    +0.005 A 
ATOM     23  C   UNL     1       4.968   6.003  -0.287  0.00  0.00    +0.000 A 
ATOM     24  C   UNL     1       5.215   4.648  -0.162  0.00  0.00    +0.002 A 
ATOM     25  C   UNL     1       4.168   3.760  -0.050  0.00  0.00    +0.024 A 
ATOM     26  C   UNL     1       2.850   4.220  -0.062  0.00  0.00    +0.040 A 
ATOM     27  N   UNL     1       1.657   3.496   0.037  0.00  0.00    -0.267 N 
ATOM     28  C   UNL     1       1.575   2.157   0.169  0.00  0.00    +0.240 C 
ATOM     29  O   UNL     1       2.583   1.498   0.311  0.00  0.00    -0.273 OA
ENDBRANCH  16  28
ENDBRANCH   1  16
TORSDOF 3
