REMARK  Name = ZINC12275852
REMARK  9 active torsions:
REMARK  status: ('A' for Active; 'I' for Inactive)
REMARK    1  A    between atoms: C_1  and  C_2
REMARK    2  A    between atoms: C_5  and  C_8
REMARK    3  A    between atoms: C_8  and  O_35
REMARK    4  A    between atoms: C_12  and  C_33
REMARK    5  A    between atoms: C_13  and  C_19
REMARK    6  A    between atoms: C_22  and  O_31
REMARK    7  A    between atoms: C_23  and  C_25
REMARK    8  A    between atoms: C_25  and  N_26
REMARK    9  A    between atoms: O_31  and  C_32
REMARK                            x       y       z     vdW  Elec       q    Type
REMARK                         _______ _______ _______ _____ _____    ______ ____
ROOT
ATOM      1  C   UNL     1       1.969   1.699   3.790  0.00  0.00    +0.175 C 
ATOM      2  C   UNL     1       0.993   2.107   4.908  0.00  0.00    +0.136 C 
ATOM      3  S   UNL     1      -0.591   2.194   3.989  0.00  0.00    -0.104 S 
ATOM      4  C   UNL     1      -0.009   1.756   2.376  0.00  0.00    +0.087 C 
ATOM      5  C   UNL     1      -0.736   1.571   1.245  0.00  0.00    +0.065 C 
ATOM      6  C   UNL     1      -0.013   1.086   0.008  0.00  0.00    +0.071 C 
ATOM      7  C   UNL     1       1.420   1.611  -0.003  0.00  0.00    +0.110 C 
ATOM      8  C   UNL     1       2.091   1.404   1.328  0.00  0.00    +0.224 C 
ATOM      9  O   UNL     1       3.254   1.066   1.386  0.00  0.00    -0.275 OA
ATOM     10  N   UNL     1       1.365   1.604   2.472  0.00  0.00    -0.231 N 
ENDROOT
BRANCH   1  15
ATOM     11  C   UNL     1       6.242   5.584   3.575  0.00  0.00    +0.044 C 
ATOM     12  C   UNL     1       5.127   4.571   3.631  0.00  0.00    -0.050 A 
ATOM     13  C   UNL     1       5.201   3.511   4.516  0.00  0.00    +0.004 A 
ATOM     14  C   UNL     1       4.178   2.582   4.568  0.00  0.00    +0.008 A 
ATOM     15  C   UNL     1       3.083   2.712   3.734  0.00  0.00    +0.003 A 
ATOM     16  C   UNL     1       3.013   3.769   2.846  0.00  0.00    +0.008 A 
ATOM     17  C   UNL     1       4.032   4.701   2.798  0.00  0.00    +0.004 A 
ENDBRANCH   1  15
BRANCH   6  18
ATOM     18  C   UNL     1      -0.736   1.582  -1.217  0.00  0.00    -0.038 A 
ATOM     19  C   UNL     1      -0.888   2.941  -1.426  0.00  0.00    +0.008 A 
ATOM     20  C   UNL     1      -1.546   3.399  -2.551  0.00  0.00    +0.046 A 
ATOM     21  C   UNL     1      -2.064   2.494  -3.466  0.00  0.00    +0.125 A 
ATOM     22  C   UNL     1      -1.916   1.132  -3.252  0.00  0.00    +0.016 A 
ATOM     23  C   UNL     1      -1.252   0.679  -2.127  0.00  0.00    +0.013 A 
BRANCH  21  24
ATOM     24  O   UNL     1      -2.717   2.942  -4.571  0.00  0.00    -0.495 OA
ATOM     25  C   UNL     1      -2.832   4.357  -4.727  0.00  0.00    +0.277 C 
ENDBRANCH  21  24
BRANCH  22  26
ATOM     26  C   UNL     1      -2.478   0.146  -4.243  0.00  0.00    +0.182 C 
BRANCH  26  27
ATOM     27  N   UNL     1      -3.917  -0.011  -4.013  0.00  0.00    -0.267 N 
ATOM     28  C   UNL     1      -4.891   0.162  -4.931  0.00  0.00    +0.108 A 
ATOM     29  C   UNL     1      -6.076  -0.077  -4.324  0.00  0.00    +0.041 A 
ATOM     30  C   UNL     1      -5.818  -0.407  -2.990  0.00  0.00    +0.134 A 
ATOM     31  N   UNL     1      -4.523  -0.373  -2.804  0.00  0.00    -0.179 NA
ENDBRANCH  26  27
ENDBRANCH  22  26
ENDBRANCH   6  18
BRANCH   5  32
ATOM     32  C   UNL     1      -2.144   1.826   1.223  0.00  0.00    +0.098 C 
ATOM     33  N   UNL     1      -3.262   2.028   1.206  0.00  0.00    -0.191 NA
ENDBRANCH   5  32
BRANCH   1  34
ATOM     34  O   UNL     1       2.535   0.430   4.123  0.00  0.00    -0.366 OA
ATOM     35  H   UNL     1       2.961   0.404   4.991  0.00  0.00    +0.212 HD
ENDBRANCH   1  34
TORSDOF 7
