REMARK  Name = ZINC39737150
REMARK  9 active torsions:
REMARK  status: ('A' for Active; 'I' for Inactive)
REMARK    1  A    between atoms: C_1  and  C_2
REMARK    2  A    between atoms: C_4  and  C_35
REMARK    3  A    between atoms: C_8  and  C_12
REMARK    4  A    between atoms: C_16  and  N_18
REMARK    5  A    between atoms: C_19  and  C_21
REMARK    6  A    between atoms: C_21  and  N_22
REMARK    7  A    between atoms: N_22  and  C_23
REMARK    8  A    between atoms: N_22  and  C_24
REMARK    9  A    between atoms: C_24  and  C_25
REMARK                            x       y       z     vdW  Elec       q    Type
REMARK                         _______ _______ _______ _____ _____    ______ ____
ROOT
ATOM      1  C   UNL     1      -1.266  -5.073   6.095  0.00  0.00    +0.019 A 
ATOM      2  C   UNL     1      -1.228  -3.797   5.529  0.00  0.00    +0.011 A 
ATOM      3  C   UNL     1      -2.404  -3.140   5.230  0.00  0.00    +0.002 A 
ATOM      4  C   UNL     1      -3.622  -3.741   5.487  0.00  0.00    +0.023 A 
ATOM      5  C   UNL     1      -3.671  -5.011   6.049  0.00  0.00    +0.034 A 
ATOM      6  C   UNL     1      -2.495  -5.681   6.349  0.00  0.00    +0.034 A 
ENDROOT
BRANCH   1  13
ATOM      7  C   UNL     1       5.619  -7.498   5.849  0.00  0.00    +0.024 C 
ATOM      8  C   UNL     1       4.767  -6.798   6.909  0.00  0.00    +0.076 C 
ATOM      9  C   UNL     1       3.551  -7.625   7.260  0.00  0.00    -0.045 C 
ATOM     10  C   UNL     1       2.345  -7.095   7.016  0.00  0.00    +0.071 C 
ATOM     11  C   UNL     1       2.296  -5.741   6.422  0.00  0.00    +0.112 C 
ATOM     12  N   UNL     1       1.149  -5.168   6.160  0.00  0.00    -0.223 NA
ATOM     13  C   UNL     1      -0.006  -5.781   6.417  0.00  0.00    +0.154 C 
ATOM     14  N   UNL     1      -0.081  -6.988   6.946  0.00  0.00    -0.157 NA
ATOM     15  C   UNL     1       0.998  -7.702   7.269  0.00  0.00    +0.272 C 
ATOM     16  O   UNL     1       0.893  -8.816   7.756  0.00  0.00    -0.268 OA
ATOM     17  S   UNL     1       3.999  -5.270   6.233  0.00  0.00    -0.098 S 
ATOM     18  C   UNL     1       3.692  -8.998   7.864  0.00  0.00    +0.041 C 
ENDBRANCH   1  13
BRANCH   5  19
ATOM     19  N   UNL     1      -4.906  -5.615   6.308  0.00  0.00    -0.287 N 
ATOM     20  C   UNL     1      -5.047  -6.434   7.369  0.00  0.00    +0.201 C 
ATOM     21  O   UNL     1      -4.133  -6.572   8.154  0.00  0.00    -0.278 OA
ATOM     22  H   UNL     1      -5.661  -5.445   5.723  0.00  0.00    +0.155 HD
BRANCH  20  23
ATOM     23  C   UNL     1      -6.341  -7.177   7.581  0.00  0.00    +0.019 C 
BRANCH  23  24
ATOM     24  N   UNL     1      -6.242  -7.995   8.797  0.00  0.00    +0.386 N 
ATOM     25  C   UNL     1      -6.101  -7.118   9.967  0.00  0.00    -0.095 C 
ATOM     26  H   UNL     1      -5.436  -8.600   8.731  0.00  0.00    -0.081 HD
BRANCH  24  27
ATOM     27  C   UNL     1      -7.456  -8.810   8.939  0.00  0.00    -0.043 C 
BRANCH  27  28
ATOM     28  C   UNL     1      -7.303  -9.738  10.117  0.00  0.00    -0.060 A 
ATOM     29  C   UNL     1      -6.752 -10.994   9.938  0.00  0.00    +0.005 A 
ATOM     30  C   UNL     1      -6.610 -11.848  11.015  0.00  0.00    +0.050 A 
ATOM     31  C   UNL     1      -7.019 -11.448  12.277  0.00  0.00    +0.166 A 
ATOM     32  C   UNL     1      -7.574 -10.183  12.457  0.00  0.00    +0.166 A 
ATOM     33  C   UNL     1      -7.708  -9.330  11.373  0.00  0.00    +0.051 A 
ATOM     34  O   UNL     1      -7.893 -10.030  13.775  0.00  0.00    -0.453 OA
ATOM     35  C   UNL     1      -7.905 -11.361  14.325  0.00  0.00    +0.466 C 
ATOM     36  O   UNL     1      -6.990 -12.087  13.483  0.00  0.00    -0.453 OA
ENDBRANCH  27  28
ENDBRANCH  24  27
ENDBRANCH  23  24
ENDBRANCH  20  23
ENDBRANCH   5  19
TORSDOF 6
