REMARK  Name = ZINC20240643
REMARK  8 active torsions:
REMARK  status: ('A' for Active; 'I' for Inactive)
REMARK    1  A    between atoms: C_1  and  C_2
REMARK    2  A    between atoms: C_2  and  C_27
REMARK    3  A    between atoms: N_3  and  N_4
REMARK    4  A    between atoms: C_5  and  C_7
REMARK    5  A    between atoms: C_10  and  C_13
REMARK    6  A    between atoms: C_13  and  N_14
REMARK    7  A    between atoms: C_17  and  C_20
REMARK    8  A    between atoms: C_20  and  C_21
REMARK                            x       y       z     vdW  Elec       q    Type
REMARK                         _______ _______ _______ _____ _____    ______ ____
ROOT
ATOM      1  C   UNL     1       0.046   0.087   4.787  0.00  0.00    +0.038 A 
ATOM      2  C   UNL     1       0.021   1.483   4.798  0.00  0.00    +0.013 A 
ATOM      3  C   UNL     1       0.023   2.160   6.000  0.00  0.00    +0.002 A 
ATOM      4  C   UNL     1       0.049   1.458   7.192  0.00  0.00    -0.064 A 
ATOM      5  C   UNL     1       0.074   0.075   7.188  0.00  0.00    +0.002 A 
ATOM      6  C   UNL     1       0.067  -0.615   5.994  0.00  0.00    +0.013 A 
ENDROOT
BRANCH   1   8
ATOM      7  N   UNL     1       0.024   0.035   2.339  0.00  0.00    -0.203 N 
ATOM      8  C   UNL     1       0.044  -0.645   3.503  0.00  0.00    +0.263 C 
ATOM      9  O   UNL     1       0.060  -1.861   3.496  0.00  0.00    -0.268 OA
ATOM     10  H   UNL     1       0.011   1.005   2.345  0.00  0.00    +0.178 HD
BRANCH   7  13
ATOM     11  C   UNL     1      -0.018   1.503   0.010  0.00  0.00    +0.068 C 
ATOM     12  C   UNL     1       0.002  -0.004   0.002  0.00  0.00    +0.063 C 
ATOM     13  N   UNL     1       0.022  -0.659   1.122  0.00  0.00    -0.184 NA
BRANCH  12  14
ATOM     14  C   UNL     1      -0.000  -0.735  -1.279  0.00  0.00    -0.001 A 
ATOM     15  C   UNL     1      -0.015  -0.033  -2.487  0.00  0.00    +0.010 A 
ATOM     16  C   UNL     1      -0.017  -0.722  -3.682  0.00  0.00    +0.002 A 
ATOM     17  C   UNL     1      -0.005  -2.106  -3.686  0.00  0.00    +0.015 A 
ATOM     18  C   UNL     1       0.010  -2.808  -2.494  0.00  0.00    +0.018 A 
ATOM     19  C   UNL     1       0.019  -2.131  -1.290  0.00  0.00    +0.025 A 
ATOM     20 BR   UNL     1       0.026  -4.699  -2.512  0.00  0.00    -0.050 Br
ENDBRANCH  12  14
ENDBRANCH   7  13
ENDBRANCH   1   8
BRANCH   4  21
ATOM     21  C   UNL     1       0.051   2.205   8.502  0.00  0.00    -0.043 C 
BRANCH  21  22
ATOM     22  N   UNL     1      -1.333   2.423   8.943  0.00  0.00    +0.382 N 
ATOM     23  C   UNL     1      -2.018   3.301   7.986  0.00  0.00    -0.078 C 
ATOM     24  C   UNL     1      -3.482   3.466   8.397  0.00  0.00    -0.015 C 
ATOM     25  C   UNL     1      -3.547   4.084   9.797  0.00  0.00    -0.010 C 
ATOM     26  C   UNL     1      -2.767   3.197  10.773  0.00  0.00    -0.015 C 
ATOM     27  C   UNL     1      -1.329   3.042  10.274  0.00  0.00    -0.078 C 
ATOM     28  H   UNL     1      -1.814   1.537   8.987  0.00  0.00    -0.081 HD
BRANCH  25  29
ATOM     29  C   UNL     1      -5.007   4.178  10.247  0.00  0.00    +0.038 C 
BRANCH  29  30
ATOM     30  C   UNL     1      -5.079   4.897  11.570  0.00  0.00    -0.047 A 
ATOM     31  C   UNL     1      -4.997   4.182  12.750  0.00  0.00    +0.003 A 
ATOM     32  C   UNL     1      -5.064   4.842  13.963  0.00  0.00    +0.000 A 
ATOM     33  C   UNL     1      -5.211   6.216  13.996  0.00  0.00    +0.000 A 
ATOM     34  C   UNL     1      -5.292   6.931  12.816  0.00  0.00    +0.000 A 
ATOM     35  C   UNL     1      -5.221   6.272  11.602  0.00  0.00    +0.003 A 
ENDBRANCH  29  30
ENDBRANCH  25  29
ENDBRANCH  21  22
ENDBRANCH   4  21
TORSDOF 7
