REMARK  Name = ZINC16427957
REMARK  11 active torsions:
REMARK  status: ('A' for Active; 'I' for Inactive)
REMARK    1  A    between atoms: C_1  and  C_2
REMARK    2  A    between atoms: C_5  and  N_8
REMARK    3  A    between atoms: N_11  and  C_12
REMARK    4  A    between atoms: N_11  and  C_16
REMARK    5  A    between atoms: C_12  and  C_13
REMARK    6  A    between atoms: C_13  and  O_14
REMARK    7  A    between atoms: O_14  and  C_15
REMARK    8  A    between atoms: C_16  and  C_18
REMARK    9  A    between atoms: C_16  and  C_19
REMARK   10  A    between atoms: N_29  and  C_30
REMARK   11  A    between atoms: C_33  and  C_36
REMARK                            x       y       z     vdW  Elec       q    Type
REMARK                         _______ _______ _______ _____ _____    ______ ____
ROOT
ATOM      1  C   UNL     1       3.925   7.101   0.818  0.00  0.00    +0.138 A 
ATOM      2  N   UNL     1       3.558   8.346   0.778  0.00  0.00    -0.231 NA
ATOM      3  C   UNL     1       3.844   9.205   1.788  0.00  0.00    +0.080 A 
ATOM      4  C   UNL     1       3.449  10.543   1.746  0.00  0.00    +0.048 A 
ATOM      5  C   UNL     1       3.762  11.377   2.798  0.00  0.00    +0.043 A 
ATOM      6  C   UNL     1       4.467  10.901   3.898  0.00  0.00    +0.021 A 
ATOM      7  C   UNL     1       4.864   9.594   3.960  0.00  0.00    +0.017 A 
ATOM      8  C   UNL     1       4.559   8.730   2.910  0.00  0.00    +0.065 A 
ATOM      9  C   UNL     1       4.961   7.317   2.925  0.00  0.00    +0.266 A 
ATOM     10  O   UNL     1       5.579   6.845   3.861  0.00  0.00    -0.267 OA
ATOM     11  N   UNL     1       4.612   6.558   1.859  0.00  0.00    -0.263 N 
ATOM     12 CL   UNL     1       3.272  13.041   2.749  0.00  0.00    -0.083 Cl
ENDROOT
BRANCH  11  13
ATOM     13  C   UNL     1       4.966   5.204   1.826  0.00  0.00    +0.051 A 
ATOM     14  C   UNL     1       4.340   4.300   2.675  0.00  0.00    +0.026 A 
ATOM     15  C   UNL     1       4.689   2.964   2.638  0.00  0.00    +0.005 A 
ATOM     16  C   UNL     1       5.666   2.527   1.762  0.00  0.00    -0.050 A 
ATOM     17  C   UNL     1       6.294   3.425   0.918  0.00  0.00    +0.005 A 
ATOM     18  C   UNL     1       5.947   4.762   0.948  0.00  0.00    +0.026 A 
ATOM     19  C   UNL     1       6.047   1.070   1.727  0.00  0.00    +0.044 C 
ENDBRANCH  11  13
BRANCH   1  20
ATOM     20  C   UNL     1       3.568   6.212  -0.345  0.00  0.00    +0.141 C 
ATOM     21  C   UNL     1       3.145   7.074  -1.536  0.00  0.00    +0.036 C 
BRANCH  20  25
ATOM     22  N   UNL     1       0.287   5.043   0.833  0.00  0.00    -0.269 N 
ATOM     23  C   UNL     1       1.304   5.855   0.482  0.00  0.00    +0.307 C 
ATOM     24  O   UNL     1       1.177   7.061   0.567  0.00  0.00    -0.252 OA
ATOM     25  N   UNL     1       2.463   5.330   0.036  0.00  0.00    -0.273 N 
ATOM     26  H   UNL     1       0.409   4.081   0.824  0.00  0.00    +0.156 HD
BRANCH  22  31
ATOM     27  C   UNL     1      -4.708   7.253   2.364  0.00  0.00    +0.044 C 
ATOM     28  C   UNL     1      -3.381   6.666   1.957  0.00  0.00    -0.050 A 
ATOM     29  C   UNL     1      -3.340   5.479   1.249  0.00  0.00    +0.005 A 
ATOM     30  C   UNL     1      -2.126   4.938   0.875  0.00  0.00    +0.023 A 
ATOM     31  C   UNL     1      -0.945   5.588   1.210  0.00  0.00    +0.035 A 
ATOM     32  C   UNL     1      -0.990   6.781   1.921  0.00  0.00    +0.023 A 
ATOM     33  C   UNL     1      -2.208   7.316   2.292  0.00  0.00    +0.005 A 
ENDBRANCH  22  31
BRANCH  25  34
ATOM     34  C   UNL     1       2.617   3.876  -0.066  0.00  0.00    +0.138 C 
BRANCH  34  35
ATOM     35  C   UNL     1       2.060   3.398  -1.409  0.00  0.00    +0.178 C 
BRANCH  35  36
ATOM     36  O   UNL     1       2.818   3.978  -2.472  0.00  0.00    -0.381 OA
ATOM     37  C   UNL     1       2.310   3.684  -3.775  0.00  0.00    +0.194 C 
ENDBRANCH  35  36
ENDBRANCH  34  35
ENDBRANCH  25  34
ENDBRANCH  20  25
ENDBRANCH   1  20
TORSDOF 7
