REMARK  Name = ZINC10066006
REMARK  8 active torsions:
REMARK  status: ('A' for Active; 'I' for Inactive)
REMARK    1  A    between atoms: C_1  and  N_52
REMARK    2  A    between atoms: C_2  and  N_52
REMARK    3  A    between atoms: C_3  and  C_4
REMARK    4  A    between atoms: C_3  and  N_52
REMARK    5  A    between atoms: C_4  and  N_5
REMARK    6  A    between atoms: C_19  and  C_21
REMARK    7  A    between atoms: C_21  and  O_22
REMARK    8  A    between atoms: O_22  and  C_23
REMARK                            x       y       z     vdW  Elec       q    Type
REMARK                         _______ _______ _______ _____ _____    ______ ____
ROOT
ATOM      1  N   UNL     1      -0.242   1.246   2.466  0.00  0.00    -0.249 N 
ATOM      2  C   UNL     1      -0.890   1.693   3.606  0.00  0.00    +0.168 A 
ATOM      3  N   UNL     1      -1.969   2.434   3.703  0.00  0.00    -0.224 NA
ATOM      4  C   UNL     1      -2.497   2.798   4.893  0.00  0.00    +0.084 A 
ATOM      5  C   UNL     1      -3.645   3.588   5.131  0.00  0.00    +0.078 A 
ATOM      6  C   UNL     1      -4.056   3.873   6.414  0.00  0.00    +0.164 A 
ATOM      7  C   UNL     1      -3.352   3.386   7.516  0.00  0.00    +0.163 A 
ATOM      8  C   UNL     1      -2.223   2.609   7.314  0.00  0.00    +0.066 A 
ATOM      9  C   UNL     1      -1.812   2.327   6.035  0.00  0.00    +0.044 A 
ATOM     10  S   UNL     1      -0.475   1.400   5.320  0.00  0.00    -0.052 S 
ATOM     11  O   UNL     1      -3.758   3.659   8.786  0.00  0.00    -0.485 OA
ATOM     12  C   UNL     1      -4.676   4.746   8.948  0.00  0.00    +0.270 C 
ATOM     13  C   UNL     1      -5.777   4.605   7.888  0.00  0.00    +0.270 C 
ATOM     14  O   UNL     1      -5.165   4.646   6.595  0.00  0.00    -0.485 OA
ATOM     15  C   UNL     1      -0.718   1.572   1.248  0.00  0.00    +0.259 C 
ATOM     16  O   UNL     1      -1.714   2.256   1.150  0.00  0.00    -0.271 OA
ENDROOT
BRANCH   1  17
ATOM     17  C   UNL     1       0.962   0.419   2.584  0.00  0.00    +0.097 C 
BRANCH  17  18
ATOM     18  C   UNL     1       2.198   1.321   2.624  0.00  0.00    -0.060 C 
BRANCH  18  21
ATOM     19  C   UNL     1       3.605  -0.323   1.537  0.00  0.00    -0.097 C 
ATOM     20  C   UNL     1       4.586   1.319   3.022  0.00  0.00    -0.097 C 
ATOM     21  N   UNL     1       3.401   0.474   2.765  0.00  0.00    +0.377 N 
ATOM     22  H   UNL     1       3.269  -0.165   3.558  0.00  0.00    -0.083 HD
ENDBRANCH  18  21
ENDBRANCH  17  18
ENDBRANCH   1  17
BRANCH  15  23
ATOM     23  C   UNL     1      -0.013   1.086   0.008  0.00  0.00    +0.325 C 
BRANCH  23  24
ATOM     24  O   UNL     1      -0.704   1.559  -1.150  0.00  0.00    -0.481 OA
BRANCH  24  25
ATOM     25  C   UNL     1      -0.194   1.207  -2.360  0.00  0.00    +0.140 A 
ATOM     26  C   UNL     1       0.948   0.423  -2.431  0.00  0.00    +0.048 A 
ATOM     27  C   UNL     1       1.465   0.067  -3.661  0.00  0.00    +0.023 A 
ATOM     28  C   UNL     1       0.845   0.491  -4.823  0.00  0.00    +0.043 A 
ATOM     29  C   UNL     1      -0.294   1.274  -4.755  0.00  0.00    +0.043 A 
ATOM     30  C   UNL     1      -0.818   1.628  -3.526  0.00  0.00    +0.084 A 
ATOM     31 CL   UNL     1      -2.252   2.603  -3.441  0.00  0.00    -0.080 Cl
ATOM     32 CL   UNL     1       1.497   0.042  -6.368  0.00  0.00    -0.083 Cl
ENDBRANCH  24  25
ENDBRANCH  23  24
ENDBRANCH  15  23
TORSDOF 6
