REMARK  Name = ZINC53175317
REMARK  7 active torsions:
REMARK  status: ('A' for Active; 'I' for Inactive)
REMARK    1  A    between atoms: C_1  and  O_2
REMARK    2  A    between atoms: O_2  and  C_3
REMARK    3  A    between atoms: C_6  and  C_25
REMARK    4  A    between atoms: C_8  and  C_9
REMARK    5  A    between atoms: C_9  and  N_10
REMARK    6  A    between atoms: N_13  and  C_16
REMARK    7  A    between atoms: C_19  and  N_22
REMARK                            x       y       z     vdW  Elec       q    Type
REMARK                         _______ _______ _______ _____ _____    ______ ____
ROOT
ATOM      1  C   UNL     1      -1.204  -0.628   0.000  0.00  0.00    +0.124 A 
ATOM      2  C   UNL     1      -2.372   0.120   0.004  0.00  0.00    +0.046 A 
ATOM      3  C   UNL     1      -3.598  -0.515  -0.001  0.00  0.00    +0.006 A 
ATOM      4  C   UNL     1      -3.662  -1.897  -0.009  0.00  0.00    -0.055 A 
ATOM      5  C   UNL     1      -2.499  -2.645  -0.012  0.00  0.00    +0.010 A 
ATOM      6  C   UNL     1      -1.270  -2.014  -0.013  0.00  0.00    +0.008 A 
ENDROOT
BRANCH   4   7
ATOM      7  C   UNL     1      -5.001  -2.587  -0.013  0.00  0.00    +0.007 C 
ATOM      8  C   UNL     1      -5.570  -2.601   1.385  0.00  0.00    +0.010 A 
ATOM      9  C   UNL     1      -6.870  -2.339   1.653  0.00  0.00    -0.022 A 
ATOM     10  C   UNL     1      -7.041  -2.440   3.085  0.00  0.00    +0.003 A 
ATOM     11  C   UNL     1      -8.146  -2.275   3.925  0.00  0.00    +0.010 A 
ATOM     12  C   UNL     1      -7.936  -2.452   5.270  0.00  0.00    +0.001 A 
ATOM     13  C   UNL     1      -6.692  -2.778   5.785  0.00  0.00    +0.002 A 
ATOM     14  C   UNL     1      -5.581  -2.948   4.977  0.00  0.00    +0.026 A 
ATOM     15  C   UNL     1      -5.764  -2.775   3.607  0.00  0.00    +0.047 A 
ATOM     16  N   UNL     1      -4.902  -2.864   2.550  0.00  0.00    -0.359 N 
ATOM     17  H   UNL     1      -3.959  -3.082   2.616  0.00  0.00    +0.166 HD
ATOM     18  C   UNL     1      -7.884  -2.014   0.585  0.00  0.00    +0.018 C 
ATOM     19  C   UNL     1      -7.284  -2.415  -0.770  0.00  0.00    -0.076 C 
ATOM     20  N   UNL     1      -5.929  -1.861  -0.894  0.00  0.00    +0.387 N 
ATOM     21  H   UNL     1      -5.943  -0.886  -0.633  0.00  0.00    -0.084 HD
ATOM     22  H   UNL     1      -5.617  -1.944  -1.850  0.00  0.00    -0.084 HD
ENDBRANCH   4   7
BRANCH   1  24
ATOM     23  C   UNL     1      -0.003   1.424   0.018  0.00  0.00    +0.277 C 
ATOM     24  O   UNL     1       0.004  -0.005   0.004  0.00  0.00    -0.495 OA
ENDBRANCH   1  24
BRANCH   6  25
ATOM     25  C   UNL     1      -0.004  -2.830  -0.023  0.00  0.00    +0.123 C 
BRANCH  25  26
ATOM     26  N   UNL     1       0.600  -2.781  -1.361  0.00  0.00    -0.295 NA
ATOM     27  C   UNL     1      -0.259  -3.444  -2.351  0.00  0.00    +0.103 C 
ATOM     28  C   UNL     1       0.313  -3.215  -3.754  0.00  0.00    +0.120 C 
ATOM     29  N   UNL     1       1.719  -3.647  -3.761  0.00  0.00    -0.327 N 
ATOM     30  C   UNL     1       2.612  -3.130  -2.713  0.00  0.00    +0.120 C 
ATOM     31  C   UNL     1       1.949  -3.362  -1.351  0.00  0.00    +0.103 C 
BRANCH  29  32
ATOM     32  C   UNL     1       2.194  -4.526  -4.738  0.00  0.00    +0.030 A 
ATOM     33  C   UNL     1       1.314  -5.093  -5.651  0.00  0.00    +0.025 A 
ATOM     34  C   UNL     1       1.786  -5.961  -6.616  0.00  0.00    +0.034 A 
ATOM     35  C   UNL     1       3.134  -6.266  -6.673  0.00  0.00    +0.126 A 
ATOM     36  C   UNL     1       4.013  -5.704  -5.765  0.00  0.00    +0.034 A 
ATOM     37  C   UNL     1       3.547  -4.831  -4.801  0.00  0.00    +0.025 A 
BRANCH  35  38
ATOM     38  N   UNL     1       3.637  -7.197  -7.707  0.00  0.00    +0.056 N 
ATOM     39  O   UNL     1       2.870  -7.690  -8.501  0.00  0.00    -0.126 OA
ATOM     40  O   UNL     1       4.815  -7.465  -7.759  0.00  0.00    -0.126 OA
ENDBRANCH  35  38
ENDBRANCH  29  32
ENDBRANCH  25  26
ENDBRANCH   6  25
TORSDOF 6
