REMARK  Name = ZINC23243035
REMARK  7 active torsions:
REMARK  status: ('A' for Active; 'I' for Inactive)
REMARK    1  A    between atoms: C_1  and  C_2
REMARK    2  A    between atoms: C_5  and  N_8
REMARK    3  A    between atoms: C_18  and  N_19
REMARK    4  A    between atoms: N_19  and  N_20
REMARK    5  A    between atoms: C_21  and  C_23
REMARK    6  A    between atoms: C_23  and  S_24
REMARK    7  A    between atoms: S_24  and  C_25
REMARK                            x       y       z     vdW  Elec       q    Type
REMARK                         _______ _______ _______ _____ _____    ______ ____
ROOT
ATOM      1  N   UNL     1      -1.234  -1.981   0.804  0.00  0.00    -0.202 N 
ATOM      2  C   UNL     1      -0.087  -2.656   0.984  0.00  0.00    +0.258 C 
ATOM      3  O   UNL     1      -0.122  -3.786   1.432  0.00  0.00    -0.269 OA
ATOM      4  C   UNL     1       1.209  -2.052   0.650  0.00  0.00    +0.046 A 
ATOM      5  C   UNL     1       2.405  -2.747   0.835  0.00  0.00    +0.014 A 
ATOM      6  C   UNL     1       3.599  -2.153   0.491  0.00  0.00    +0.001 A 
ATOM      7  C   UNL     1       3.628  -0.863  -0.020  0.00  0.00    +0.001 A 
ATOM      8  C   UNL     1       2.458  -0.156  -0.205  0.00  0.00    +0.009 A 
ATOM      9  C   UNL     1       1.242  -0.743   0.125  0.00  0.00    +0.000 A 
ATOM     10  C   UNL     1      -0.040  -0.030  -0.053  0.00  0.00    +0.060 C 
ATOM     11  C   UNL     1      -0.075   1.252  -0.556  0.00  0.00    +0.101 C 
ATOM     12  C   UNL     1      -1.275  -0.731   0.315  0.00  0.00    +0.259 C 
ATOM     13  O   UNL     1      -2.349  -0.173   0.176  0.00  0.00    -0.269 OA
ENDROOT
BRANCH   1  18
ATOM     14  C   UNL     1      -6.120  -4.523   2.172  0.00  0.00    +0.044 C 
ATOM     15  C   UNL     1      -4.822  -3.847   1.808  0.00  0.00    -0.050 A 
ATOM     16  C   UNL     1      -4.091  -4.296   0.724  0.00  0.00    +0.005 A 
ATOM     17  C   UNL     1      -2.902  -3.680   0.389  0.00  0.00    +0.024 A 
ATOM     18  C   UNL     1      -2.440  -2.608   1.142  0.00  0.00    +0.045 A 
ATOM     19  C   UNL     1      -3.174  -2.164   2.233  0.00  0.00    +0.024 A 
ATOM     20  C   UNL     1      -4.366  -2.781   2.560  0.00  0.00    +0.005 A 
ENDBRANCH   1  18
BRANCH  11  21
ATOM     21  N   UNL     1      -1.266   1.830  -0.861  0.00  0.00    -0.271 N 
ATOM     22  H   UNL     1      -2.194   1.243  -0.799  0.00  0.00    +0.169 HD
BRANCH  21  23
ATOM     23  N   UNL     1      -1.312   3.174  -1.255  0.00  0.00    -0.236 N 
ATOM     24  C   UNL     1      -2.494   3.747  -1.557  0.00  0.00    +0.239 C 
ATOM     25  O   UNL     1      -3.517   3.100  -1.488  0.00  0.00    -0.273 OA
ATOM     26  H   UNL     1      -0.384   3.761  -1.317  0.00  0.00    +0.173 HD
BRANCH  24  27
ATOM     27  C   UNL     1      -2.543   5.193  -1.981  0.00  0.00    +0.173 C 
BRANCH  27  28
ATOM     28  S   UNL     1      -4.258   5.665  -2.316  0.00  0.00    -0.089 S 
BRANCH  28  29
ATOM     29  C   UNL     1      -4.027   7.350  -2.776  0.00  0.00    +0.136 A 
ATOM     30  N   UNL     1      -4.928   8.237  -3.137  0.00  0.00    -0.233 NA
ATOM     31  C   UNL     1      -4.604   9.506  -3.466  0.00  0.00    +0.079 A 
ATOM     32  C   UNL     1      -5.468  10.551  -3.868  0.00  0.00    +0.029 A 
ATOM     33  C   UNL     1      -4.972  11.793  -4.168  0.00  0.00    +0.002 A 
ATOM     34  C   UNL     1      -3.615  12.070  -4.091  0.00  0.00    +0.001 A 
ATOM     35  C   UNL     1      -2.741  11.071  -3.701  0.00  0.00    +0.017 A 
ATOM     36  C   UNL     1      -3.228   9.825  -3.398  0.00  0.00    +0.040 A 
ATOM     37  S   UNL     1      -2.510   8.290  -2.864  0.00  0.00    -0.061 S 
ENDBRANCH  28  29
ENDBRANCH  27  28
ENDBRANCH  24  27
ENDBRANCH  21  23
ENDBRANCH  11  21
TORSDOF 6
