REMARK  Name = ZINC09725599
REMARK  15 active torsions:
REMARK  status: ('A' for Active; 'I' for Inactive)
REMARK    1  A    between atoms: C_1  and  C_2
REMARK    2  A    between atoms: C_2  and  N_3
REMARK    3  A    between atoms: C_5  and  C_20
REMARK    4  A    between atoms: C_12  and  S_14
REMARK    5  A    between atoms: S_14  and  N_17
REMARK    6  A    between atoms: N_17  and  C_18
REMARK    7  A    between atoms: N_17  and  C_19
REMARK    8  A    between atoms: N_22  and  C_23
REMARK    9  A    between atoms: C_23  and  C_24
REMARK   10  A    between atoms: C_24  and  N_69
REMARK   11  A    between atoms: C_25  and  C_26
REMARK   12  A    between atoms: C_25  and  N_69
REMARK   13  A    between atoms: C_32  and  C_33
REMARK   14  A    between atoms: C_32  and  C_34
REMARK   15  A    between atoms: C_32  and  N_69
REMARK                            x       y       z     vdW  Elec       q    Type
REMARK                         _______ _______ _______ _____ _____    ______ ____
ROOT
ATOM      1  N   UNL     1       0.729   0.559   2.390  0.00  0.00    -0.346 N 
ATOM      2  C   UNL     1       0.160  -0.514   2.954  0.00  0.00    +0.103 A 
ATOM      3  C   UNL     1       0.741  -1.183   4.012  0.00  0.00    +0.100 A 
ATOM      4  C   UNL     1       2.028  -0.702   4.538  0.00  0.00    +0.202 A 
ATOM      5  O   UNL     1       2.581  -1.258   5.470  0.00  0.00    -0.286 OA
ATOM      6  C   UNL     1       2.620   0.483   3.889  0.00  0.00    +0.048 A 
ATOM      7  C   UNL     1       1.935   1.075   2.814  0.00  0.00    +0.053 A 
ATOM      8  C   UNL     1       2.486   2.190   2.188  0.00  0.00    +0.028 A 
ATOM      9  C   UNL     1       3.692   2.696   2.621  0.00  0.00    +0.030 A 
ATOM     10  C   UNL     1       4.370   2.106   3.679  0.00  0.00    +0.106 A 
ATOM     11  C   UNL     1       3.837   1.009   4.320  0.00  0.00    +0.042 A 
ENDROOT
BRANCH   3  12
ATOM     12  C   UNL     1       0.083  -2.359   4.604  0.00  0.00    +0.249 C 
ATOM     13  O   UNL     1       0.604  -2.941   5.537  0.00  0.00    -0.270 OA
ATOM     14  N   UNL     1      -1.096  -2.790   4.114  0.00  0.00    -0.313 N 
ATOM     15  H   UNL     1      -1.511  -2.326   3.370  0.00  0.00    +0.149 HD
BRANCH  14  16
ATOM     16  C   UNL     1      -1.750  -3.961   4.704  0.00  0.00    +0.086 C 
BRANCH  16  17
ATOM     17  C   UNL     1      -3.063  -4.236   3.968  0.00  0.00    -0.059 C 
BRANCH  17  18
ATOM     18  N   UNL     1      -3.629  -5.507   4.466  0.00  0.00    +0.385 N 
ATOM     19  H   UNL     1      -2.885  -6.213   4.499  0.00  0.00    -0.081 HD
BRANCH  18  20
ATOM     20  C   UNL     1      -4.174  -5.318   5.827  0.00  0.00    -0.074 C 
ATOM     21  C   UNL     1      -3.063  -5.607   6.840  0.00  0.00    -0.014 C 
ATOM     22  C   UNL     1      -4.669  -3.882   6.009  0.00  0.00    -0.014 C 
ENDBRANCH  18  20
BRANCH  18  23
ATOM     23  C   UNL     1      -4.696  -5.976   3.556  0.00  0.00    -0.043 C 
BRANCH  23  24
ATOM     24  C   UNL     1      -5.002  -7.418   3.871  0.00  0.00    -0.064 A 
ATOM     25  C   UNL     1      -4.231  -8.424   3.320  0.00  0.00    +0.002 A 
ATOM     26  C   UNL     1      -4.509  -9.746   3.612  0.00  0.00    +0.000 A 
ATOM     27  C   UNL     1      -5.563 -10.062   4.449  0.00  0.00    +0.000 A 
ATOM     28  C   UNL     1      -6.337  -9.056   4.996  0.00  0.00    +0.000 A 
ATOM     29  C   UNL     1      -6.056  -7.734   4.707  0.00  0.00    +0.002 A 
ENDBRANCH  23  24
ENDBRANCH  18  23
ENDBRANCH  17  18
ENDBRANCH  16  17
ENDBRANCH  14  16
ENDBRANCH   3  12
BRANCH  10  30
ATOM     30  S   UNL     1       5.912   2.771   4.213  0.00  0.00    +0.060 S 
ATOM     31  O   UNL     1       6.607   1.714   4.860  0.00  0.00    -0.153 OA
ATOM     32  O   UNL     1       6.456   3.475   3.105  0.00  0.00    -0.153 OA
BRANCH  30  33
ATOM     33  N   UNL     1       5.580   3.902   5.376  0.00  0.00    -0.183 NA
ATOM     34  C   UNL     1       5.511   3.505   6.785  0.00  0.00    +0.131 C 
ATOM     35  C   UNL     1       5.356   5.299   4.997  0.00  0.00    +0.131 C 
ENDBRANCH  30  33
ENDBRANCH  10  30
BRANCH   1  37
ATOM     36  C   UNL     1       0.595   0.665  -0.050  0.00  0.00    +0.027 C 
ATOM     37  C   UNL     1       0.044   1.209   1.270  0.00  0.00    +0.118 C 
ENDBRANCH   1  37
TORSDOF 10
