REMARK  Name = ZINC07495793
REMARK  6 active torsions:
REMARK  status: ('A' for Active; 'I' for Inactive)
REMARK    1  A    between atoms: C_1  and  C_2
REMARK    2  A    between atoms: C_11  and  C_13
REMARK    3  A    between atoms: N_20  and  C_21
REMARK    4  A    between atoms: C_24  and  C_27
REMARK    5  A    between atoms: C_27  and  C_28
REMARK    6  A    between atoms: C_27  and  C_29
REMARK                            x       y       z     vdW  Elec       q    Type
REMARK                         _______ _______ _______ _____ _____    ______ ____
ROOT
ATOM      1  C   UNL     1       6.292   0.456 -10.043  0.00  0.00    +0.066 C 
ATOM      2  C   UNL     1       6.213   0.314  -8.545  0.00  0.00    +0.047 A 
ATOM      3  C   UNL     1       6.917   1.164  -7.744  0.00  0.00    +0.093 A 
ATOM      4  C   UNL     1       6.835   1.010  -6.346  0.00  0.00    +0.257 A 
ATOM      5  O   UNL     1       7.446   1.756  -5.599  0.00  0.00    -0.267 OA
ATOM      6  N   UNL     1       6.067   0.021  -5.855  0.00  0.00    -0.255 N 
ATOM      7  C   UNL     1       5.370  -0.787  -6.707  0.00  0.00    +0.207 A 
ATOM      8  N   UNL     1       5.454  -0.642  -8.008  0.00  0.00    -0.221 NA
ATOM      9  N   UNL     1       4.563  -1.756  -6.134  0.00  0.00    -0.259 N 
ATOM     10  C   UNL     1       3.932  -1.398  -4.947  0.00  0.00    +0.166 C 
ATOM     11  C   UNL     1       5.957  -0.222  -4.413  0.00  0.00    +0.220 C 
ATOM     12  N   UNL     1       2.657  -1.832  -4.666  0.00  0.00    -0.289 N 
ATOM     13  H   UNL     1       4.442  -2.631  -6.535  0.00  0.00    +0.158 HD
ATOM     14  H   UNL     1       2.215  -2.457  -5.262  0.00  0.00    +0.155 HD
ATOM     15  N   UNL     1       4.554  -0.624  -4.044  0.00  0.00    -0.336 N 
ATOM     16  H   UNL     1       4.106  -0.328  -3.168  0.00  0.00    +0.164 HD
ENDROOT
BRANCH  11  17
ATOM     17  C   UNL     1       6.922  -1.308  -4.010  0.00  0.00    -0.004 A 
ATOM     18  C   UNL     1       8.105  -1.473  -4.705  0.00  0.00    +0.010 A 
ATOM     19  C   UNL     1       8.993  -2.465  -4.333  0.00  0.00    +0.039 A 
ATOM     20  C   UNL     1       8.691  -3.300  -3.271  0.00  0.00    +0.123 A 
ATOM     21  C   UNL     1       7.502  -3.137  -2.579  0.00  0.00    +0.039 A 
ATOM     22  C   UNL     1       6.619  -2.141  -2.949  0.00  0.00    +0.010 A 
ATOM     23  F   UNL     1       9.555  -4.274  -2.910  0.00  0.00    -0.205 F 
ENDBRANCH  11  17
BRANCH  12  24
ATOM     24  C   UNL     1       1.998  -1.373  -3.521  0.00  0.00    +0.033 A 
ATOM     25  C   UNL     1       2.232  -0.086  -3.053  0.00  0.00    +0.023 A 
ATOM     26  C   UNL     1       1.580   0.365  -1.922  0.00  0.00    +0.006 A 
ATOM     27  C   UNL     1       0.695  -0.464  -1.255  0.00  0.00    -0.045 A 
ATOM     28  C   UNL     1       0.464  -1.747  -1.716  0.00  0.00    +0.006 A 
ATOM     29  C   UNL     1       1.108  -2.202  -2.850  0.00  0.00    +0.023 A 
BRANCH  27  30
ATOM     30  C   UNL     1      -0.014   0.032  -0.021  0.00  0.00    +0.013 C 
ATOM     31  C   UNL     1       0.344  -0.864   1.166  0.00  0.00    +0.012 C 
ATOM     32  C   UNL     1      -1.526  -0.007  -0.252  0.00  0.00    +0.012 C 
ENDBRANCH  27  30
ENDBRANCH  12  24
TORSDOF 3
