REMARK  Name = ZINC58399226
REMARK  5 active torsions:
REMARK  status: ('A' for Active; 'I' for Inactive)
REMARK    1  A    between atoms: C_1  and  C_2
REMARK    2  A    between atoms: C_6  and  C_8
REMARK    3  A    between atoms: C_8  and  C_14
REMARK    4  A    between atoms: C_14  and  N_15
REMARK    5  A    between atoms: C_16  and  C_18
REMARK                            x       y       z     vdW  Elec       q    Type
REMARK                         _______ _______ _______ _____ _____    ______ ____
ROOT
ATOM      1  N   UNL     1      -1.083  -0.952   3.538  0.00  0.00    -0.310 N 
ATOM      2  C   UNL     1      -1.982  -0.343   4.336  0.00  0.00    +0.249 C 
ATOM      3  O   UNL     1      -2.880  -0.988   4.842  0.00  0.00    -0.270 OA
ATOM      4  H   UNL     1      -0.411  -0.426   3.075  0.00  0.00    +0.149 HD
ENDROOT
BRANCH   2   5
ATOM      5  C   UNL     1      -1.876   1.101   4.597  0.00  0.00    +0.102 A 
ATOM      6  C   UNL     1      -2.718   1.725   5.508  0.00  0.00    +0.031 A 
ATOM      7  C   UNL     1      -2.578   3.112   5.726  0.00  0.00    +0.037 A 
ATOM      8  C   UNL     1      -1.614   3.841   5.048  0.00  0.00    +0.030 A 
ATOM      9  N   UNL     1      -0.800   3.237   4.159  0.00  0.00    -0.325 N 
ATOM     10  H   UNL     1      -0.137   3.768   3.691  0.00  0.00    +0.169 HD
ATOM     11  C   UNL     1      -0.876   1.920   3.906  0.00  0.00    +0.261 A 
ATOM     12  O   UNL     1      -0.118   1.408   3.101  0.00  0.00    -0.267 OA
ATOM     13  C   UNL     1      -1.437   5.319   5.284  0.00  0.00    +0.054 C 
ATOM     14  C   UNL     1      -2.712   5.950   5.834  0.00  0.00    +0.014 C 
ATOM     15  C   UNL     1      -3.146   5.196   7.098  0.00  0.00    +0.080 C 
ATOM     16  C   UNL     1      -3.478   3.778   6.683  0.00  0.00    +0.165 C 
ATOM     17  O   UNL     1      -4.454   3.209   7.125  0.00  0.00    -0.292 OA
ENDBRANCH   2   5
BRANCH   1  18
ATOM     18  C   UNL     1      -1.119  -2.406   3.368  0.00  0.00    +0.116 C 
BRANCH  18  19
ATOM     19  C   UNL     1       0.073  -2.851   2.518  0.00  0.00    +0.011 C 
ATOM     20  C   UNL     1       1.373  -2.555   3.269  0.00  0.00    +0.013 C 
ATOM     21  C   UNL     1       1.380  -3.317   4.596  0.00  0.00    +0.001 C 
ATOM     22  C   UNL     1       1.279  -4.819   4.322  0.00  0.00    +0.000 C 
ATOM     23  C   UNL     1      -0.021  -5.114   3.572  0.00  0.00    +0.001 C 
ATOM     24  C   UNL     1      -0.028  -4.353   2.245  0.00  0.00    +0.013 C 
BRANCH  19  30
ATOM     25  C   UNL     1       2.202   0.423  -0.611  0.00  0.00    +0.044 C 
ATOM     26  C   UNL     1       1.084  -0.534  -0.286  0.00  0.00    -0.050 A 
ATOM     27  C   UNL     1       0.052  -0.723  -1.186  0.00  0.00    +0.003 A 
ATOM     28  C   UNL     1      -0.973  -1.601  -0.887  0.00  0.00    +0.001 A 
ATOM     29  C   UNL     1      -0.967  -2.289   0.312  0.00  0.00    +0.004 A 
ATOM     30  C   UNL     1       0.066  -2.101   1.211  0.00  0.00    -0.039 A 
ATOM     31  C   UNL     1       1.094  -1.226   0.911  0.00  0.00    +0.007 A 
ENDBRANCH  19  30
ENDBRANCH  18  19
ENDBRANCH   1  18
TORSDOF 4
