REMARK  Name = ZINC13642129
REMARK  10 active torsions:
REMARK  status: ('A' for Active; 'I' for Inactive)
REMARK    1  A    between atoms: C_1  and  C_2
REMARK    2  A    between atoms: C_2  and  N_3
REMARK    3  A    between atoms: C_6  and  C_14
REMARK    4  A    between atoms: C_7  and  C_9
REMARK    5  A    between atoms: C_9  and  O_11
REMARK    6  A    between atoms: O_11  and  C_12
REMARK    7  A    between atoms: C_12  and  C_13
REMARK    8  A    between atoms: C_15  and  C_17
REMARK    9  A    between atoms: C_19  and  C_27
REMARK   10  A    between atoms: C_23  and  C_26
REMARK                            x       y       z     vdW  Elec       q    Type
REMARK                         _______ _______ _______ _____ _____    ______ ____
ROOT
ATOM      1  N   UNL     1      -1.227   1.818  -0.002  0.00  0.00    -0.247 N 
ATOM      2  C   UNL     1      -2.399   1.093   0.104  0.00  0.00    +0.168 A 
ATOM      3  N   UNL     1      -2.557  -0.218   0.202  0.00  0.00    -0.229 NA
ATOM      4  C   UNL     1      -3.741  -0.760   0.301  0.00  0.00    +0.062 A 
ATOM      5  C   UNL     1      -4.843   0.086   0.287  0.00  0.00    +0.120 A 
ATOM      6  S   UNL     1      -4.036   1.673   0.134  0.00  0.00    -0.045 S 
ATOM      7  C   UNL     1      -3.908  -2.253   0.419  0.00  0.00    +0.067 C 
ATOM      8  C   UNL     1      -0.039   1.181  -0.008  0.00  0.00    +0.253 C 
ATOM      9  O   UNL     1      -0.001  -0.033  -0.021  0.00  0.00    -0.270 OA
ENDROOT
BRANCH   8  10
ATOM     10  C   UNL     1       1.218   1.961  -0.006  0.00  0.00    +0.053 A 
ATOM     11  C   UNL     1       1.474   2.913   0.982  0.00  0.00    +0.037 A 
ATOM     12  C   UNL     1       2.664   3.621   0.946  0.00  0.00    +0.049 A 
ATOM     13  N   UNL     1       3.561   3.417   0.004  0.00  0.00    -0.215 NA
ATOM     14  C   UNL     1       3.378   2.528  -0.960  0.00  0.00    +0.259 A 
ATOM     15  C   UNL     1       2.200   1.763  -0.996  0.00  0.00    +0.076 A 
ATOM     16  C   UNL     1       2.301   0.893  -2.167  0.00  0.00    +0.091 A 
ATOM     17  N   UNL     1       3.442   1.141  -2.735  0.00  0.00    -0.080 NA
ATOM     18  O   UNL     1       4.126   2.144  -2.013  0.00  0.00    -0.334 OA
ATOM     19  C   UNL     1       1.274  -0.110  -2.626  0.00  0.00    +0.070 C 
BRANCH  12  20
ATOM     20  C   UNL     1       2.940   4.649   2.013  0.00  0.00    +0.038 C 
ATOM     21  C   UNL     1       1.755   5.132   2.851  0.00  0.00    +0.010 C 
ATOM     22  C   UNL     1       2.376   6.056   1.800  0.00  0.00    +0.010 C 
ENDBRANCH  12  20
ENDBRANCH   8  10
BRANCH   1  24
ATOM     23  C   UNL     1      -1.229   3.685  -1.582  0.00  0.00    +0.025 C 
ATOM     24  C   UNL     1      -1.276   3.279  -0.108  0.00  0.00    +0.112 C 
ENDBRANCH   1  24
BRANCH   5  25
ATOM     25  C   UNL     1      -6.266  -0.233   0.374  0.00  0.00    +0.348 C 
ATOM     26  O   UNL     1      -6.625  -1.391   0.475  0.00  0.00    -0.244 OA
BRANCH  25  27
ATOM     27  O   UNL     1      -7.183   0.756   0.341  0.00  0.00    -0.461 OA
BRANCH  27  28
ATOM     28  C   UNL     1      -8.556   0.372   0.430  0.00  0.00    +0.229 C 
ATOM     29  C   UNL     1      -9.440   1.620   0.376  0.00  0.00    +0.048 C 
ENDBRANCH  27  28
ENDBRANCH  25  27
ENDBRANCH   5  25
TORSDOF 6
