REMARK  Name = ZINC66244780
REMARK  10 active torsions:
REMARK  status: ('A' for Active; 'I' for Inactive)
REMARK    1  A    between atoms: C_1  and  C_2
REMARK    2  A    between atoms: C_2  and  N_3
REMARK    3  A    between atoms: N_3  and  C_4
REMARK    4  A    between atoms: N_3  and  C_6
REMARK    5  A    between atoms: C_4  and  C_5
REMARK    6  A    between atoms: C_6  and  C_8
REMARK    7  A    between atoms: C_6  and  C_16
REMARK    8  A    between atoms: C_8  and  N_9
REMARK    9  A    between atoms: N_11  and  C_12
REMARK   10  A    between atoms: C_19  and  C_22
REMARK                            x       y       z     vdW  Elec       q    Type
REMARK                         _______ _______ _______ _____ _____    ______ ____
ROOT
ATOM      1  C   UNL     1       2.214  -0.013   1.226  0.00  0.00    -0.018 C 
ENDROOT
BRANCH   1   2
ATOM      2  C   UNL     1       1.718   1.351   1.631  0.00  0.00    -0.059 A 
ATOM      3  C   UNL     1       0.725   1.470   2.585  0.00  0.00    +0.002 A 
ATOM      4  C   UNL     1       0.270   2.722   2.957  0.00  0.00    +0.012 A 
ATOM      5  C   UNL     1       0.808   3.854   2.374  0.00  0.00    +0.055 A 
ATOM      6  C   UNL     1       1.802   3.735   1.421  0.00  0.00    +0.012 A 
ATOM      7  C   UNL     1       2.260   2.484   1.052  0.00  0.00    +0.002 A 
BRANCH   5   8
ATOM      8  C   UNL     1       0.311   5.218   2.779  0.00  0.00    +0.417 C 
ATOM      9  F   UNL     1       1.073   5.692   3.852  0.00  0.00    -0.166 F 
ATOM     10  F   UNL     1       0.430   6.097   1.697  0.00  0.00    -0.166 F 
ATOM     11  F   UNL     1      -1.031   5.130   3.163  0.00  0.00    -0.166 F 
ENDBRANCH   5   8
ENDBRANCH   1   2
BRANCH   1  12
ATOM     12  N   UNL     1       2.491  -0.025  -0.217  0.00  0.00    +0.385 N 
ATOM     13  H   UNL     1       2.383  -0.963  -0.573  0.00  0.00    -0.081 HD
BRANCH  12  15
ATOM     14  C   UNL     1       0.115   0.441  -0.589  0.00  0.00    -0.017 C 
ATOM     15  C   UNL     1       1.550   0.871  -0.903  0.00  0.00    -0.081 C 
ENDBRANCH  12  15
BRANCH  12  16
ATOM     16  C   UNL     1       3.866   0.434  -0.456  0.00  0.00    -0.081 C 
ATOM     17  C   UNL     1       4.851  -0.610   0.073  0.00  0.00    -0.017 C 
ENDBRANCH  12  16
ENDBRANCH   1  12
BRANCH   1  18
ATOM     18  C   UNL     1       1.147  -1.060   1.549  0.00  0.00    +0.105 C 
BRANCH  18  19
ATOM     19  N   UNL     1       1.579  -2.368   1.048  0.00  0.00    -0.359 N 
ATOM     20  C   UNL     1       0.729  -3.446   1.119  0.00  0.00    +0.169 C 
ATOM     21  N   UNL     1       1.113  -4.609   0.674  0.00  0.00    -0.355 N 
ATOM     22  N   UNL     1      -0.526  -3.297   1.660  0.00  0.00    -0.371 N 
ATOM     23  H   UNL     1       2.465  -2.473   0.667  0.00  0.00    +0.162 HD
ATOM     24  H   UNL     1      -0.840  -2.418   1.923  0.00  0.00    +0.159 HD
ATOM     25  H   UNL     1      -1.098  -4.072   1.778  0.00  0.00    +0.159 HD
ATOM     26  H   UNL     1       2.023  -4.732   0.362  0.00  0.00    +0.163 HD
BRANCH  21  27
ATOM     27  C   UNL     1       0.171  -5.730   0.645  0.00  0.00    +0.082 C 
ATOM     28  C   UNL     1       0.461  -6.872  -0.330  0.00  0.00    +0.026 C 
ATOM     29  C   UNL     1      -0.687  -5.900  -0.611  0.00  0.00    +0.026 C 
ENDBRANCH  21  27
ENDBRANCH  18  19
ENDBRANCH   1  18
TORSDOF 8
