REMARK  Name = ZINC34829782
REMARK  8 active torsions:
REMARK  status: ('A' for Active; 'I' for Inactive)
REMARK    1  A    between atoms: C_1  and  C_2
REMARK    2  A    between atoms: C_5  and  C_8
REMARK    3  A    between atoms: N_17  and  C_18
REMARK    4  A    between atoms: C_18  and  C_19
REMARK    5  A    between atoms: C_25  and  C_28
REMARK    6  A    between atoms: C_29  and  C_31
REMARK    7  A    between atoms: C_36  and  O_37
REMARK    8  A    between atoms: O_37  and  C_38
REMARK                            x       y       z     vdW  Elec       q    Type
REMARK                         _______ _______ _______ _____ _____    ______ ____
ROOT
ATOM      1  C   UNL     1       3.232  -4.804   1.855  0.00  0.00    +0.199 C 
ATOM      2  O   UNL     1       2.781  -5.391   2.815  0.00  0.00    -0.278 OA
ATOM      3  N   UNL     1       4.544  -4.496   1.808  0.00  0.00    -0.300 N 
ATOM      4  C   UNL     1       5.103  -3.780   0.653  0.00  0.00    +0.126 C 
ATOM      5  C   UNL     1       6.266  -4.601   0.084  0.00  0.00    +0.127 C 
ATOM      6  N   UNL     1       7.162  -4.974   1.188  0.00  0.00    -0.292 N 
ATOM      7  C   UNL     1       6.603  -5.691   2.343  0.00  0.00    +0.091 C 
ATOM      8  C   UNL     1       5.438  -4.864   2.915  0.00  0.00    +0.130 C 
ATOM      9  C   UNL     1       6.097  -7.065   1.899  0.00  0.00    +0.029 C 
ATOM     10  C   UNL     1       8.473  -4.666   1.141  0.00  0.00    +0.250 C 
ATOM     11  O   UNL     1       9.184  -4.885   2.103  0.00  0.00    -0.270 OA
ENDROOT
BRANCH  10  12
ATOM     12  C   UNL     1       9.046  -4.062  -0.076  0.00  0.00    +0.078 A 
ATOM     13  C   UNL     1       8.879  -4.685  -1.316  0.00  0.00    +0.017 A 
ATOM     14  C   UNL     1       9.416  -4.115  -2.449  0.00  0.00    +0.001 A 
ATOM     15  C   UNL     1      10.123  -2.926  -2.367  0.00  0.00    +0.004 A 
ATOM     16  C   UNL     1      10.296  -2.300  -1.149  0.00  0.00    +0.046 A 
ATOM     17  C   UNL     1       9.757  -2.857   0.002  0.00  0.00    +0.132 A 
BRANCH  17  18
ATOM     18  O   UNL     1       9.922  -2.240   1.199  0.00  0.00    -0.494 OA
ATOM     19  C   UNL     1      10.658  -1.015   1.201  0.00  0.00    +0.277 C 
ENDBRANCH  17  18
ENDBRANCH  10  12
BRANCH   1  20
ATOM     20  C   UNL     1       2.327  -4.420   0.713  0.00  0.00    +0.020 C 
BRANCH  20  29
ATOM     21  C   UNL     1       0.060  -4.385  -0.054  0.00  0.00    -0.005 C 
ATOM     22  C   UNL     1      -1.340  -4.937   0.198  0.00  0.00    -0.047 A 
ATOM     23  C   UNL     1      -2.501  -4.398  -0.350  0.00  0.00    +0.010 A 
ATOM     24  C   UNL     1      -3.703  -4.953  -0.069  0.00  0.00    +0.045 A 
ATOM     25  S   UNL     1      -3.244  -6.300   1.013  0.00  0.00    -0.101 S 
ATOM     26  C   UNL     1      -1.496  -6.023   1.007  0.00  0.00    -0.010 A 
ATOM     27  C   UNL     1      -0.408  -6.774   1.702  0.00  0.00    +0.024 C 
ATOM     28  C   UNL     1       0.929  -6.332   1.084  0.00  0.00    -0.072 C 
ATOM     29  N   UNL     1       0.958  -4.865   1.003  0.00  0.00    +0.393 N 
ATOM     30  H   UNL     1       0.664  -4.480   1.888  0.00  0.00    -0.080 HD
BRANCH  21  35
ATOM     31  C   UNL     1      -0.098   1.392   0.013  0.00  0.00    +0.044 C 
ATOM     32  C   UNL     1      -0.057  -0.115  -0.004  0.00  0.00    -0.050 A 
ATOM     33  C   UNL     1      -0.039  -0.792  -1.210  0.00  0.00    +0.003 A 
ATOM     34  C   UNL     1      -0.001  -2.173  -1.226  0.00  0.00    +0.002 A 
ATOM     35  C   UNL     1       0.019  -2.878  -0.037  0.00  0.00    -0.057 A 
ATOM     36  C   UNL     1       0.002  -2.201   1.169  0.00  0.00    +0.002 A 
ATOM     37  C   UNL     1      -0.032  -0.819   1.185  0.00  0.00    +0.003 A 
ENDBRANCH  21  35
ENDBRANCH  20  29
ENDBRANCH   1  20
TORSDOF 5
