REMARK  Name = ZINC12038094
REMARK  8 active torsions:
REMARK  status: ('A' for Active; 'I' for Inactive)
REMARK    1  A    between atoms: C_5  and  C_7
REMARK    2  A    between atoms: C_7  and  C_8
REMARK    3  A    between atoms: C_8  and  C_19
REMARK    4  A    between atoms: N_11  and  C_15
REMARK    5  A    between atoms: C_15  and  C_16
REMARK    6  A    between atoms: C_24  and  C_25
REMARK    7  A    between atoms: C_24  and  N_63
REMARK    8  A    between atoms: C_26  and  C_27
REMARK                            x       y       z     vdW  Elec       q    Type
REMARK                         _______ _______ _______ _____ _____    ______ ____
ROOT
ATOM      1  C   UNL     1       0.640   3.376   0.014  0.00  0.00    +0.119 C 
ATOM      2  C   UNL     1      -0.871   3.261   0.028  0.00  0.00    +0.247 C 
ATOM      3  O   UNL     1      -1.675   4.169   0.040  0.00  0.00    -0.273 OA
ATOM      4  N   UNL     1      -1.137   1.940   0.018  0.00  0.00    -0.224 N 
ATOM      5  C   UNL     1      -0.014   1.211   0.009  0.00  0.00    +0.309 C 
ATOM      6  O   UNL     1       0.002  -0.004   0.002  0.00  0.00    -0.252 OA
ATOM      7  N   UNL     1       1.094   1.974   0.002  0.00  0.00    -0.284 N 
ATOM      8  H   UNL     1       2.012   1.662  -0.008  0.00  0.00    +0.151 HD
ENDROOT
BRANCH   1   9
ATOM      9  C   UNL     1       1.113   4.105  -1.245  0.00  0.00    +0.018 C 
ATOM     10  C   UNL     1       0.715   5.581  -1.161  0.00  0.00    -0.013 C 
ATOM     11  C   UNL     1       1.136   6.292  -2.449  0.00  0.00    -0.078 C 
ATOM     12  C   UNL     1       0.886   4.249  -3.727  0.00  0.00    -0.078 C 
ATOM     13  C   UNL     1       0.457   3.477  -2.477  0.00  0.00    -0.013 C 
ATOM     14  N   UNL     1       0.452   5.656  -3.595  0.00  0.00    +0.382 N 
ATOM     15  H   UNL     1      -0.561   5.678  -3.431  0.00  0.00    -0.081 HD
BRANCH  14  16
ATOM     16  C   UNL     1       0.754   6.396  -4.837  0.00  0.00    -0.051 C 
BRANCH  16  17
ATOM     17  C   UNL     1       0.560   7.870  -4.593  0.00  0.00    -0.042 C 
ATOM     18  C   UNL     1       1.541   8.725  -4.868  0.00  0.00    +0.040 C 
BRANCH  18  19
ATOM     19  C   UNL     1       1.352  10.164  -4.629  0.00  0.00    +0.127 A 
ATOM     20  C   UNL     1       2.270  11.141  -4.866  0.00  0.00    +0.049 A 
ATOM     21  C   UNL     1       1.669  12.360  -4.496  0.00  0.00    +0.042 A 
ATOM     22  C   UNL     1       0.428  12.072  -4.057  0.00  0.00    +0.195 A 
ATOM     23  O   UNL     1       0.237  10.745  -4.144  0.00  0.00    -0.464 OA
ENDBRANCH  18  19
ENDBRANCH  16  17
ENDBRANCH  14  16
ENDBRANCH   1   9
BRANCH   1  24
ATOM     24  C   UNL     1       1.140   4.093   1.270  0.00  0.00    +0.072 C 
BRANCH  24  29
ATOM     25  C   UNL     1      -0.823   2.945   4.283  0.00  0.00    +0.000 A 
ATOM     26  C   UNL     1      -0.047   1.894   4.735  0.00  0.00    +0.001 A 
ATOM     27  C   UNL     1       1.113   1.554   4.066  0.00  0.00    +0.020 A 
ATOM     28  C   UNL     1       1.498   2.265   2.944  0.00  0.00    +0.044 A 
ATOM     29  C   UNL     1       0.721   3.317   2.492  0.00  0.00    -0.027 A 
ATOM     30  C   UNL     1      -0.436   3.659   3.165  0.00  0.00    +0.005 A 
ATOM     31 CL   UNL     1       2.956   1.839   2.103  0.00  0.00    -0.083 Cl
ENDBRANCH  24  29
ENDBRANCH   1  24
BRANCH   4  32
ATOM     32  C   UNL     1      -2.487   1.371   0.020  0.00  0.00    +0.121 C 
BRANCH  32  33
ATOM     33  C   UNL     1      -2.951   1.165   1.463  0.00  0.00    +0.007 C 
ATOM     34  C   UNL     1      -3.219  -0.270   1.921  0.00  0.00    +0.005 C 
ATOM     35  C   UNL     1      -4.388   0.687   1.681  0.00  0.00    +0.005 C 
ENDBRANCH  32  33
ENDBRANCH   4  32
TORSDOF 8
