REMARK  Name = ZINC30883506
REMARK  12 active torsions:
REMARK  status: ('A' for Active; 'I' for Inactive)
REMARK    1  A    between atoms: C_1  and  C_2
REMARK    2  A    between atoms: C_4  and  C_27
REMARK    3  A    between atoms: C_6  and  C_24
REMARK    4  A    between atoms: C_9  and  C_11
REMARK    5  A    between atoms: C_11  and  C_12
REMARK    6  A    between atoms: C_15  and  C_17
REMARK    7  A    between atoms: C_24  and  C_25
REMARK    8  A    between atoms: C_24  and  C_26
REMARK    9  A    between atoms: C_27  and  N_28
REMARK   10  A    between atoms: N_28  and  C_29
REMARK   11  A    between atoms: N_28  and  C_30
REMARK   12  A    between atoms: C_30  and  C_31
REMARK                            x       y       z     vdW  Elec       q    Type
REMARK                         _______ _______ _______ _____ _____    ______ ____
ROOT
ATOM      1  C   UNL     1      -4.227   0.323   0.331  0.00  0.00    +0.039 C 
ATOM      2  C   UNL     1      -2.797   0.774   0.178  0.00  0.00    -0.073 C 
ATOM      3  C   UNL     1      -2.143   1.094   1.248  0.00  0.00    -0.026 C 
ATOM      4  C   UNL     1      -0.715   1.570   1.256  0.00  0.00    -0.002 C 
ATOM      5  C   UNL     1      -0.043   1.222  -0.074  0.00  0.00    -0.003 C 
ATOM      6  C   UNL     1      -0.954   1.684  -1.219  0.00  0.00    +0.012 C 
ATOM      7  C   UNL     1      -2.220   0.825  -1.207  0.00  0.00    +0.024 C 
ENDROOT
BRANCH   5   8
ATOM      8  C   UNL     1       1.307   1.936  -0.171  0.00  0.00    -0.014 C 
ATOM      9  C   UNL     1       2.028   1.493  -1.445  0.00  0.00    +0.007 C 
ATOM     10  C   UNL     1       1.082   3.449  -0.212  0.00  0.00    +0.007 C 
ENDBRANCH   5   8
BRANCH   7  11
ATOM     11  C   UNL     1      -1.874  -0.594  -1.664  0.00  0.00    +0.105 C 
BRANCH  11  12
ATOM     12  C   UNL     1      -3.138  -1.409  -1.771  0.00  0.00    +0.218 A 
ATOM     13  N   UNL     1      -3.890  -1.528  -2.830  0.00  0.00    -0.112 NA
ATOM     14  N   UNL     1      -4.885  -2.298  -2.565  0.00  0.00    -0.107 NA
ATOM     15  C   UNL     1      -4.802  -2.701  -1.319  0.00  0.00    +0.251 A 
ATOM     16  O   UNL     1      -3.690  -2.149  -0.794  0.00  0.00    -0.420 OA
BRANCH  15  17
ATOM     17  C   UNL     1      -5.749  -3.597  -0.622  0.00  0.00    +0.074 A 
ATOM     18  C   UNL     1      -5.530  -3.947   0.711  0.00  0.00    +0.016 A 
ATOM     19  C   UNL     1      -6.420  -4.780   1.357  0.00  0.00    +0.001 A 
ATOM     20  C   UNL     1      -7.522  -5.278   0.684  0.00  0.00    +0.003 A 
ATOM     21  C   UNL     1      -7.744  -4.940  -0.638  0.00  0.00    +0.039 A 
ATOM     22  C   UNL     1      -6.863  -4.102  -1.297  0.00  0.00    +0.136 A 
ATOM     23  F   UNL     1      -7.080  -3.773  -2.589  0.00  0.00    -0.205 F 
ENDBRANCH  15  17
ENDBRANCH  11  12
ENDBRANCH   7  11
BRANCH   4  24
ATOM     24  C   UNL     1       0.045   0.897   2.400  0.00  0.00    -0.071 C 
BRANCH  24  25
ATOM     25  N   UNL     1      -0.552   1.290   3.683  0.00  0.00    +0.381 N 
ATOM     26  C   UNL     1      -0.363   2.725   3.934  0.00  0.00    -0.096 C 
ATOM     27  H   UNL     1      -1.634   1.097   3.626  0.00  0.00    -0.082 HD
BRANCH  25  28
ATOM     28  C   UNL     1      -0.008   0.486   4.785  0.00  0.00    -0.042 C 
BRANCH  28  29
ATOM     29  C   UNL     1      -0.810   0.740   6.036  0.00  0.00    -0.046 A 
ATOM     30  C   UNL     1      -1.920  -0.038   6.328  0.00  0.00    +0.005 A 
ATOM     31  C   UNL     1      -2.627   0.231   7.489  0.00  0.00    +0.020 A 
ATOM     32  C   UNL     1      -2.206   1.259   8.312  0.00  0.00    +0.111 A 
ATOM     33  N   UNL     1      -1.146   1.979   8.002  0.00  0.00    -0.263 NA
ATOM     34  C   UNL     1      -0.445   1.747   6.909  0.00  0.00    +0.112 A 
ENDBRANCH  28  29
ENDBRANCH  25  28
ENDBRANCH  24  25
ENDBRANCH   4  24
TORSDOF 8
