REMARK  Name = ZINC20410930
REMARK  7 active torsions:
REMARK  status: ('A' for Active; 'I' for Inactive)
REMARK    1  A    between atoms: C_1  and  C_2
REMARK    2  A    between atoms: C_18  and  C_20
REMARK    3  A    between atoms: C_20  and  N_21
REMARK    4  A    between atoms: N_24  and  C_27
REMARK    5  A    between atoms: C_27  and  C_28
REMARK    6  A    between atoms: C_27  and  C_34
REMARK    7  A    between atoms: C_27  and  O_40
REMARK                            x       y       z     vdW  Elec       q    Type
REMARK                         _______ _______ _______ _____ _____    ______ ____
ROOT
ATOM      1  N   UNL     1       4.033  -4.101  -2.574  0.00  0.00    +0.382 N 
ATOM      2  C   UNL     1       3.869  -4.663  -1.226  0.00  0.00    -0.063 C 
ATOM      3  C   UNL     1       2.480  -4.303  -0.693  0.00  0.00    +0.069 C 
ATOM      4  N   UNL     1       2.329  -2.842  -0.673  0.00  0.00    -0.271 NA
ATOM      5  C   UNL     1       2.494  -2.280  -2.021  0.00  0.00    +0.069 C 
ATOM      6  C   UNL     1       3.882  -2.639  -2.554  0.00  0.00    -0.063 C 
ATOM      7  H   UNL     1       3.241  -4.516  -3.214  0.00  0.00    -0.082 HD
ENDROOT
BRANCH   1   8
ATOM      8  C   UNL     1       5.327  -4.488  -3.152  0.00  0.00    -0.064 C 
BRANCH   8  23
ATOM      9  C   UNL     1       6.544  -7.863  -5.948  0.00  0.00    +0.011 C 
ATOM     10  C   UNL     1       7.739  -7.009  -6.377  0.00  0.00    -0.023 C 
ATOM     11  C   UNL     1       8.766  -7.884  -7.095  0.00  0.00    +0.007 C 
ATOM     12  C   UNL     1       9.230  -9.007  -6.166  0.00  0.00    +0.003 C 
ATOM     13  C   UNL     1       9.913  -8.419  -4.927  0.00  0.00    +0.037 C 
ATOM     14  C   UNL     1       8.949  -7.448  -4.242  0.00  0.00    +0.096 C 
ATOM     15  C   UNL     1       8.375  -6.354  -5.143  0.00  0.00    +0.030 C 
ATOM     16  C   UNL     1       7.287  -5.585  -4.397  0.00  0.00    +0.014 C 
ATOM     17  C   UNL     1       6.735  -4.479  -5.263  0.00  0.00    +0.042 C 
ATOM     18  C   UNL     1       6.254  -5.002  -6.633  0.00  0.00    +0.181 C 
ATOM     19  C   UNL     1       7.266  -5.893  -7.310  0.00  0.00    +0.052 C 
ATOM     20  O   UNL     1       5.005  -5.681  -6.322  0.00  0.00    -0.461 OA
ATOM     21  C   UNL     1       4.351  -4.918  -5.417  0.00  0.00    +0.309 C 
ATOM     22  O   UNL     1       3.154  -4.891  -5.259  0.00  0.00    -0.251 OA
ATOM     23  C   UNL     1       5.361  -4.102  -4.632  0.00  0.00    +0.088 C 
ATOM     24  C   UNL     1       8.064  -7.991  -3.121  0.00  0.00    +0.196 C 
ATOM     25  O   UNL     1       9.180  -7.133  -2.870  0.00  0.00    -0.368 OA
ENDBRANCH   8  23
ENDBRANCH   1   8
BRANCH   4  26
ATOM     26  C   UNL     1       1.035  -2.454  -0.095  0.00  0.00    +0.172 C 
BRANCH  26  27
ATOM     27  C   UNL     1       0.917  -0.952  -0.091  0.00  0.00    +0.003 A 
ATOM     28  C   UNL     1      -0.331  -0.357  -0.098  0.00  0.00    +0.008 A 
ATOM     29  C   UNL     1      -0.440   1.021  -0.093  0.00  0.00    +0.000 A 
ATOM     30  C   UNL     1       0.700   1.804  -0.082  0.00  0.00    +0.000 A 
ATOM     31  C   UNL     1       1.947   1.210  -0.077  0.00  0.00    +0.000 A 
ATOM     32  C   UNL     1       2.056  -0.169  -0.081  0.00  0.00    +0.008 A 
ENDBRANCH  26  27
BRANCH  26  33
ATOM     33  C   UNL     1       0.942  -2.969   1.318  0.00  0.00    +0.003 A 
ATOM     34  C   UNL     1       2.087  -3.117   2.077  0.00  0.00    +0.008 A 
ATOM     35  C   UNL     1       2.001  -3.585   3.375  0.00  0.00    +0.000 A 
ATOM     36  C   UNL     1       0.770  -3.914   3.911  0.00  0.00    +0.000 A 
ATOM     37  C   UNL     1      -0.375  -3.771   3.150  0.00  0.00    +0.000 A 
ATOM     38  C   UNL     1      -0.289  -3.298   1.854  0.00  0.00    +0.008 A 
ENDBRANCH  26  33
BRANCH  26  39
ATOM     39  O   UNL     1      -0.022  -3.013  -0.877  0.00  0.00    -0.366 OA
ATOM     40  H   UNL     1      -1.070  -2.830  -0.596  0.00  0.00    +0.212 HD
ENDBRANCH  26  39
ENDBRANCH   4  26
TORSDOF 6
