REMARK  Name = ZINC60368609
REMARK  9 active torsions:
REMARK  status: ('A' for Active; 'I' for Inactive)
REMARK    1  A    between atoms: C_1  and  C_2
REMARK    2  A    between atoms: C_2  and  C_4
REMARK    3  A    between atoms: C_2  and  O_11
REMARK    4  A    between atoms: O_11  and  C_12
REMARK    5  A    between atoms: C_12  and  C_13
REMARK    6  A    between atoms: C_13  and  C_15
REMARK    7  A    between atoms: C_13  and  O_28
REMARK    8  A    between atoms: C_15  and  N_16
REMARK    9  A    between atoms: C_20  and  C_22
REMARK                            x       y       z     vdW  Elec       q    Type
REMARK                         _______ _______ _______ _____ _____    ______ ____
ROOT
ATOM      1  C   UNL     1       2.732  -1.158   2.264  0.00  0.00    +0.162 C 
ENDROOT
BRANCH   1   2
ATOM      2  O   UNL     1       2.228  -2.461   2.563  0.00  0.00    -0.388 OA
ATOM      3  H   UNL     1       2.411  -3.120   1.880  0.00  0.00    +0.210 HD
ENDBRANCH   1   2
BRANCH   1   4
ATOM      4  C   UNL     1       2.099  -0.651   0.967  0.00  0.00    +0.193 C 
BRANCH   4   5
ATOM      5  O   UNL     1       0.693  -0.477   1.160  0.00  0.00    -0.370 OA
BRANCH   5   7
ATOM      6  C   UNL     1      -0.019   1.526   0.010  0.00  0.00    +0.043 C 
ATOM      7  C   UNL     1       0.002  -0.004   0.002  0.00  0.00    +0.145 C 
BRANCH   7   8
ATOM      8  C   UNL     1      -1.412  -0.526   0.013  0.00  0.00    -0.019 A 
ATOM      9  C   UNL     1      -2.123  -0.571   1.198  0.00  0.00    +0.007 A 
ATOM     10  C   UNL     1      -3.419  -1.049   1.208  0.00  0.00    +0.020 A 
ATOM     11  C   UNL     1      -4.006  -1.483   0.032  0.00  0.00    +0.041 A 
ATOM     12  C   UNL     1      -3.294  -1.437  -1.153  0.00  0.00    +0.020 A 
ATOM     13  C   UNL     1      -1.999  -0.954  -1.163  0.00  0.00    +0.007 A 
ATOM     14 CL   UNL     1      -5.634  -2.084   0.045  0.00  0.00    -0.084 Cl
ENDBRANCH   7   8
ENDBRANCH   5   7
ENDBRANCH   4   5
ENDBRANCH   1   4
BRANCH   1  15
ATOM     15  C   UNL     1       4.252  -1.225   2.097  0.00  0.00    +0.184 C 
BRANCH  15  16
ATOM     16  N   UNL     1       4.858  -1.711   3.339  0.00  0.00    -0.192 N 
ATOM     17  C   UNL     1       5.112  -2.997   3.661  0.00  0.00    +0.438 A 
ATOM     18  O   UNL     1       4.878  -3.971   2.971  0.00  0.00    -0.221 OA
ATOM     19  O   UNL     1       5.670  -3.004   4.883  0.00  0.00    -0.388 OA
ATOM     20  C   UNL     1       5.767  -1.732   5.326  0.00  0.00    +0.250 A 
ATOM     21  N   UNL     1       5.293  -0.928   4.419  0.00  0.00    -0.127 NA
BRANCH  20  22
ATOM     22  C   UNL     1       6.328  -1.317   6.631  0.00  0.00    +0.039 A 
ATOM     23  C   UNL     1       6.369   0.033   6.979  0.00  0.00    +0.013 A 
ATOM     24  C   UNL     1       6.893   0.413   8.197  0.00  0.00    +0.001 A 
ATOM     25  C   UNL     1       7.379  -0.542   9.072  0.00  0.00    +0.000 A 
ATOM     26  C   UNL     1       7.342  -1.883   8.733  0.00  0.00    +0.001 A 
ATOM     27  C   UNL     1       6.814  -2.276   7.520  0.00  0.00    +0.013 A 
ENDBRANCH  20  22
ENDBRANCH  15  16
ENDBRANCH   1  15
TORSDOF 8
