REMARK  Name = ZINC12877832
REMARK  8 active torsions:
REMARK  status: ('A' for Active; 'I' for Inactive)
REMARK    1  A    between atoms: C_1  and  C_2
REMARK    2  A    between atoms: C_2  and  C_3
REMARK    3  A    between atoms: C_3  and  C_4
REMARK    4  A    between atoms: C_4  and  C_5
REMARK    5  A    between atoms: C_8  and  N_11
REMARK    6  A    between atoms: C_16  and  C_34
REMARK    7  A    between atoms: C_27  and  C_32
REMARK    8  A    between atoms: C_34  and  C_35
REMARK                            x       y       z     vdW  Elec       q    Type
REMARK                         _______ _______ _______ _____ _____    ______ ____
ROOT
ATOM      1  N   UNL     1       2.111   1.718   3.024  0.00  0.00    -0.210 N 
ATOM      2  C   UNL     1       1.442   0.703   2.465  0.00  0.00    +0.228 C 
ATOM      3  O   UNL     1       1.946  -0.237   1.889  0.00  0.00    -0.275 OA
ATOM      4  C   UNL     1      -0.043   0.910   2.664  0.00  0.00    +0.074 C 
ATOM      5  C   UNL     1      -0.705   1.198   1.300  0.00  0.00    -0.049 C 
ATOM      6  C   UNL     1      -0.797   3.224   2.460  0.00  0.00    +0.050 C 
ATOM      7  C   UNL     1      -0.116   2.257   3.436  0.00  0.00    +0.088 C 
ATOM      8  C   UNL     1       1.337   2.644   3.600  0.00  0.00    +0.229 C 
ATOM      9  O   UNL     1       1.737   3.638   4.166  0.00  0.00    -0.275 OA
ATOM     10  C   UNL     1      -0.236   4.613   2.582  0.00  0.00    -0.027 A 
ATOM     11  C   UNL     1       1.026   5.142   2.430  0.00  0.00    +0.006 A 
ATOM     12  C   UNL     1       1.236   6.496   2.615  0.00  0.00    +0.020 A 
ATOM     13  C   UNL     1       0.175   7.318   2.953  0.00  0.00    +0.046 A 
ATOM     14  C   UNL     1      -1.092   6.792   3.105  0.00  0.00    -0.011 A 
ATOM     15  C   UNL     1      -1.312   5.429   2.920  0.00  0.00    +0.040 A 
ATOM     16  N   UNL     1      -2.481   4.672   3.016  0.00  0.00    -0.286 N 
ATOM     17  C   UNL     1      -2.264   3.367   2.759  0.00  0.00    +0.211 C 
ATOM     18  O   UNL     1      -3.091   2.480   2.768  0.00  0.00    -0.277 OA
ATOM     19  C   UNL     1      -2.242   7.695   3.472  0.00  0.00    +0.047 C 
ATOM     20 CL   UNL     1       0.438   9.018   3.186  0.00  0.00    -0.083 Cl
ATOM     21  H   UNL     1      -3.349   5.042   3.240  0.00  0.00    +0.155 HD
ATOM     22  N   UNL     1      -0.582   2.648   1.143  0.00  0.00    +0.394 N 
ATOM     23  H   UNL     1      -1.289   2.995   0.484  0.00  0.00    -0.083 HD
ATOM     24  H   UNL     1       0.355   2.890   0.799  0.00  0.00    -0.083 HD
ENDROOT
BRANCH   1  28
ATOM     25  C   UNL     1       6.272   1.972   2.973  0.00  0.00    -0.047 A 
ATOM     26  C   UNL     1       5.607   1.773   4.169  0.00  0.00    +0.005 A 
ATOM     27  C   UNL     1       4.229   1.688   4.189  0.00  0.00    +0.024 A 
ATOM     28  C   UNL     1       3.510   1.803   3.007  0.00  0.00    +0.044 A 
ATOM     29  C   UNL     1       4.181   1.997   1.807  0.00  0.00    +0.024 A 
ATOM     30  C   UNL     1       5.559   2.086   1.794  0.00  0.00    +0.005 A 
BRANCH  25  31
ATOM     31  C   UNL     1       7.776   2.063   2.954  0.00  0.00    +0.035 C 
BRANCH  31  32
ATOM     32  C   UNL     1       8.369   0.666   2.758  0.00  0.00    +0.004 C 
BRANCH  32  34
ATOM     33  C   UNL     1      10.489  -0.638   2.542  0.00  0.00    +0.004 C 
ATOM     34  C   UNL     1       9.896   0.759   2.739  0.00  0.00    -0.003 C 
ENDBRANCH  32  34
ENDBRANCH  31  32
ENDBRANCH  25  31
ENDBRANCH   1  28
BRANCH   5  35
ATOM     35  C   UNL     1       0.028   0.451   0.184  0.00  0.00    +0.080 C 
BRANCH  35  36
ATOM     36  C   UNL     1      -0.685   0.676  -1.124  0.00  0.00    +0.209 C 
ATOM     37  O   UNL     1      -1.681   1.366  -1.160  0.00  0.00    -0.276 OA
ATOM     38  N   UNL     1      -0.215   0.111  -2.254  0.00  0.00    -0.329 N 
ATOM     39  H   UNL     1       0.582  -0.441  -2.225  0.00  0.00    +0.145 HD
ATOM     40  H   UNL     1      -0.674   0.256  -3.096  0.00  0.00    +0.145 HD
ENDBRANCH  35  36
ENDBRANCH   5  35
TORSDOF 6
