REMARK  Name = ZINC39413858
REMARK  12 active torsions:
REMARK  status: ('A' for Active; 'I' for Inactive)
REMARK    1  A    between atoms: C_1  and  C_2
REMARK    2  A    between atoms: C_2  and  N_3
REMARK    3  A    between atoms: N_3  and  C_4
REMARK    4  A    between atoms: N_3  and  S_6
REMARK    5  A    between atoms: C_4  and  C_5
REMARK    6  A    between atoms: S_6  and  C_9
REMARK    7  A    between atoms: C_13  and  C_15
REMARK    8  A    between atoms: C_19  and  S_28
REMARK    9  A    between atoms: N_21  and  C_22
REMARK   10  A    between atoms: S_28  and  C_29
REMARK   11  A    between atoms: C_29  and  C_30
REMARK   12  A    between atoms: C_30  and  C_32
REMARK                            x       y       z     vdW  Elec       q    Type
REMARK                         _______ _______ _______ _____ _____    ______ ____
ROOT
ATOM      1  C   UNL     1       4.507   2.373   4.382  0.00  0.00    +0.218 C 
ATOM      2  N   UNL     1       3.507   1.927   5.354  0.00  0.00    -0.286 N 
ATOM      3  N   UNL     1       3.214   2.818   6.149  0.00  0.00    -0.180 NA
ATOM      4  C   UNL     1       3.954   4.052   5.881  0.00  0.00    +0.273 C 
ATOM      5  N   UNL     1       4.815   3.775   4.716  0.00  0.00    -0.273 N 
ATOM      6  H   UNL     1       3.122   1.037   5.369  0.00  0.00    +0.185 HD
ENDROOT
BRANCH   1  11
ATOM      7  C   UNL     1       2.305   2.925   1.366  0.00  0.00    +0.106 A 
ATOM      8  C   UNL     1       2.919   2.120   0.425  0.00  0.00    +0.028 A 
ATOM      9  C   UNL     1       4.046   1.396   0.765  0.00  0.00    +0.002 A 
ATOM     10  C   UNL     1       4.560   1.478   2.046  0.00  0.00    +0.007 A 
ATOM     11  C   UNL     1       3.947   2.284   2.986  0.00  0.00    -0.004 A 
ATOM     12  C   UNL     1       2.822   3.011   2.645  0.00  0.00    +0.035 A 
BRANCH   7  13
ATOM     13  S   UNL     1       0.868   3.848   0.932  0.00  0.00    +0.061 S 
ATOM     14  O   UNL     1       0.170   4.105   2.143  0.00  0.00    -0.153 OA
ATOM     15  O   UNL     1       0.268   3.173  -0.165  0.00  0.00    -0.153 OA
BRANCH  13  16
ATOM     16  N   UNL     1       1.382   5.315   0.361  0.00  0.00    -0.177 NA
BRANCH  16  18
ATOM     17  C   UNL     1       3.152   5.276  -1.326  0.00  0.00    +0.022 C 
ATOM     18  C   UNL     1       1.659   5.489  -1.067  0.00  0.00    +0.106 C 
ENDBRANCH  16  18
BRANCH  16  19
ATOM     19  C   UNL     1       1.560   6.439   1.284  0.00  0.00    +0.106 C 
ATOM     20  C   UNL     1       0.293   7.297   1.293  0.00  0.00    +0.022 C 
ENDBRANCH  16  19
ENDBRANCH  13  16
ENDBRANCH   7  13
ENDBRANCH   1  11
BRANCH   5  21
ATOM     21  C   UNL     1       5.710   4.636   4.078  0.00  0.00    +0.034 A 
ATOM     22  C   UNL     1       6.520   4.165   3.053  0.00  0.00    +0.023 A 
ATOM     23  C   UNL     1       7.404   5.019   2.424  0.00  0.00    +0.002 A 
ATOM     24  C   UNL     1       7.484   6.344   2.814  0.00  0.00    +0.000 A 
ATOM     25  C   UNL     1       6.678   6.817   3.834  0.00  0.00    +0.002 A 
ATOM     26  C   UNL     1       5.788   5.969   4.463  0.00  0.00    +0.023 A 
ENDBRANCH   5  21
BRANCH   4  27
ATOM     27  S   UNL     1       4.971   4.493   7.316  0.00  0.00    -0.106 S 
BRANCH  27  28
ATOM     28  C   UNL     1       6.049   3.052   7.550  0.00  0.00    +0.149 C 
BRANCH  28  29
ATOM     29  C   UNL     1       6.958   3.290   8.728  0.00  0.00    +0.171 C 
ATOM     30  O   UNL     1       6.887   4.325   9.346  0.00  0.00    -0.294 OA
BRANCH  29  31
ATOM     31  C   UNL     1       7.957   2.237   9.134  0.00  0.00    +0.195 C 
ATOM     32  C   UNL     1       7.260   1.107   9.861  0.00  0.00    +0.008 C 
ATOM     33  C   UNL     1       7.796   1.071  11.079  0.00  0.00    +0.017 C 
ATOM     34  C   UNL     1       8.812   2.118  11.197  0.00  0.00    +0.106 C 
ATOM     35  N   UNL     1       8.916   2.791  10.097  0.00  0.00    -0.277 NA
ENDBRANCH  29  31
ENDBRANCH  28  29
ENDBRANCH  27  28
ENDBRANCH   4  27
TORSDOF 10
