REMARK  Name = ZINC39596403
REMARK  7 active torsions:
REMARK  status: ('A' for Active; 'I' for Inactive)
REMARK    1  A    between atoms: C_1  and  C_2
REMARK    2  A    between atoms: C_2  and  C_4
REMARK    3  A    between atoms: C_2  and  O_30
REMARK    4  A    between atoms: C_4  and  N_5
REMARK    5  A    between atoms: C_6  and  C_8
REMARK    6  A    between atoms: C_19  and  C_21
REMARK    7  A    between atoms: O_30  and  C_31
REMARK                            x       y       z     vdW  Elec       q    Type
REMARK                         _______ _______ _______ _____ _____    ______ ____
ROOT
ATOM      1  C   UNL     1       1.715  -4.623  -2.730  0.00  0.00    +0.100 C 
ATOM      2  C   UNL     1       2.352  -5.293  -1.492  0.00  0.00    +0.121 C 
ATOM      3  N   UNL     1       3.100  -6.451  -2.036  0.00  0.00    -0.296 N 
ATOM      4  C   UNL     1       3.697  -5.945  -3.296  0.00  0.00    +0.115 C 
ATOM      5  C   UNL     1       2.601  -5.053  -3.912  0.00  0.00    -0.004 C 
ATOM      6  C   UNL     1       1.782  -5.847  -4.925  0.00  0.00    -0.010 C 
ATOM      7  C   UNL     1       2.671  -6.214  -6.117  0.00  0.00    -0.082 C 
ATOM      8  N   UNL     1       3.196  -4.990  -6.733  0.00  0.00    +0.379 N 
ATOM      9  C   UNL     1       4.058  -4.279  -5.781  0.00  0.00    -0.082 C 
ATOM     10  C   UNL     1       3.228  -3.830  -4.575  0.00  0.00    -0.010 C 
ATOM     11  C   UNL     1       3.213  -7.685  -1.506  0.00  0.00    +0.248 C 
ATOM     12  O   UNL     1       3.926  -8.514  -2.040  0.00  0.00    -0.270 OA
ATOM     13  H   UNL     1       3.731  -5.231  -7.554  0.00  0.00    -0.086 HD
ATOM     14  H   UNL     1       2.427  -4.393  -7.000  0.00  0.00    -0.086 HD
ENDROOT
BRANCH  11  15
ATOM     15  C   UNL     1       2.474  -8.030  -0.285  0.00  0.00    +0.052 A 
ATOM     16  C   UNL     1       2.278  -7.112   0.697  0.00  0.00    +0.059 A 
ATOM     17  S   UNL     1       1.405  -7.911   1.886  0.00  0.00    -0.096 S 
ATOM     18  C   UNL     1       1.252  -9.511   1.141  0.00  0.00    +0.020 A 
ATOM     19  C   UNL     1       1.920  -9.372  -0.091  0.00  0.00    +0.001 A 
ATOM     20  C   UNL     1       1.965 -10.500  -0.931  0.00  0.00    +0.010 A 
ATOM     21  C   UNL     1       1.371 -11.676  -0.548  0.00  0.00    +0.001 A 
ATOM     22  C   UNL     1       0.714 -11.786   0.669  0.00  0.00    +0.001 A 
ATOM     23  C   UNL     1       0.663 -10.698   1.519  0.00  0.00    +0.015 A 
ENDBRANCH  11  15
BRANCH   1  25
ATOM     24  N   UNL     1       0.762  -2.380  -3.151  0.00  0.00    -0.312 N 
ATOM     25  C   UNL     1       1.730  -3.124  -2.581  0.00  0.00    +0.218 C 
ATOM     26  O   UNL     1       2.614  -2.586  -1.948  0.00  0.00    -0.275 OA
ATOM     27  H   UNL     1       0.055  -2.810  -3.658  0.00  0.00    +0.149 HD
BRANCH  24  28
ATOM     28  C   UNL     1       0.776  -0.922  -3.007  0.00  0.00    +0.148 C 
BRANCH  28  30
ATOM     29  C   UNL     1      -0.341   1.203  -3.698  0.00  0.00    +0.053 C 
ATOM     30  C   UNL     1      -0.424  -0.324  -3.743  0.00  0.00    +0.187 C 
BRANCH  30  31
ATOM     31  O   UNL     1      -1.632  -0.755  -3.113  0.00  0.00    -0.488 OA
BRANCH  31  32
ATOM     32  C   UNL     1      -2.757  -0.765  -3.877  0.00  0.00    +0.121 A 
ATOM     33  C   UNL     1      -2.680  -0.468  -5.230  0.00  0.00    +0.048 A 
ATOM     34  C   UNL     1      -3.823  -0.479  -6.005  0.00  0.00    +0.042 A 
ATOM     35  C   UNL     1      -5.046  -0.786  -5.432  0.00  0.00    +0.124 A 
ATOM     36  C   UNL     1      -5.124  -1.082  -4.082  0.00  0.00    +0.042 A 
ATOM     37  C   UNL     1      -3.981  -1.079  -3.306  0.00  0.00    +0.048 A 
ATOM     38  F   UNL     1      -6.163  -0.796  -6.191  0.00  0.00    -0.205 F 
ENDBRANCH  31  32
ENDBRANCH  30  31
ENDBRANCH  28  30
ENDBRANCH  24  28
ENDBRANCH   1  25
TORSDOF 6
