REMARK  Name = ZINC09762959
REMARK  12 active torsions:
REMARK  status: ('A' for Active; 'I' for Inactive)
REMARK    1  A    between atoms: C_1  and  C_2
REMARK    2  A    between atoms: C_2  and  C_3
REMARK    3  A    between atoms: C_8  and  C_9
REMARK    4  A    between atoms: C_9  and  C_11
REMARK    5  A    between atoms: C_9  and  N_66
REMARK    6  A    between atoms: C_11  and  C_12
REMARK    7  A    between atoms: C_12  and  O_14
REMARK    8  A    between atoms: O_14  and  C_15
REMARK    9  A    between atoms: C_16  and  N_66
REMARK   10  A    between atoms: N_26  and  C_27
REMARK   11  A    between atoms: C_27  and  C_28
REMARK   12  A    between atoms: C_28  and  C_29
REMARK                            x       y       z     vdW  Elec       q    Type
REMARK                         _______ _______ _______ _____ _____    ______ ____
ROOT
ATOM      1  C   UNL     1      -2.698  -2.167   1.575  0.00  0.00    +0.047 C 
ATOM      2  C   UNL     1      -2.469  -2.980   2.820  0.00  0.00    -0.059 C 
ATOM      3  C   UNL     1      -3.085  -4.152   2.648  0.00  0.00    +0.014 C 
ATOM      4  C   UNL     1      -3.090  -5.258   3.678  0.00  0.00    +0.040 C 
ATOM      5  C   UNL     1      -1.970  -4.981   4.693  0.00  0.00    +0.005 C 
ATOM      6  C   UNL     1      -2.073  -3.536   5.190  0.00  0.00    +0.005 C 
ATOM      7  C   UNL     1      -1.696  -2.581   4.050  0.00  0.00    +0.031 C 
ATOM      8  C   UNL     1      -3.731  -4.176   1.333  0.00  0.00    +0.241 C 
ATOM      9  O   UNL     1      -4.372  -5.109   0.889  0.00  0.00    -0.270 OA
ATOM     10  N   UNL     1      -3.512  -3.013   0.689  0.00  0.00    -0.308 N 
ENDROOT
BRANCH   1  11
ATOM     11  N   UNL     1      -1.410  -1.854   0.927  0.00  0.00    +0.399 N 
ATOM     12  H   UNL     1      -0.714  -2.557   1.202  0.00  0.00    -0.082 HD
ATOM     13  H   UNL     1      -1.530  -1.872  -0.093  0.00  0.00    -0.082 HD
BRANCH  11  14
ATOM     14  C   UNL     1      -0.941  -0.518   1.338  0.00  0.00    -0.027 C 
BRANCH  14  20
ATOM     15  C   UNL     1       0.817   0.316   2.913  0.00  0.00    -0.046 A 
ATOM     16  C   UNL     1       2.048   0.197   3.532  0.00  0.00    +0.004 A 
ATOM     17  C   UNL     1       2.863  -0.882   3.247  0.00  0.00    +0.000 A 
ATOM     18  C   UNL     1       2.447  -1.844   2.346  0.00  0.00    +0.000 A 
ATOM     19  C   UNL     1       1.216  -1.726   1.728  0.00  0.00    +0.002 A 
ATOM     20  C   UNL     1       0.401  -0.646   2.012  0.00  0.00    -0.058 A 
BRANCH  15  22
ATOM     21  C   UNL     1      -1.070   1.115   4.309  0.00  0.00    +0.009 C 
ATOM     22  C   UNL     1      -0.069   1.496   3.217  0.00  0.00    +0.032 C 
ENDBRANCH  15  22
ENDBRANCH  14  20
BRANCH  14  23
ATOM     23  C   UNL     1      -0.807   0.374   0.101  0.00  0.00    +0.109 C 
BRANCH  23  24
ATOM     24  C   UNL     1      -2.171   0.619  -0.490  0.00  0.00    +0.306 C 
ATOM     25  O   UNL     1      -3.146   0.106   0.005  0.00  0.00    -0.251 OA
BRANCH  24  26
ATOM     26  O   UNL     1      -2.303   1.409  -1.568  0.00  0.00    -0.468 OA
ATOM     27  C   UNL     1      -3.651   1.640  -2.055  0.00  0.00    +0.280 C 
ENDBRANCH  24  26
ENDBRANCH  23  24
ENDBRANCH  14  23
ENDBRANCH  11  14
ENDBRANCH   1  11
BRANCH  10  28
ATOM     28  C   UNL     1      -3.995  -2.657  -0.647  0.00  0.00    +0.111 C 
BRANCH  28  29
ATOM     29  C   UNL     1      -2.995  -3.146  -1.698  0.00  0.00    +0.054 C 
BRANCH  29  30
ATOM     30  C   UNL     1      -3.532  -2.855  -3.075  0.00  0.00    -0.046 A 
ATOM     31  C   UNL     1      -4.378  -3.757  -3.693  0.00  0.00    +0.005 A 
ATOM     32  C   UNL     1      -4.875  -3.488  -4.954  0.00  0.00    +0.020 A 
ATOM     33  C   UNL     1      -4.517  -2.320  -5.604  0.00  0.00    +0.041 A 
ATOM     34  C   UNL     1      -3.666  -1.420  -4.988  0.00  0.00    +0.020 A 
ATOM     35  C   UNL     1      -3.174  -1.688  -3.724  0.00  0.00    +0.005 A 
ATOM     36 CL   UNL     1      -5.135  -1.984  -7.190  0.00  0.00    -0.084 Cl
ENDBRANCH  29  30
ENDBRANCH  28  29
ENDBRANCH  10  28
TORSDOF 10
