REMARK  Name = ZINC42350895
REMARK  6 active torsions:
REMARK  status: ('A' for Active; 'I' for Inactive)
REMARK    1  A    between atoms: C_1  and  C_2
REMARK    2  A    between atoms: C_2  and  C_4
REMARK    3  A    between atoms: C_2  and  N_8
REMARK    4  A    between atoms: N_6  and  C_7
REMARK    5  A    between atoms: C_9  and  C_11
REMARK    6  A    between atoms: C_14  and  C_16
REMARK                            x       y       z     vdW  Elec       q    Type
REMARK                         _______ _______ _______ _____ _____    ______ ____
ROOT
ATOM      1  N   UNL     1      -1.372  -0.511   0.012  0.00  0.00    -0.300 N 
ATOM      2  C   UNL     1      -2.051  -0.643  -1.145  0.00  0.00    +0.251 C 
ATOM      3  O   UNL     1      -1.522  -0.341  -2.197  0.00  0.00    -0.270 OA
ATOM      4  H   UNL     1      -1.794  -0.752   0.852  0.00  0.00    +0.150 HD
ENDROOT
BRANCH   2   5
ATOM      5  C   UNL     1      -3.433  -1.153  -1.134  0.00  0.00    +0.075 A 
ATOM      6  C   UNL     1      -4.291  -1.365  -2.203  0.00  0.00    +0.021 A 
ATOM      7  C   UNL     1      -5.543  -1.851  -1.954  0.00  0.00    +0.023 A 
ATOM      8  C   UNL     1      -5.907  -2.112  -0.639  0.00  0.00    +0.101 A 
ATOM      9  S   UNL     1      -4.429  -1.662   0.257  0.00  0.00    -0.077 S 
BRANCH   8  10
ATOM     10  C   UNL     1      -7.178  -2.631  -0.120  0.00  0.00    +0.393 C 
ATOM     11  O   UNL     1      -8.092  -2.893  -0.890  0.00  0.00    -0.240 OA
ATOM     12  O   UNL     1      -7.324  -2.801   1.084  0.00  0.00    -0.240 OA
ENDBRANCH   8  10
ENDBRANCH   2   5
BRANCH   1  14
ATOM     13  C   UNL     1      -0.019   1.526   0.010  0.00  0.00    +0.038 C 
ATOM     14  C   UNL     1       0.002  -0.004   0.002  0.00  0.00    +0.156 C 
BRANCH  14  15
ATOM     15  C   UNL     1       0.731  -0.503   1.223  0.00  0.00    +0.233 C 
ATOM     16  O   UNL     1       0.159  -1.213   2.023  0.00  0.00    -0.274 OA
ATOM     17  N   UNL     1       2.019  -0.161   1.426  0.00  0.00    -0.317 N 
ATOM     18  C   UNL     1       2.727  -0.647   2.613  0.00  0.00    +0.128 C 
ATOM     19  H   UNL     1       2.476   0.406   0.786  0.00  0.00    +0.148 HD
ENDBRANCH  14  15
ENDBRANCH   1  14
TORSDOF 4
