REMARK  Name = ZINC06606332
REMARK  4 active torsions:
REMARK  status: ('A' for Active; 'I' for Inactive)
REMARK    1  A    between atoms: C_1  and  C_2
REMARK    2  A    between atoms: C_1  and  C_14
REMARK    3  A    between atoms: C_2  and  C_4
REMARK    4  A    between atoms: C_2  and  C_12
REMARK                            x       y       z     vdW  Elec       q    Type
REMARK                         _______ _______ _______ _____ _____    ______ ____
ROOT
ATOM      1  C   UNL     1       2.313  -0.952   1.237  0.00  0.00    +0.135 C 
ENDROOT
BRANCH   1   2
ATOM      2  C   UNL     1       1.826  -0.221  -0.017  0.00  0.00    +0.156 C 
ATOM      3  C   UNL     1       2.262   1.237  -0.013  0.00  0.00    +0.234 C 
ATOM      4  O   UNL     1       3.430   1.565  -0.023  0.00  0.00    -0.274 OA
ATOM      5  N   UNL     1       1.280   2.123   0.001  0.00  0.00    -0.246 N 
ATOM      6  C   UNL     1      -0.022   1.782   0.012  0.00  0.00    +0.279 C 
ATOM      7  O   UNL     1      -0.989   2.519   0.021  0.00  0.00    -0.263 OA
ATOM      8  S   UNL     1       0.002  -0.004   0.002  0.00  0.00    -0.054 S 
ATOM      9  H   UNL     1       1.510   3.065   0.004  0.00  0.00    +0.158 HD
ENDBRANCH   1   2
BRANCH   1  10
ATOM     10  C   UNL     1       1.802  -0.240   2.463  0.00  0.00    +0.361 C 
ATOM     11  O   UNL     1       1.119   0.750   2.346  0.00  0.00    -0.246 OA
ATOM     12  O   UNL     1       2.106  -0.706   3.685  0.00  0.00    -0.246 OA
ENDBRANCH   1  10
BRANCH   1  13
ATOM     13  C   UNL     1       1.788  -2.389   1.225  0.00  0.00    +0.141 C 
BRANCH  13  14
ATOM     14  C   UNL     1       2.366  -3.144   2.394  0.00  0.00    +0.357 C 
ATOM     15  O   UNL     1       3.120  -2.589   3.158  0.00  0.00    -0.246 OA
ATOM     16  O   UNL     1       2.043  -4.432   2.587  0.00  0.00    -0.246 OA
ENDBRANCH  13  14
ENDBRANCH   1  13
TORSDOF 4
