REMARK  Name = ZINC59037172
REMARK  6 active torsions:
REMARK  status: ('A' for Active; 'I' for Inactive)
REMARK    1  A    between atoms: C_3  and  C_27
REMARK    2  A    between atoms: C_6  and  C_7
REMARK    3  A    between atoms: C_7  and  C_8
REMARK    4  A    between atoms: C_8  and  N_9
REMARK    5  A    between atoms: N_12  and  C_13
REMARK    6  A    between atoms: C_13  and  C_14
REMARK                            x       y       z     vdW  Elec       q    Type
REMARK                         _______ _______ _______ _____ _____    ______ ____
ROOT
ATOM      1  N   UNL     1      -2.732  -2.289  -1.440  0.00  0.00    -0.299 N 
ATOM      2  C   UNL     1      -3.439  -2.403  -2.582  0.00  0.00    +0.300 C 
ATOM      3  O   UNL     1      -3.010  -1.923  -3.613  0.00  0.00    -0.253 OA
ATOM      4  N   UNL     1      -4.621  -3.050  -2.580  0.00  0.00    -0.295 N 
ATOM      5  H   UNL     1      -3.074  -2.672  -0.617  0.00  0.00    +0.150 HD
ATOM      6  H   UNL     1      -4.964  -3.433  -1.757  0.00  0.00    +0.151 HD
ENDROOT
BRANCH   1   7
ATOM      7  C   UNL     1      -1.446  -1.586  -1.442  0.00  0.00    +0.110 C 
BRANCH   7   8
ATOM      8  C   UNL     1      -0.856  -1.600  -0.030  0.00  0.00    +0.054 C 
BRANCH   8  14
ATOM      9  C   UNL     1       0.511   0.483   0.212  0.00  0.00    +0.004 A 
ATOM     10  C   UNL     1       1.724   1.146   0.210  0.00  0.00    +0.012 A 
ATOM     11  C   UNL     1       2.893   0.449  -0.035  0.00  0.00    +0.055 A 
ATOM     12  C   UNL     1       2.848  -0.911  -0.278  0.00  0.00    +0.012 A 
ATOM     13  C   UNL     1       1.635  -1.574  -0.276  0.00  0.00    +0.004 A 
ATOM     14  C   UNL     1       0.467  -0.877  -0.032  0.00  0.00    -0.046 A 
BRANCH  11  15
ATOM     15  C   UNL     1       4.215   1.172  -0.037  0.00  0.00    +0.417 C 
ATOM     16  F   UNL     1       4.755   1.161   1.253  0.00  0.00    -0.166 F 
ATOM     17  F   UNL     1       5.095   0.531  -0.916  0.00  0.00    -0.166 F 
ATOM     18  F   UNL     1       4.023   2.494  -0.451  0.00  0.00    -0.166 F 
ENDBRANCH  11  15
ENDBRANCH   8  14
ENDBRANCH   7   8
ENDBRANCH   1   7
BRANCH   4  19
ATOM     19  C   UNL     1      -5.390  -3.174  -3.821  0.00  0.00    +0.142 C 
BRANCH  19  20
ATOM     20  C   UNL     1      -6.663  -3.934  -3.550  0.00  0.00    -0.014 A 
ATOM     21  C   UNL     1      -6.691  -5.318  -3.663  0.00  0.00    +0.010 A 
ATOM     22  C   UNL     1      -7.880  -5.977  -3.405  0.00  0.00    +0.042 A 
ATOM     23  C   UNL     1      -9.000  -5.235  -3.043  0.00  0.00    +0.099 A 
ATOM     24  N   UNL     1      -8.932  -3.917  -2.946  0.00  0.00    -0.349 N 
ATOM     25  C   UNL     1      -7.811  -3.262  -3.181  0.00  0.00    +0.089 A 
ATOM     26  N   UNL     1     -10.201  -5.885  -2.782  0.00  0.00    -0.317 N 
ATOM     27  C   UNL     1     -10.214  -7.330  -2.751  0.00  0.00    +0.106 C 
ATOM     28  C   UNL     1     -10.497  -7.878  -4.172  0.00  0.00    +0.019 C 
ATOM     29  C   UNL     1     -11.897  -7.626  -4.547  0.00  0.00    +0.002 C 
ATOM     30  C   UNL     1     -12.270  -6.149  -4.630  0.00  0.00    +0.002 C 
ATOM     31  C   UNL     1     -12.646  -5.650  -3.257  0.00  0.00    +0.019 C 
ATOM     32  C   UNL     1     -11.408  -5.070  -2.542  0.00  0.00    +0.106 C 
ATOM     33  H   UNL     1      -9.726  -3.420  -2.693  0.00  0.00    +0.167 HD
ENDBRANCH  19  20
ENDBRANCH   4  19
TORSDOF 6
