REMARK  Name = ZINC67074369
REMARK  11 active torsions:
REMARK  status: ('A' for Active; 'I' for Inactive)
REMARK    1  A    between atoms: C_1  and  C_2
REMARK    2  A    between atoms: C_5  and  N_22
REMARK    3  A    between atoms: C_6  and  C_8
REMARK    4  A    between atoms: N_10  and  C_11
REMARK    5  A    between atoms: C_11  and  C_12
REMARK    6  A    between atoms: C_12  and  C_13
REMARK    7  A    between atoms: N_17  and  C_18
REMARK    8  A    between atoms: C_18  and  C_19
REMARK    9  A    between atoms: C_18  and  C_20
REMARK   10  A    between atoms: N_22  and  S_23
REMARK   11  A    between atoms: S_23  and  C_26
REMARK                            x       y       z     vdW  Elec       q    Type
REMARK                         _______ _______ _______ _____ _____    ______ ____
ROOT
ATOM      1  C   UNL     1       0.051  -2.839   2.459  0.00  0.00    +0.246 C 
ATOM      2  O   UNL     1       0.067  -4.055   2.450  0.00  0.00    -0.270 OA
ATOM      3  N   UNL     1       0.048  -2.174   3.631  0.00  0.00    -0.311 N 
ATOM      4  H   UNL     1       0.036  -1.204   3.639  0.00  0.00    +0.149 HD
ENDROOT
BRANCH   1  10
ATOM      5  C   UNL     1      -0.018   1.503   0.010  0.00  0.00    +0.044 C 
ATOM      6  C   UNL     1       0.002  -0.004   0.002  0.00  0.00    -0.050 A 
ATOM      7  C   UNL     1       0.006  -0.687  -1.204  0.00  0.00    +0.005 A 
ATOM      8  C   UNL     1       0.024  -2.066  -1.226  0.00  0.00    +0.028 A 
ATOM      9  C   UNL     1       0.039  -2.781  -0.035  0.00  0.00    +0.086 A 
ATOM     10  C   UNL     1       0.036  -2.093   1.188  0.00  0.00    +0.061 A 
ATOM     11  C   UNL     1       0.023  -0.696   1.193  0.00  0.00    +0.018 A 
BRANCH   9  12
ATOM     12  N   UNL     1       0.056  -4.170  -0.054  0.00  0.00    -0.102 NA
BRANCH  12  13
ATOM     13  S   UNL     1       0.059  -4.978  -1.500  0.00  0.00    +0.059 S 
ATOM     14  O   UNL     1      -1.183  -4.644  -2.104  0.00  0.00    -0.154 OA
ATOM     15  O   UNL     1       1.286  -4.613  -2.117  0.00  0.00    -0.154 OA
ATOM     16  C   UNL     1       0.084  -6.735  -1.052  0.00  0.00    +0.220 C 
ENDBRANCH  12  13
ENDBRANCH   9  12
ENDBRANCH   1  10
BRANCH   3  17
ATOM     17  C   UNL     1       0.064  -2.915   4.895  0.00  0.00    +0.112 C 
BRANCH  17  18
ATOM     18  C   UNL     1       0.057  -1.930   6.065  0.00  0.00    +0.095 C 
BRANCH  18  19
ATOM     19  C   UNL     1       0.073  -2.693   7.364  0.00  0.00    +0.134 A 
ATOM     20  N   UNL     1       0.095  -3.981   7.481  0.00  0.00    -0.158 NA
ATOM     21  N   UNL     1       0.104  -4.296   8.847  0.00  0.00    -0.254 N 
ATOM     22  C   UNL     1       0.085  -3.131   9.527  0.00  0.00    +0.176 A 
ATOM     23  N   UNL     1       0.071  -2.134   8.619  0.00  0.00    -0.305 N 
ATOM     24  S   UNL     1       0.085  -2.950  11.229  0.00  0.00    -0.011 S 
ATOM     25  H   UNL     1       0.120  -5.186   9.232  0.00  0.00    +0.191 HD
BRANCH  23  26
ATOM     26  C   UNL     1       0.055  -0.700   8.919  0.00  0.00    +0.085 C 
ATOM     27  C   UNL     1      -1.195  -0.365   9.736  0.00  0.00    +0.030 C 
ATOM     28  C   UNL     1       1.303  -0.333   9.724  0.00  0.00    +0.030 C 
ENDBRANCH  23  26
ENDBRANCH  18  19
ENDBRANCH  17  18
ENDBRANCH   3  17
TORSDOF 7
