REMARK  Name = ZINC41585853
REMARK  6 active torsions:
REMARK  status: ('A' for Active; 'I' for Inactive)
REMARK    1  A    between atoms: C_1  and  C_2
REMARK    2  A    between atoms: C_4  and  O_35
REMARK    3  A    between atoms: C_5  and  C_22
REMARK    4  A    between atoms: C_11  and  C_12
REMARK    5  A    between atoms: C_15  and  N_18
REMARK    6  A    between atoms: C_22  and  N_23
REMARK                            x       y       z     vdW  Elec       q    Type
REMARK                         _______ _______ _______ _____ _____    ______ ____
ROOT
ATOM      1  C   UNL     1      -1.313   1.485   0.155  0.00  0.00    +0.045 C 
ATOM      2  C   UNL     1      -1.036   0.004   0.121  0.00  0.00    -0.033 A 
ATOM      3  C   UNL     1      -1.133  -0.684  -1.055  0.00  0.00    +0.050 A 
ATOM      4  C   UNL     1      -0.877  -2.052  -1.088  0.00  0.00    +0.125 A 
ATOM      5  C   UNL     1      -0.523  -2.731   0.067  0.00  0.00    +0.051 A 
ATOM      6  C   UNL     1      -0.421  -2.047   1.271  0.00  0.00    +0.148 A 
ATOM      7  C   UNL     1      -0.676  -0.666   1.291  0.00  0.00    +0.071 A 
ATOM      8  C   UNL     1      -0.483  -0.228   2.685  0.00  0.00    +0.232 C 
ATOM      9  O   UNL     1      -0.609   0.896   3.138  0.00  0.00    -0.283 OA
ATOM     10  C   UNL     1      -0.105  -1.453   3.408  0.00  0.00    +0.176 C 
ATOM     11  C   UNL     1       0.176  -1.549   4.731  0.00  0.00    +0.058 C 
ATOM     12  O   UNL     1      -0.100  -2.470   2.513  0.00  0.00    -0.451 OA
ENDROOT
BRANCH  11  13
ATOM     13  C   UNL     1       0.291  -0.332   5.548  0.00  0.00    -0.021 A 
ATOM     14  C   UNL     1      -0.181  -0.323   6.865  0.00  0.00    +0.010 A 
ATOM     15  C   UNL     1      -0.069   0.822   7.625  0.00  0.00    +0.033 A 
ATOM     16  C   UNL     1       0.507   1.960   7.088  0.00  0.00    +0.126 A 
ATOM     17  C   UNL     1       0.976   1.959   5.785  0.00  0.00    +0.033 A 
ATOM     18  C   UNL     1       0.877   0.821   5.014  0.00  0.00    +0.010 A 
BRANCH  16  19
ATOM     19  N   UNL     1       0.623   3.185   7.910  0.00  0.00    +0.056 N 
ATOM     20  O   UNL     1       0.214   3.190   9.048  0.00  0.00    -0.126 OA
ATOM     21  O   UNL     1       1.125   4.181   7.444  0.00  0.00    -0.126 OA
ENDBRANCH  16  19
ENDBRANCH  11  13
BRANCH   4  22
ATOM     22  O   UNL     1      -0.976  -2.727  -2.262  0.00  0.00    -0.506 OA
ATOM     23  H   UNL     1      -0.153  -2.759  -2.768  0.00  0.00    +0.292 HD
ENDBRANCH   4  22
BRANCH   5  24
ATOM     24  C   UNL     1      -0.250  -4.213   0.016  0.00  0.00    +0.127 C 
BRANCH  24  25
ATOM     25  N   UNL     1       1.175  -4.439  -0.260  0.00  0.00    -0.295 NA
ATOM     26  C   UNL     1       2.008  -3.960   0.851  0.00  0.00    +0.103 C 
ATOM     27  C   UNL     1       3.485  -4.046   0.451  0.00  0.00    +0.122 C 
ATOM     28  N   UNL     1       3.769  -5.419   0.007  0.00  0.00    -0.314 N 
ATOM     29  C   UNL     1       2.890  -6.018  -1.009  0.00  0.00    +0.122 C 
ATOM     30  C   UNL     1       1.437  -5.854  -0.551  0.00  0.00    +0.103 C 
ATOM     31  C   UNL     1       4.841  -6.132   0.532  0.00  0.00    +0.099 A 
ATOM     32  C   UNL     1       5.169  -7.375   0.001  0.00  0.00    +0.042 A 
ATOM     33  C   UNL     1       6.238  -8.073   0.534  0.00  0.00    +0.005 A 
ATOM     34  C   UNL     1       6.945  -7.502   1.584  0.00  0.00    +0.018 A 
ATOM     35  C   UNL     1       6.564  -6.265   2.062  0.00  0.00    +0.084 A 
ATOM     36  N   UNL     1       5.543  -5.619   1.531  0.00  0.00    -0.350 N 
ATOM     37  H   UNL     1       5.299  -4.749   1.883  0.00  0.00    +0.166 HD
ENDBRANCH  24  25
ENDBRANCH   5  24
TORSDOF 5
