REMARK  Name = ZINC13941947
REMARK  6 active torsions:
REMARK  status: ('A' for Active; 'I' for Inactive)
REMARK    1  A    between atoms: C_1  and  C_2
REMARK    2  A    between atoms: C_2  and  O_3
REMARK    3  A    between atoms: O_3  and  C_4
REMARK    4  A    between atoms: C_4  and  C_6
REMARK    5  A    between atoms: C_7  and  N_27
REMARK    6  A    between atoms: C_28  and  C_30
REMARK                            x       y       z     vdW  Elec       q    Type
REMARK                         _______ _______ _______ _____ _____    ______ ____
ROOT
ATOM      1  C   UNL     1      -1.726   4.631   2.975  0.00  0.00    +0.112 C 
ATOM      2  C   UNL     1      -1.502   3.338   2.604  0.00  0.00    +0.085 C 
ATOM      3  S   UNL     1      -2.231   2.344   3.895  0.00  0.00    -0.058 S 
ATOM      4  C   UNL     1      -3.252   3.658   4.678  0.00  0.00    +0.205 C 
ATOM      5  C   UNL     1      -2.448   4.888   4.284  0.00  0.00    +0.193 C 
ATOM      6  C   UNL     1      -1.333   5.221   5.285  0.00  0.00    +0.058 C 
ATOM      7  C   UNL     1      -1.788   5.109   6.729  0.00  0.00    +0.005 C 
ATOM      8  C   UNL     1      -2.202   3.654   6.984  0.00  0.00    +0.005 C 
ATOM      9  C   UNL     1      -3.439   3.376   6.143  0.00  0.00    +0.064 C 
ATOM     10  O   UNL     1      -3.252   6.053   4.138  0.00  0.00    -0.471 OA
ATOM     11  C   UNL     1      -4.590   5.992   3.993  0.00  0.00    +0.185 A 
ATOM     12  C   UNL     1      -5.237   4.765   3.912  0.00  0.00    +0.185 A 
ATOM     13  C   UNL     1      -6.610   4.714   3.725  0.00  0.00    +0.106 A 
ATOM     14  C   UNL     1      -7.341   5.886   3.630  0.00  0.00    +0.083 A 
ATOM     15  C   UNL     1      -6.701   7.110   3.723  0.00  0.00    +0.083 A 
ATOM     16  C   UNL     1      -5.330   7.165   3.904  0.00  0.00    +0.106 A 
ATOM     17 CL   UNL     1      -4.533   8.702   4.020  0.00  0.00    -0.078 Cl
ATOM     18 CL   UNL     1      -7.619   8.579   3.612  0.00  0.00    -0.080 Cl
ATOM     19 CL   UNL     1      -9.060   5.821   3.396  0.00  0.00    -0.080 Cl
ATOM     20 CL   UNL     1      -7.413   3.180   3.610  0.00  0.00    -0.078 Cl
ATOM     21  O   UNL     1      -4.521   3.623   4.018  0.00  0.00    -0.465 OA
ENDROOT
BRANCH   2  22
ATOM     22  N   UNL     1      -0.857   2.894   1.470  0.00  0.00    -0.280 N 
ATOM     23  C   UNL     1      -0.718   1.572   1.248  0.00  0.00    +0.214 C 
ATOM     24  O   UNL     1      -1.161   0.773   2.046  0.00  0.00    -0.276 OA
ATOM     25  C   UNL     1      -0.013   1.086   0.008  0.00  0.00    +0.109 C 
ATOM     26  H   UNL     1      -0.503   3.533   0.831  0.00  0.00    +0.155 HD
ENDBRANCH   2  22
BRANCH   1  27
ATOM     27  C   UNL     1      -1.300   5.694   2.168  0.00  0.00    +0.341 C 
ATOM     28  O   UNL     1      -0.721   5.470   1.119  0.00  0.00    -0.245 OA
BRANCH  27  29
ATOM     29  O   UNL     1      -1.530   6.968   2.553  0.00  0.00    -0.462 OA
BRANCH  29  31
ATOM     30  C   UNL     1      -1.418   9.367   2.279  0.00  0.00    +0.048 C 
ATOM     31  C   UNL     1      -1.069   8.003   1.681  0.00  0.00    +0.229 C 
ENDBRANCH  29  31
ENDBRANCH  27  29
ENDBRANCH   1  27
TORSDOF 4
