REMARK  Name = ZINC47041347
REMARK  4 active torsions:
REMARK  status: ('A' for Active; 'I' for Inactive)
REMARK    1  A    between atoms: C_3  and  N_13
REMARK    2  A    between atoms: C_5  and  N_7
REMARK    3  A    between atoms: C_14  and  C_16
REMARK    4  A    between atoms: C_17  and  C_18
REMARK                            x       y       z     vdW  Elec       q    Type
REMARK                         _______ _______ _______ _____ _____    ______ ____
ROOT
ATOM      1  N   UNL     1       3.627   2.224   0.745  0.00  0.00    -0.282 N 
ATOM      2  C   UNL     1       3.640   3.526   0.394  0.00  0.00    +0.241 C 
ATOM      3  O   UNL     1       2.665   4.223   0.610  0.00  0.00    -0.270 OA
ATOM      4  H   UNL     1       4.426   1.685   0.635  0.00  0.00    +0.155 HD
ENDROOT
BRANCH   1   7
ATOM      5  C   UNL     1       0.476   1.837   2.601  0.00  0.00    +0.004 A 
ATOM      6  C   UNL     1       1.627   2.401   2.085  0.00  0.00    +0.023 A 
ATOM      7  C   UNL     1       2.463   1.652   1.267  0.00  0.00    +0.035 A 
ATOM      8  C   UNL     1       2.142   0.335   0.969  0.00  0.00    +0.047 A 
ATOM      9  C   UNL     1       0.986  -0.229   1.488  0.00  0.00    +0.040 A 
ATOM     10  C   UNL     1       0.154   0.526   2.305  0.00  0.00    +0.024 A 
BRANCH   9  11
ATOM     11  N   UNL     1       0.659  -1.556   1.190  0.00  0.00    -0.254 N 
ATOM     12  C   UNL     1      -0.592  -2.231   1.567  0.00  0.00    +0.134 C 
ATOM     13  C   UNL     1      -0.431  -3.653   0.997  0.00  0.00    +0.125 C 
ATOM     14  N   UNL     1       0.893  -3.629   0.358  0.00  0.00    -0.297 N 
ATOM     15  C   UNL     1       1.432  -2.412   0.509  0.00  0.00    +0.307 C 
ATOM     16  O   UNL     1       2.526  -2.112   0.071  0.00  0.00    -0.252 OA
ATOM     17  H   UNL     1       1.309  -4.375  -0.102  0.00  0.00    +0.150 HD
ENDBRANCH   9  11
ENDBRANCH   1   7
BRANCH   2  18
ATOM     18  C   UNL     1       4.785   4.081  -0.224  0.00  0.00    +0.068 C 
ATOM     19  C   UNL     1       4.760   5.361  -0.675  0.00  0.00    +0.012 C 
BRANCH  19  20
ATOM     20  C   UNL     1       3.555   6.094  -0.649  0.00  0.00    -0.010 C 
ATOM     21  C   UNL     1       3.435   7.184   0.157  0.00  0.00    +0.018 C 
ATOM     22  C   UNL     1       2.150   7.897   0.159  0.00  0.00    +0.018 A 
ATOM     23  C   UNL     1       2.034   9.187   0.678  0.00  0.00    +0.031 A 
ATOM     24  C   UNL     1       0.807   9.820   0.659  0.00  0.00    +0.042 A 
ATOM     25  C   UNL     1      -0.303   9.180   0.128  0.00  0.00    +0.023 A 
ATOM     26  C   UNL     1      -0.198   7.902  -0.390  0.00  0.00    +0.048 A 
ATOM     27  C   UNL     1       1.022   7.252  -0.380  0.00  0.00    +0.128 A 
ATOM     28  O   UNL     1       1.157   5.998  -0.880  0.00  0.00    -0.487 OA
ATOM     29  C   UNL     1       2.397   5.679  -1.519  0.00  0.00    +0.264 C 
ATOM     30 CL   UNL     1       0.653  11.424   1.304  0.00  0.00    -0.084 Cl
ENDBRANCH  19  20
ENDBRANCH   2  18
TORSDOF 4
