REMARK  Name = ZINC35104920
REMARK  12 active torsions:
REMARK  status: ('A' for Active; 'I' for Inactive)
REMARK    1  A    between atoms: C_1  and  C_2
REMARK    2  A    between atoms: C_2  and  C_3
REMARK    3  A    between atoms: C_3  and  C_4
REMARK    4  A    between atoms: C_4  and  N_5
REMARK    5  A    between atoms: C_6  and  C_37
REMARK    6  A    between atoms: C_7  and  C_32
REMARK    7  A    between atoms: C_8  and  C_13
REMARK    8  A    between atoms: C_16  and  N_19
REMARK    9  A    between atoms: C_20  and  C_22
REMARK   10  A    between atoms: C_32  and  O_34
REMARK   11  A    between atoms: O_34  and  C_35
REMARK   12  A    between atoms: C_35  and  C_36
REMARK                            x       y       z     vdW  Elec       q    Type
REMARK                         _______ _______ _______ _____ _____    ______ ____
ROOT
ATOM      1  C   UNL     1       3.198  -2.485  -6.086  0.00  0.00    -0.022 A 
ATOM      2  C   UNL     1       3.236  -1.113  -5.914  0.00  0.00    +0.007 A 
ATOM      3  C   UNL     1       3.676  -0.299  -6.940  0.00  0.00    +0.023 A 
ATOM      4  C   UNL     1       4.080  -0.860  -8.145  0.00  0.00    +0.033 A 
ATOM      5  C   UNL     1       4.041  -2.238  -8.314  0.00  0.00    +0.023 A 
ATOM      6  C   UNL     1       3.605  -3.046  -7.282  0.00  0.00    +0.007 A 
ENDROOT
BRANCH   1  10
ATOM      7  N   UNL     1       1.286  -2.553  -2.744  0.00  0.00    -0.259 N 
ATOM      8  C   UNL     1       0.577  -2.937  -3.846  0.00  0.00    +0.024 C 
ATOM      9  C   UNL     1       1.203  -3.349  -4.969  0.00  0.00    +0.078 C 
ATOM     10  C   UNL     1       2.718  -3.370  -4.965  0.00  0.00    +0.143 C 
ATOM     11  N   UNL     1       3.387  -2.936  -3.727  0.00  0.00    -0.288 N 
ATOM     12  C   UNL     1       2.623  -2.547  -2.687  0.00  0.00    +0.307 C 
ATOM     13  O   UNL     1       3.166  -2.184  -1.662  0.00  0.00    -0.252 OA
ATOM     14  C   UNL     1      -0.930  -2.902  -3.808  0.00  0.00    +0.061 C 
ATOM     15  H   UNL     1       4.355  -2.927  -3.662  0.00  0.00    +0.151 HD
BRANCH   9  16
ATOM     16  C   UNL     1       0.470  -3.748  -6.111  0.00  0.00    +0.339 C 
ATOM     17  O   UNL     1      -0.747  -3.724  -6.093  0.00  0.00    -0.245 OA
BRANCH  16  18
ATOM     18  O   UNL     1       1.119  -4.155  -7.222  0.00  0.00    -0.462 OA
BRANCH  18  19
ATOM     19  C   UNL     1       0.316  -4.544  -8.338  0.00  0.00    +0.229 C 
ATOM     20  C   UNL     1       1.222  -4.972  -9.494  0.00  0.00    +0.048 C 
ENDBRANCH  18  19
ENDBRANCH  16  18
ENDBRANCH   9  16
BRANCH   7  21
ATOM     21  C   UNL     1       0.541  -2.118  -1.560  0.00  0.00    +0.115 C 
BRANCH  21  22
ATOM     22  C   UNL     1       0.137  -3.341  -0.733  0.00  0.00    +0.019 C 
BRANCH  22  24
ATOM     23  C   UNL     1      -1.044  -4.109   1.330  0.00  0.00    +0.004 C 
ATOM     24  C   UNL     1      -0.640  -2.886   0.503  0.00  0.00    -0.002 C 
ENDBRANCH  22  24
ENDBRANCH  21  22
ENDBRANCH   7  21
ENDBRANCH   1  10
BRANCH   4  25
ATOM     25  N   UNL     1       4.526  -0.038  -9.186  0.00  0.00    -0.285 N 
ATOM     26  C   UNL     1       5.224   1.081  -8.910  0.00  0.00    +0.223 C 
ATOM     27  O   UNL     1       5.398   1.418  -7.758  0.00  0.00    -0.275 OA
ATOM     28  H   UNL     1       4.332  -0.274 -10.107  0.00  0.00    +0.155 HD
BRANCH  26  29
ATOM     29  C   UNL     1       5.787   1.914 -10.032  0.00  0.00    +0.048 C 
ATOM     30  C   UNL     1       6.758   1.067 -10.858  0.00  0.00    +0.019 C 
ATOM     31  C   UNL     1       7.330   1.913 -11.997  0.00  0.00    -0.009 C 
ATOM     32  C   UNL     1       8.072   3.118 -11.415  0.00  0.00    +0.007 C 
ATOM     33  C   UNL     1       7.101   3.964 -10.590  0.00  0.00    -0.009 C 
ATOM     34  C   UNL     1       6.529   3.119  -9.450  0.00  0.00    +0.019 C 
ATOM     35  C   UNL     1       5.961   4.452 -11.486  0.00  0.00    +0.007 C 
ATOM     36  C   UNL     1       5.219   3.247 -12.067  0.00  0.00    -0.009 C 
ATOM     37  C   UNL     1       6.189   2.400 -12.893  0.00  0.00    +0.007 C 
ATOM     38  C   UNL     1       4.647   2.401 -10.928  0.00  0.00    +0.019 C 
ENDBRANCH  26  29
ENDBRANCH   4  25
TORSDOF 9
