REMARK  Name = ZINC63361875
REMARK  6 active torsions:
REMARK  status: ('A' for Active; 'I' for Inactive)
REMARK    1  A    between atoms: C_1  and  C_2
REMARK    2  A    between atoms: C_8  and  O_13
REMARK    3  A    between atoms: O_13  and  C_14
REMARK    4  A    between atoms: N_20  and  C_23
REMARK    5  A    between atoms: C_28  and  C_29
REMARK    6  A    between atoms: N_31  and  C_32
REMARK                            x       y       z     vdW  Elec       q    Type
REMARK                         _______ _______ _______ _____ _____    ______ ____
ROOT
ATOM      1  C   UNL     1       0.486   1.933  -0.871  0.00  0.00    +0.044 C 
ATOM      2  C   UNL     1       0.564   0.406  -0.838  0.00  0.00    +0.137 C 
ATOM      3  C   UNL     1       1.299  -0.140  -2.062  0.00  0.00    +0.139 C 
ATOM      4  C   UNL     1       2.452  -0.993  -1.553  0.00  0.00    -0.034 C 
ATOM      5  C   UNL     1       2.295  -2.196  -2.098  0.00  0.00    +0.003 A 
ATOM      6  C   UNL     1       3.113  -3.416  -2.033  0.00  0.00    +0.055 A 
ATOM      7  C   UNL     1       2.647  -4.500  -2.712  0.00  0.00    +0.121 A 
ATOM      8  C   UNL     1       1.456  -4.509  -3.452  0.00  0.00    +0.047 A 
ATOM      9  C   UNL     1       0.628  -3.441  -3.582  0.00  0.00    +0.029 A 
ATOM     10  C   UNL     1       1.029  -2.205  -2.894  0.00  0.00    +0.043 A 
ATOM     11  N   UNL     1       0.447  -1.027  -2.857  0.00  0.00    -0.375 N 
ATOM     12  C   UNL     1       3.482  -0.502  -0.565  0.00  0.00    +0.052 C 
ATOM     13  C   UNL     1       2.709   0.099   0.626  0.00  0.00    +0.115 C 
ATOM     14  N   UNL     1       1.277  -0.073   0.364  0.00  0.00    -0.268 N 
ATOM     15  C   UNL     1       0.369  -0.702   1.124  0.00  0.00    +0.317 C 
ATOM     16  O   UNL     1       0.595  -1.119   2.243  0.00  0.00    -0.252 OA
ATOM     17  N   UNL     1      -0.815  -0.817   0.508  0.00  0.00    -0.192 N 
ATOM     18  C   UNL     1      -0.809  -0.214  -0.699  0.00  0.00    +0.253 C 
ATOM     19  O   UNL     1      -1.715  -0.177  -1.503  0.00  0.00    -0.272 OA
ATOM     20  H   UNL     1      -0.395  -0.783  -3.273  0.00  0.00    +0.160 HD
ENDROOT
BRANCH  17  21
ATOM     21  C   UNL     1      -1.919  -1.479   1.049  0.00  0.00    +0.058 A 
ATOM     22  C   UNL     1      -2.061  -2.849   0.884  0.00  0.00    +0.025 A 
ATOM     23  C   UNL     1      -3.153  -3.502   1.419  0.00  0.00    +0.002 A 
ATOM     24  C   UNL     1      -4.115  -2.797   2.124  0.00  0.00    +0.001 A 
ATOM     25  C   UNL     1      -3.991  -1.435   2.298  0.00  0.00    +0.015 A 
ATOM     26  C   UNL     1      -2.888  -0.763   1.766  0.00  0.00    +0.059 A 
BRANCH  26  27
ATOM     27  C   UNL     1      -2.746   0.694   1.954  0.00  0.00    +0.246 C 
ATOM     28  O   UNL     1      -1.737   1.260   1.579  0.00  0.00    -0.270 OA
ATOM     29  N   UNL     1      -3.735   1.398   2.540  0.00  0.00    -0.308 N 
ATOM     30  H   UNL     1      -4.507   0.938   2.905  0.00  0.00    +0.149 HD
BRANCH  29  31
ATOM     31  C   UNL     1      -3.644   2.857   2.625  0.00  0.00    +0.073 C 
ATOM     32  C   UNL     1      -2.806   3.264   3.855  0.00  0.00    +0.022 C 
ATOM     33  C   UNL     1      -3.509   4.536   4.391  0.00  0.00    +0.002 C 
ATOM     34  C   UNL     1      -5.008   4.214   4.176  0.00  0.00    +0.002 C 
ATOM     35  C   UNL     1      -5.045   3.462   2.829  0.00  0.00    +0.022 C 
ENDBRANCH  29  31
ENDBRANCH  26  27
ENDBRANCH  17  21
BRANCH   7  36
ATOM     36  O   UNL     1       3.382  -5.643  -2.671  0.00  0.00    -0.495 OA
ATOM     37  C   UNL     1       2.815  -6.801  -3.287  0.00  0.00    +0.277 C 
ENDBRANCH   7  36
TORSDOF 4
