REMARK  Name = ZINC58436522
REMARK  8 active torsions:
REMARK  status: ('A' for Active; 'I' for Inactive)
REMARK    1  A    between atoms: C_1  and  C_2
REMARK    2  A    between atoms: C_2  and  C_4
REMARK    3  A    between atoms: C_2  and  N_13
REMARK    4  A    between atoms: C_7  and  C_10
REMARK    5  A    between atoms: C_10  and  C_11
REMARK    6  A    between atoms: C_10  and  C_12
REMARK    7  A    between atoms: N_16  and  C_17
REMARK    8  A    between atoms: C_17  and  C_18
REMARK                            x       y       z     vdW  Elec       q    Type
REMARK                         _______ _______ _______ _____ _____    ______ ____
ROOT
ATOM      1  N   UNL     1       0.711  -0.489   1.189  0.00  0.00    -0.293 N 
ATOM      2  C   UNL     1       0.051  -0.633   2.355  0.00  0.00    +0.300 C 
ATOM      3  O   UNL     1      -1.132  -0.361   2.423  0.00  0.00    -0.253 OA
ATOM      4  N   UNL     1       0.703  -1.080   3.447  0.00  0.00    -0.296 N 
ATOM      5  H   UNL     1       1.654  -0.707   1.135  0.00  0.00    +0.151 HD
ATOM      6  H   UNL     1       1.647  -1.298   3.394  0.00  0.00    +0.150 HD
ENDROOT
BRANCH   1   8
ATOM      7  C   UNL     1      -0.019   1.526   0.010  0.00  0.00    +0.033 C 
ATOM      8  C   UNL     1       0.002  -0.004   0.002  0.00  0.00    +0.102 C 
BRANCH   8   9
ATOM      9  C   UNL     1       0.707  -0.490  -1.238  0.00  0.00    -0.027 A 
ATOM     10  C   UNL     1       2.089  -0.511  -1.284  0.00  0.00    +0.006 A 
ATOM     11  C   UNL     1       2.736  -0.957  -2.421  0.00  0.00    +0.004 A 
ATOM     12  C   UNL     1       2.002  -1.382  -3.512  0.00  0.00    -0.045 A 
ATOM     13  C   UNL     1       0.620  -1.362  -3.466  0.00  0.00    +0.004 A 
ATOM     14  C   UNL     1      -0.027  -0.920  -2.327  0.00  0.00    +0.006 A 
BRANCH  12  15
ATOM     15  C   UNL     1       2.707  -1.867  -4.753  0.00  0.00    +0.013 C 
ATOM     16  C   UNL     1       2.307  -3.317  -5.032  0.00  0.00    +0.012 C 
ATOM     17  C   UNL     1       2.309  -0.990  -5.941  0.00  0.00    +0.012 C 
ENDBRANCH  12  15
ENDBRANCH   8   9
ENDBRANCH   1   8
BRANCH   4  18
ATOM     18  C   UNL     1      -0.014  -1.237   4.715  0.00  0.00    +0.153 C 
BRANCH  18  19
ATOM     19  C   UNL     1       0.950  -1.754   5.785  0.00  0.00    +0.228 C 
ATOM     20  C   UNL     1       0.182  -2.025   7.086  0.00  0.00    +0.275 C 
ATOM     21  O   UNL     1       1.113  -2.493   8.068  0.00  0.00    -0.485 OA
ATOM     22  C   UNL     1       2.279  -1.800   8.184  0.00  0.00    +0.162 A 
ATOM     23  C   UNL     1       3.053  -1.956   9.324  0.00  0.00    +0.049 A 
ATOM     24  C   UNL     1       4.240  -1.262   9.456  0.00  0.00    +0.004 A 
ATOM     25  C   UNL     1       4.660  -0.410   8.451  0.00  0.00    +0.004 A 
ATOM     26  C   UNL     1       3.893  -0.248   7.313  0.00  0.00    +0.049 A 
ATOM     27  C   UNL     1       2.699  -0.941   7.176  0.00  0.00    +0.163 A 
ATOM     28  O   UNL     1       1.951  -0.765   6.052  0.00  0.00    -0.480 OA
ENDBRANCH  18  19
ENDBRANCH   4  18
TORSDOF 5
