REMARK  Name = ZINC48374309
REMARK  4 active torsions:
REMARK  status: ('A' for Active; 'I' for Inactive)
REMARK    1  A    between atoms: C_1  and  C_2
REMARK    2  A    between atoms: C_2  and  C_4
REMARK    3  A    between atoms: C_2  and  N_13
REMARK    4  A    between atoms: C_14  and  C_16
REMARK                            x       y       z     vdW  Elec       q    Type
REMARK                         _______ _______ _______ _____ _____    ______ ____
ROOT
ATOM      1  N   UNL     1       0.688  -0.476  -1.203  0.00  0.00    -0.302 N 
ATOM      2  C   UNL     1       0.006  -0.608  -2.358  0.00  0.00    +0.245 C 
ATOM      3  O   UNL     1      -1.177  -0.335  -2.400  0.00  0.00    -0.270 OA
ATOM      4  H   UNL     1       1.632  -0.695  -1.170  0.00  0.00    +0.150 HD
ENDROOT
BRANCH   2   5
ATOM      5  C   UNL     1       0.698  -1.085  -3.575  0.00  0.00    +0.037 A 
ATOM      6  C   UNL     1       2.056  -1.406  -3.532  0.00  0.00    +0.013 A 
ATOM      7  C   UNL     1       2.688  -1.846  -4.673  0.00  0.00    +0.004 A 
ATOM      8  C   UNL     1       1.988  -1.976  -5.868  0.00  0.00    -0.044 A 
ATOM      9  C   UNL     1       0.646  -1.665  -5.916  0.00  0.00    -0.043 A 
ATOM     10  C   UNL     1      -0.001  -1.223  -4.772  0.00  0.00    +0.017 A 
ATOM     11  C   UNL     1      -0.173  -1.800  -7.173  0.00  0.00    +0.035 C 
ATOM     12  C   UNL     1       0.734  -1.876  -8.399  0.00  0.00    +0.005 C 
ATOM     13  C   UNL     1       1.792  -2.958  -8.152  0.00  0.00    +0.005 C 
ATOM     14  C   UNL     1       2.751  -2.456  -7.075  0.00  0.00    +0.035 C 
ENDBRANCH   2   5
BRANCH   1  16
ATOM     15  C   UNL     1      -0.019   1.526   0.010  0.00  0.00    +0.036 C 
ATOM     16  C   UNL     1       0.002  -0.004   0.002  0.00  0.00    +0.139 C 
BRANCH  16  17
ATOM     17  C   UNL     1       0.731  -0.503   1.223  0.00  0.00    +0.158 A 
ATOM     18  N   UNL     1       2.025  -0.482   1.414  0.00  0.00    -0.132 NA
ATOM     19  N   UNL     1       2.315  -0.984   2.562  0.00  0.00    -0.129 NA
ATOM     20  C   UNL     1       1.203  -1.359   3.174  0.00  0.00    +0.161 A 
ATOM     21  N   UNL     1       0.163  -1.053   2.330  0.00  0.00    -0.285 N 
ATOM     22  C   UNL     1      -1.124  -1.321   2.694  0.00  0.00    +0.094 A 
ATOM     23  C   UNL     1      -1.395  -1.887   3.889  0.00  0.00    +0.018 A 
ATOM     24  C   UNL     1      -0.352  -2.208   4.775  0.00  0.00    +0.005 A 
ATOM     25  C   UNL     1       0.937  -1.954   4.422  0.00  0.00    +0.048 A 
ENDBRANCH  16  17
ENDBRANCH   1  16
TORSDOF 3
