REMARK  Name = ZINC39935949
REMARK  12 active torsions:
REMARK  status: ('A' for Active; 'I' for Inactive)
REMARK    1  A    between atoms: C_1  and  C_2
REMARK    2  A    between atoms: C_2  and  C_3
REMARK    3  A    between atoms: C_3  and  C_5
REMARK    4  A    between atoms: C_3  and  N_33
REMARK    5  A    between atoms: C_9  and  S_18
REMARK    6  A    between atoms: N_10  and  C_11
REMARK    7  A    between atoms: C_11  and  C_12
REMARK    8  A    between atoms: S_18  and  C_19
REMARK    9  A    between atoms: C_19  and  C_20
REMARK   10  A    between atoms: C_20  and  C_22
REMARK   11  A    between atoms: N_33  and  C_34
REMARK   12  A    between atoms: N_33  and  C_35
REMARK                            x       y       z     vdW  Elec       q    Type
REMARK                         _______ _______ _______ _____ _____    ______ ____
ROOT
ATOM      1  C   UNL     1      -0.015  -1.041  -1.586  0.00  0.00    +0.164 C 
ATOM      2  N   UNL     1       0.737  -1.477  -2.775  0.00  0.00    -0.248 N 
ATOM      3  N   UNL     1       1.430  -2.633  -2.396  0.00  0.00    -0.163 NA
ATOM      4  C   UNL     1       1.198  -2.941  -1.165  0.00  0.00    +0.176 C 
ATOM      5  N   UNL     1       0.326  -2.042  -0.561  0.00  0.00    -0.286 N 
ATOM      6  H   UNL     1       0.749  -1.049  -3.646  0.00  0.00    +0.170 HD
ENDROOT
BRANCH   1   7
ATOM      7  C   UNL     1       0.437   0.353  -1.146  0.00  0.00    -0.029 C 
BRANCH   7   8
ATOM      8  N   UNL     1       1.904   0.397  -1.088  0.00  0.00    +0.380 N 
ATOM      9  C   UNL     1       2.380  -0.512  -0.037  0.00  0.00    -0.096 C 
ATOM     10  C   UNL     1       2.457  -0.021  -2.383  0.00  0.00    -0.096 C 
ATOM     11  H   UNL     1       2.204   1.337  -0.881  0.00  0.00    -0.082 HD
ENDBRANCH   7   8
BRANCH   7  13
ATOM     12  C   UNL     1       0.287   2.795  -1.651  0.00  0.00    +0.002 C 
ATOM     13  C   UNL     1      -0.066   1.393  -2.150  0.00  0.00    -0.015 C 
ENDBRANCH   7  13
ENDBRANCH   1   7
BRANCH   5  14
ATOM     14  C   UNL     1      -0.159  -2.081   0.821  0.00  0.00    +0.144 C 
BRANCH  14  15
ATOM     15  C   UNL     1      -1.399  -2.934   0.895  0.00  0.00    -0.030 A 
ATOM     16  C   UNL     1      -2.644  -2.360   0.713  0.00  0.00    +0.005 A 
ATOM     17  C   UNL     1      -3.782  -3.143   0.781  0.00  0.00    +0.000 A 
ATOM     18  C   UNL     1      -3.675  -4.498   1.030  0.00  0.00    +0.000 A 
ATOM     19  C   UNL     1      -2.430  -5.072   1.211  0.00  0.00    +0.000 A 
ATOM     20  C   UNL     1      -1.292  -4.290   1.139  0.00  0.00    +0.005 A 
ENDBRANCH  14  15
ENDBRANCH   5  14
BRANCH   4  21
ATOM     21  S   UNL     1       1.899  -4.335  -0.347  0.00  0.00    -0.081 S 
BRANCH  21  22
ATOM     22  C   UNL     1       2.931  -5.116  -1.618  0.00  0.00    +0.156 C 
BRANCH  22  23
ATOM     23  C   UNL     1       3.599  -6.338  -1.042  0.00  0.00    +0.173 C 
ATOM     24  O   UNL     1       3.398  -6.651   0.113  0.00  0.00    -0.291 OA
BRANCH  23  25
ATOM     25  C   UNL     1       4.492  -7.150  -1.878  0.00  0.00    +0.022 A 
ATOM     26  C   UNL     1       4.729  -6.786  -3.210  0.00  0.00    +0.013 A 
ATOM     27  C   UNL     1       5.559  -7.539  -3.990  0.00  0.00    +0.030 A 
ATOM     28  C   UNL     1       6.173  -8.671  -3.467  0.00  0.00    +0.087 A 
ATOM     29  C   UNL     1       5.946  -9.046  -2.140  0.00  0.00    +0.157 A 
ATOM     30  C   UNL     1       5.112  -8.285  -1.344  0.00  0.00    +0.060 A 
ATOM     31  O   UNL     1       6.666 -10.172  -1.912  0.00  0.00    -0.408 OA
ATOM     32  C   UNL     1       7.323 -10.507  -3.034  0.00  0.00    +0.419 A 
ATOM     33  O   UNL     1       8.056 -11.469  -3.158  0.00  0.00    -0.223 OA
ATOM     34  N   UNL     1       7.045  -9.611  -4.002  0.00  0.00    -0.288 N 
ATOM     35  H   UNL     1       7.390  -9.622  -4.908  0.00  0.00    +0.172 HD
ENDBRANCH  23  25
ENDBRANCH  22  23
ENDBRANCH  21  22
ENDBRANCH   4  21
TORSDOF 9
