REMARK  Name = ZINC66598950
REMARK  8 active torsions:
REMARK  status: ('A' for Active; 'I' for Inactive)
REMARK    1  A    between atoms: C_1  and  C_2
REMARK    2  A    between atoms: C_10  and  C_11
REMARK    3  A    between atoms: C_11  and  C_13
REMARK    4  A    between atoms: C_11  and  N_14
REMARK    5  A    between atoms: N_17  and  C_18
REMARK    6  A    between atoms: N_17  and  C_19
REMARK    7  A    between atoms: C_19  and  C_20
REMARK    8  A    between atoms: C_21  and  C_25
REMARK                            x       y       z     vdW  Elec       q    Type
REMARK                         _______ _______ _______ _____ _____    ______ ____
ROOT
ATOM      1  C   UNL     1      -0.482  -1.154   2.164  0.00  0.00    +0.138 C 
ATOM      2  C   UNL     1       0.947  -1.487   2.597  0.00  0.00    +0.036 C 
ENDROOT
BRANCH   1  12
ATOM      3  C   UNL     1      -0.608   0.439  -0.501  0.00  0.00    +0.048 C 
ATOM      4  C   UNL     1      -0.797  -1.047  -0.340  0.00  0.00    +0.000 A 
ATOM      5  C   UNL     1      -1.069  -2.022  -1.403  0.00  0.00    +0.026 A 
ATOM      6  C   UNL     1      -1.232  -1.935  -2.785  0.00  0.00    +0.050 A 
ATOM      7  C   UNL     1      -1.486  -3.079  -3.514  0.00  0.00    +0.124 A 
ATOM      8  C   UNL     1      -1.578  -4.309  -2.874  0.00  0.00    +0.042 A 
ATOM      9  C   UNL     1      -1.420  -4.405  -1.509  0.00  0.00    +0.049 A 
ATOM     10  C   UNL     1      -1.163  -3.265  -0.757  0.00  0.00    +0.136 A 
ATOM     11  O   UNL     1      -0.966  -3.049   0.559  0.00  0.00    -0.458 OA
ATOM     12  C   UNL     1      -0.746  -1.745   0.803  0.00  0.00    +0.129 A 
ATOM     13  F   UNL     1      -1.645  -3.002  -4.853  0.00  0.00    -0.205 F 
ENDBRANCH   1  12
BRANCH   1  14
ATOM     14  N   UNL     1      -1.429  -1.715   3.131  0.00  0.00    -0.290 N 
ATOM     15  C   UNL     1      -1.743  -1.024   4.245  0.00  0.00    +0.303 C 
ATOM     16  O   UNL     1      -1.241   0.065   4.447  0.00  0.00    -0.253 OA
ATOM     17  N   UNL     1      -2.614  -1.540   5.135  0.00  0.00    -0.284 N 
ATOM     18  C   UNL     1      -3.220  -2.852   4.891  0.00  0.00    +0.134 C 
ATOM     19  H   UNL     1      -1.830  -2.583   2.970  0.00  0.00    +0.151 HD
BRANCH  17  20
ATOM     20  C   UNL     1      -2.956  -0.789   6.345  0.00  0.00    +0.153 C 
BRANCH  20  21
ATOM     21  C   UNL     1      -4.229  -0.015   6.114  0.00  0.00    +0.029 A 
ATOM     22  C   UNL     1      -4.401   1.278   5.741  0.00  0.00    +0.050 A 
ATOM     23  N   UNL     1      -5.643   1.702   5.611  0.00  0.00    -0.252 NA
ATOM     24  C   UNL     1      -6.660   0.908   5.833  0.00  0.00    +0.156 A 
ATOM     25  S   UNL     1      -5.927  -0.549   6.248  0.00  0.00    -0.079 S 
ATOM     26  C   UNL     1      -3.227   2.189   5.487  0.00  0.00    +0.066 C 
ENDBRANCH  20  21
ENDBRANCH  17  20
ENDBRANCH   1  14
TORSDOF 4
