REMARK  Name = ZINC36750548
REMARK  11 active torsions:
REMARK  status: ('A' for Active; 'I' for Inactive)
REMARK    1  A    between atoms: C_1  and  C_2
REMARK    2  A    between atoms: C_3  and  C_35
REMARK    3  A    between atoms: C_11  and  C_13
REMARK    4  A    between atoms: C_13  and  S_14
REMARK    5  A    between atoms: S_14  and  C_15
REMARK    6  A    between atoms: C_15  and  C_17
REMARK    7  A    between atoms: C_15  and  C_18
REMARK    8  A    between atoms: N_20  and  C_21
REMARK    9  A    between atoms: C_21  and  C_22
REMARK   10  A    between atoms: C_22  and  C_24
REMARK   11  A    between atoms: C_22  and  N_30
REMARK                            x       y       z     vdW  Elec       q    Type
REMARK                         _______ _______ _______ _____ _____    ______ ____
ROOT
ATOM      1  C   UNL     1       0.389  -7.549   5.089  0.00  0.00    +0.226 C 
ATOM      2  O   UNL     1       0.250  -7.870   3.928  0.00  0.00    -0.275 OA
ATOM      3  N   UNL     1       0.753  -8.470   6.004  0.00  0.00    -0.316 N 
ATOM      4  H   UNL     1       0.864  -8.213   6.933  0.00  0.00    +0.149 HD
ENDROOT
BRANCH   1   5
ATOM      5  C   UNL     1       0.153  -6.122   5.510  0.00  0.00    +0.129 C 
ATOM      6  C   UNL     1      -1.238  -5.997   6.134  0.00  0.00    +0.029 C 
BRANCH   5   7
ATOM      7  S   UNL     1       0.265  -5.038   4.059  0.00  0.00    -0.141 S 
BRANCH   7   8
ATOM      8  C   UNL     1       0.113  -3.366   4.748  0.00  0.00    +0.144 C 
BRANCH   8  19
ATOM      9  C   UNL     1       0.353   1.794   0.475  0.00  0.00    +0.045 C 
ATOM     10  C   UNL     1       0.429   0.291   0.396  0.00  0.00    -0.026 A 
ATOM     11  C   UNL     1       0.593  -0.319  -0.789  0.00  0.00    -0.008 A 
ATOM     12  S   UNL     1       0.622  -2.050  -0.361  0.00  0.00    -0.073 S 
ATOM     13  C   UNL     1       0.414  -1.902   1.395  0.00  0.00    +0.116 A 
ATOM     14  C   UNL     1       0.333  -0.513   1.600  0.00  0.00    +0.075 A 
ATOM     15  C   UNL     1       0.164  -0.096   2.960  0.00  0.00    +0.260 A 
ATOM     16  O   UNL     1       0.079   1.087   3.239  0.00  0.00    -0.267 OA
ATOM     17  N   UNL     1       0.099  -1.032   3.925  0.00  0.00    -0.310 N 
ATOM     18  H   UNL     1      -0.015  -0.756   4.848  0.00  0.00    +0.170 HD
ATOM     19  C   UNL     1       0.191  -2.355   3.633  0.00  0.00    +0.121 A 
ATOM     20  N   UNL     1       0.337  -2.767   2.402  0.00  0.00    -0.226 NA
ATOM     21  C   UNL     1       0.721   0.308  -2.153  0.00  0.00    +0.052 C 
ENDBRANCH   8  19
ENDBRANCH   7   8
ENDBRANCH   5   7
ENDBRANCH   1   5
BRANCH   3  22
ATOM     22  C   UNL     1       0.982  -9.858   5.595  0.00  0.00    +0.093 C 
BRANCH  22  23
ATOM     23  C   UNL     1       1.485 -10.666   6.793  0.00  0.00    -0.020 C 
BRANCH  23  24
ATOM     24  C   UNL     1       0.400 -10.745   7.837  0.00  0.00    -0.059 A 
ATOM     25  C   UNL     1      -0.625 -11.661   7.700  0.00  0.00    +0.002 A 
ATOM     26  C   UNL     1      -1.620 -11.733   8.657  0.00  0.00    +0.000 A 
ATOM     27  C   UNL     1      -1.589 -10.889   9.751  0.00  0.00    +0.000 A 
ATOM     28  C   UNL     1      -0.562  -9.973   9.889  0.00  0.00    +0.000 A 
ATOM     29  C   UNL     1       0.435  -9.904   8.934  0.00  0.00    +0.002 A 
ENDBRANCH  23  24
BRANCH  23  30
ATOM     30  N   UNL     1       1.841 -12.022   6.354  0.00  0.00    +0.385 N 
ATOM     31  C   UNL     1       2.960 -11.967   5.379  0.00  0.00    -0.078 C 
ATOM     32  C   UNL     1       3.569 -13.389   5.457  0.00  0.00    -0.020 C 
ATOM     33  C   UNL     1       3.454 -13.732   6.960  0.00  0.00    -0.020 C 
ATOM     34  C   UNL     1       2.343 -12.813   7.499  0.00  0.00    -0.078 C 
ATOM     35  H   UNL     1       1.040 -12.476   5.942  0.00  0.00    -0.081 HD
ENDBRANCH  23  30
ENDBRANCH  22  23
ENDBRANCH   3  22
TORSDOF 8
