REMARK  Name = ZINC24769470
REMARK  12 active torsions:
REMARK  status: ('A' for Active; 'I' for Inactive)
REMARK    1  A    between atoms: C_1  and  C_2
REMARK    2  A    between atoms: C_3  and  C_32
REMARK    3  A    between atoms: C_4  and  C_20
REMARK    4  A    between atoms: N_9  and  C_10
REMARK    5  A    between atoms: C_23  and  O_30
REMARK    6  A    between atoms: C_24  and  O_28
REMARK    7  A    between atoms: C_25  and  O_26
REMARK    8  A    between atoms: O_26  and  C_27
REMARK    9  A    between atoms: O_28  and  C_29
REMARK   10  A    between atoms: O_30  and  C_31
REMARK   11  A    between atoms: C_32  and  O_34
REMARK   12  A    between atoms: O_34  and  C_35
REMARK                            x       y       z     vdW  Elec       q    Type
REMARK                         _______ _______ _______ _____ _____    ______ ____
ROOT
ATOM      1  C   UNL     1       2.509  -3.864  -0.153  0.00  0.00    +0.062 C 
ATOM      2  C   UNL     1       3.697  -2.938  -0.103  0.00  0.00    +0.027 C 
ATOM      3  C   UNL     1       4.940  -3.455   0.009  0.00  0.00    +0.078 C 
ATOM      4  C   UNL     1       6.105  -2.488   0.062  0.00  0.00    +0.145 C 
ATOM      5  N   UNL     1       5.784  -1.053  -0.019  0.00  0.00    -0.315 N 
ATOM      6  C   UNL     1       4.492  -0.690  -0.134  0.00  0.00    +0.142 C 
ATOM      7  S   UNL     1       4.105   0.976  -0.229  0.00  0.00    -0.018 S 
ATOM      8  N   UNL     1       3.500  -1.588  -0.177  0.00  0.00    -0.255 N 
ATOM      9  H   UNL     1       6.591  -0.306   0.015  0.00  0.00    +0.149 HD
ENDROOT
BRANCH   8  10
ATOM     10  C   UNL     1       2.185  -1.117  -0.297  0.00  0.00    +0.044 A 
ATOM     11  C   UNL     1       1.594  -1.019  -1.550  0.00  0.00    +0.027 A 
ATOM     12  C   UNL     1       0.299  -0.554  -1.670  0.00  0.00    +0.051 A 
ATOM     13  C   UNL     1      -0.415  -0.183  -0.540  0.00  0.00    +0.162 A 
ATOM     14  C   UNL     1       0.172  -0.283   0.716  0.00  0.00    +0.164 A 
ATOM     15  C   UNL     1       1.473  -0.748   0.835  0.00  0.00    +0.073 A 
ATOM     16  O   UNL     1      -0.516   0.068   1.837  0.00  0.00    -0.485 OA
ATOM     17  C   UNL     1      -1.679   0.881   1.650  0.00  0.00    +0.270 C 
ATOM     18  C   UNL     1      -2.502   0.284   0.500  0.00  0.00    +0.270 C 
ATOM     19  O   UNL     1      -1.688   0.281  -0.678  0.00  0.00    -0.485 OA
ENDBRANCH   8  10
BRANCH   4  20
ATOM     20  C   UNL     1       7.036  -2.821  -1.074  0.00  0.00    +0.023 A 
ATOM     21  C   UNL     1       6.547  -3.440  -2.209  0.00  0.00    +0.013 A 
ATOM     22  C   UNL     1       7.396  -3.744  -3.257  0.00  0.00    +0.050 A 
ATOM     23  C   UNL     1       8.746  -3.437  -3.168  0.00  0.00    +0.165 A 
ATOM     24  C   UNL     1       9.243  -2.820  -2.027  0.00  0.00    +0.204 A 
ATOM     25  C   UNL     1       8.384  -2.511  -0.978  0.00  0.00    +0.170 A 
BRANCH  25  26
ATOM     26  O   UNL     1       8.866  -1.907   0.141  0.00  0.00    -0.491 OA
ATOM     27  C   UNL     1       9.241  -2.757   1.227  0.00  0.00    +0.277 C 
ENDBRANCH  25  26
BRANCH  24  28
ATOM     28  O   UNL     1      10.567  -2.518  -1.936  0.00  0.00    -0.488 OA
ATOM     29  C   UNL     1      11.433  -3.541  -1.441  0.00  0.00    +0.277 C 
ENDBRANCH  24  28
BRANCH  23  30
ATOM     30  O   UNL     1       9.582  -3.740  -4.197  0.00  0.00    -0.491 OA
ATOM     31  C   UNL     1       9.002  -4.375  -5.339  0.00  0.00    +0.277 C 
ENDBRANCH  23  30
ENDBRANCH   4  20
BRANCH   3  32
ATOM     32  C   UNL     1       5.146  -4.853   0.080  0.00  0.00    +0.339 C 
ATOM     33  O   UNL     1       4.206  -5.614  -0.055  0.00  0.00    -0.245 OA
BRANCH  32  34
ATOM     34  O   UNL     1       6.385  -5.342   0.296  0.00  0.00    -0.465 OA
ATOM     35  C   UNL     1       6.540  -6.762   0.248  0.00  0.00    +0.280 C 
ENDBRANCH  32  34
ENDBRANCH   3  32
TORSDOF 7
