REMARK  Name = ZINC64220528
REMARK  6 active torsions:
REMARK  status: ('A' for Active; 'I' for Inactive)
REMARK    1  A    between atoms: C_7  and  C_10
REMARK    2  A    between atoms: C_10  and  C_11
REMARK    3  A    between atoms: N_13  and  N_14
REMARK    4  A    between atoms: C_15  and  C_17
REMARK    5  A    between atoms: C_17  and  O_18
REMARK    6  A    between atoms: O_18  and  C_19
REMARK                            x       y       z     vdW  Elec       q    Type
REMARK                         _______ _______ _______ _____ _____    ______ ____
ROOT
ATOM      1  C   UNL     1       0.460  -3.646  -1.440  0.00  0.00    +0.233 C 
ATOM      2  O   UNL     1       1.006  -3.075  -2.360  0.00  0.00    -0.274 OA
ATOM      3  N   UNL     1      -0.353  -4.693  -1.684  0.00  0.00    -0.234 N 
ATOM      4  H   UNL     1      -0.790  -5.150  -0.948  0.00  0.00    +0.173 HD
ENDROOT
BRANCH   3   5
ATOM      5  N   UNL     1      -0.567  -5.122  -3.001  0.00  0.00    -0.232 N 
ATOM      6  C   UNL     1      -1.380  -6.168  -3.245  0.00  0.00    +0.267 C 
ATOM      7  O   UNL     1      -1.926  -6.740  -2.325  0.00  0.00    -0.271 OA
ATOM      8  H   UNL     1      -0.131  -4.665  -3.737  0.00  0.00    +0.173 HD
BRANCH   6   9
ATOM      9  C   UNL     1      -1.611  -6.629  -4.661  0.00  0.00    +0.326 C 
BRANCH   9  10
ATOM     10  O   UNL     1      -2.503  -7.745  -4.660  0.00  0.00    -0.481 OA
BRANCH  10  11
ATOM     11  C   UNL     1      -2.817  -8.286  -5.867  0.00  0.00    +0.141 A 
ATOM     12  C   UNL     1      -2.274  -7.756  -7.027  0.00  0.00    +0.068 A 
ATOM     13  C   UNL     1      -2.594  -8.307  -8.254  0.00  0.00    +0.063 A 
ATOM     14  C   UNL     1      -3.458  -9.387  -8.324  0.00  0.00    +0.061 A 
ATOM     15  C   UNL     1      -4.002  -9.917  -7.168  0.00  0.00    +0.045 A 
ATOM     16  C   UNL     1      -3.679  -9.372  -5.939  0.00  0.00    +0.084 A 
ATOM     17 CL   UNL     1      -4.356 -10.041  -4.487  0.00  0.00    -0.080 Cl
ATOM     18 CL   UNL     1      -3.860 -10.077  -9.866  0.00  0.00    -0.082 Cl
ATOM     19 CL   UNL     1      -1.914  -7.645  -9.707  0.00  0.00    -0.082 Cl
ENDBRANCH  10  11
ENDBRANCH   9  10
ENDBRANCH   6   9
ENDBRANCH   3   5
BRANCH   1  20
ATOM     20  C   UNL     1       0.691  -3.186  -0.024  0.00  0.00    +0.130 C 
BRANCH  20  27
ATOM     21  C   UNL     1      -0.016   1.348   0.009  0.00  0.00    +0.001 A 
ATOM     22  C   UNL     1       1.166   2.101   0.002  0.00  0.00    +0.002 A 
ATOM     23  C   UNL     1       2.391   1.535  -0.013  0.00  0.00    +0.026 A 
ATOM     24  C   UNL     1       2.529   0.120  -0.022  0.00  0.00    +0.043 A 
ATOM     25  N   UNL     1       3.587  -0.654  -0.037  0.00  0.00    -0.380 N 
ATOM     26  C   UNL     1       3.143  -2.053  -0.041  0.00  0.00    +0.145 C 
ATOM     27  C   UNL     1       1.631  -2.008  -0.025  0.00  0.00    -0.033 C 
ATOM     28  C   UNL     1       1.295  -0.698  -0.014  0.00  0.00    -0.001 A 
ATOM     29  C   UNL     1       0.002  -0.004   0.002  0.00  0.00    +0.010 A 
ATOM     30  H   UNL     1       4.509  -0.353  -0.045  0.00  0.00    +0.160 HD
ENDBRANCH  20  27
ENDBRANCH   1  20
TORSDOF 6
