REMARK  Name = ZINC35744309
REMARK  9 active torsions:
REMARK  status: ('A' for Active; 'I' for Inactive)
REMARK    1  A    between atoms: C_1  and  C_2
REMARK    2  A    between atoms: C_2  and  C_3
REMARK    3  A    between atoms: C_3  and  N_4
REMARK    4  A    between atoms: C_5  and  C_7
REMARK    5  A    between atoms: C_7  and  N_8
REMARK    6  A    between atoms: N_10  and  C_30
REMARK    7  A    between atoms: N_21  and  C_22
REMARK    8  A    between atoms: C_25  and  C_28
REMARK    9  A    between atoms: C_28  and  C_29
REMARK                            x       y       z     vdW  Elec       q    Type
REMARK                         _______ _______ _______ _____ _____    ______ ____
ROOT
ATOM      1  N   UNL     1      -3.891  -4.804  -0.001  0.00  0.00    -0.275 N 
ATOM      2  C   UNL     1      -4.642  -5.163   1.201  0.00  0.00    +0.217 C 
ATOM      3  N   UNL     1      -6.020  -5.477   0.800  0.00  0.00    -0.300 N 
ATOM      4  C   UNL     1      -6.065  -5.297  -0.656  0.00  0.00    +0.115 C 
ATOM      5  C   UNL     1      -4.686  -4.867  -1.083  0.00  0.00    +0.241 C 
ATOM      6  O   UNL     1      -4.346  -4.619  -2.220  0.00  0.00    -0.273 OA
ATOM      7  C   UNL     1      -7.082  -4.213  -1.015  0.00  0.00    +0.054 C 
ATOM      8  C   UNL     1      -8.470  -4.636  -0.524  0.00  0.00    +0.112 C 
ATOM      9  N   UNL     1      -8.778  -5.966  -1.068  0.00  0.00    -0.285 N 
ATOM     10  C   UNL     1      -7.823  -7.060  -0.844  0.00  0.00    +0.112 C 
ATOM     11  C   UNL     1      -6.441  -6.615  -1.332  0.00  0.00    +0.054 C 
ATOM     12  C   UNL     1      -9.916  -6.178  -1.759  0.00  0.00    +0.306 C 
ATOM     13  O   UNL     1     -10.654  -5.247  -2.016  0.00  0.00    -0.252 OA
ATOM     14  N   UNL     1     -10.235  -7.423  -2.165  0.00  0.00    -0.269 N 
ATOM     15  H   UNL     1      -9.686  -8.177  -1.897  0.00  0.00    +0.156 HD
ENDROOT
BRANCH  14  16
ATOM     16  C   UNL     1     -11.360  -7.629  -2.971  0.00  0.00    +0.035 A 
ATOM     17  C   UNL     1     -12.204  -6.568  -3.272  0.00  0.00    +0.023 A 
ATOM     18  C   UNL     1     -13.313  -6.774  -4.069  0.00  0.00    +0.005 A 
ATOM     19  C   UNL     1     -13.584  -8.035  -4.567  0.00  0.00    -0.048 A 
ATOM     20  C   UNL     1     -12.745  -9.094  -4.269  0.00  0.00    +0.005 A 
ATOM     21  C   UNL     1     -11.631  -8.893  -3.478  0.00  0.00    +0.023 A 
BRANCH  19  22
ATOM     22  C   UNL     1     -14.795  -8.257  -5.436  0.00  0.00    +0.032 C 
ATOM     23  C   UNL     1     -14.417  -8.037  -6.903  0.00  0.00    +0.009 C 
ENDBRANCH  19  22
ENDBRANCH  14  16
BRANCH   3  24
ATOM     24  C   UNL     1      -7.071  -5.867   1.633  0.00  0.00    +0.032 A 
ATOM     25  C   UNL     1      -6.889  -5.910   3.010  0.00  0.00    +0.023 A 
ATOM     26  C   UNL     1      -7.930  -6.296   3.830  0.00  0.00    +0.002 A 
ATOM     27  C   UNL     1      -9.153  -6.640   3.284  0.00  0.00    +0.000 A 
ATOM     28  C   UNL     1      -9.337  -6.598   1.914  0.00  0.00    +0.002 A 
ATOM     29  C   UNL     1      -8.302  -6.208   1.087  0.00  0.00    +0.023 A 
ENDBRANCH   3  24
BRANCH   1  30
ATOM     30  C   UNL     1      -2.477  -4.424  -0.022  0.00  0.00    +0.205 C 
BRANCH  30  32
ATOM     31  N   UNL     1      -1.138  -2.353   0.171  0.00  0.00    -0.314 N 
ATOM     32  C   UNL     1      -2.354  -2.932   0.157  0.00  0.00    +0.230 C 
ATOM     33  O   UNL     1      -3.351  -2.254   0.290  0.00  0.00    -0.274 OA
ATOM     34  H   UNL     1      -0.341  -2.895   0.064  0.00  0.00    +0.149 HD
BRANCH  31  35
ATOM     35  C   UNL     1      -1.019  -0.903   0.345  0.00  0.00    +0.104 C 
BRANCH  35  37
ATOM     36  C   UNL     1       0.583   1.008   0.505  0.00  0.00    +0.005 C 
ATOM     37  C   UNL     1       0.459  -0.506   0.323  0.00  0.00    +0.015 C 
ENDBRANCH  35  37
ENDBRANCH  31  35
ENDBRANCH  30  32
ENDBRANCH   1  30
TORSDOF 7
