REMARK  Name = ZINC02083805
REMARK  9 active torsions:
REMARK  status: ('A' for Active; 'I' for Inactive)
REMARK    1  A    between atoms: C_1  and  C_2
REMARK    2  A    between atoms: C_2  and  O_3
REMARK    3  A    between atoms: O_3  and  C_4
REMARK    4  A    between atoms: C_4  and  C_6
REMARK    5  A    between atoms: C_10  and  N_11
REMARK    6  A    between atoms: C_12  and  C_14
REMARK    7  A    between atoms: C_16  and  C_24
REMARK    8  A    between atoms: C_27  and  C_29
REMARK    9  A    between atoms: C_31  and  C_35
REMARK                            x       y       z     vdW  Elec       q    Type
REMARK                         _______ _______ _______ _____ _____    ______ ____
ROOT
ATOM      1  N   UNL     1      -1.190   1.869   0.032  0.00  0.00    -0.275 N 
ATOM      2  C   UNL     1      -0.014   1.211   0.009  0.00  0.00    +0.249 C 
ATOM      3  O   UNL     1       0.002  -0.004  -0.011  0.00  0.00    -0.270 OA
ATOM      4  H   UNL     1      -1.204   2.839   0.047  0.00  0.00    +0.156 HD
ENDROOT
BRANCH   1   9
ATOM      5  C   UNL     1      -3.679   1.654   0.061  0.00  0.00    +0.091 A 
ATOM      6  C   UNL     1      -4.763   0.687   0.052  0.00  0.00    -0.021 A 
ATOM      7  C   UNL     1      -4.380  -0.608   0.029  0.00  0.00    -0.004 A 
ATOM      8  S   UNL     1      -2.611  -0.556   0.010  0.00  0.00    -0.077 S 
ATOM      9  C   UNL     1      -2.380   1.161   0.034  0.00  0.00    +0.087 A 
ATOM     10  C   UNL     1      -5.269  -1.813   0.021  0.00  0.00    +0.046 C 
ATOM     11  C   UNL     1      -6.685  -1.372   0.422  0.00  0.00    -0.009 C 
ATOM     12  C   UNL     1      -7.064  -0.132  -0.392  0.00  0.00    +0.008 C 
ATOM     13  C   UNL     1      -6.239   1.069   0.074  0.00  0.00    +0.037 C 
ATOM     14  C   UNL     1      -7.675  -2.502   0.132  0.00  0.00    +0.008 C 
BRANCH   5  15
ATOM     15  C   UNL     1      -3.944   3.094   0.093  0.00  0.00    +0.342 C 
ATOM     16  O   UNL     1      -4.069   3.712  -0.946  0.00  0.00    -0.245 OA
BRANCH  15  17
ATOM     17  O   UNL     1      -4.050   3.733   1.276  0.00  0.00    -0.461 OA
BRANCH  17  19
ATOM     18  C   UNL     1      -4.400   5.707   2.659  0.00  0.00    +0.048 C 
ATOM     19  C   UNL     1      -4.314   5.161   1.232  0.00  0.00    +0.229 C 
ENDBRANCH  17  19
ENDBRANCH  15  17
ENDBRANCH   5  15
ENDBRANCH   1   9
BRANCH   2  20
ATOM     20  C   UNL     1       1.256   1.968   0.001  0.00  0.00    +0.048 A 
ATOM     21  C   UNL     1       1.270   3.351  -0.095  0.00  0.00    +0.045 A 
ATOM     22  C   UNL     1       2.501   4.030  -0.094  0.00  0.00    +0.107 A 
ATOM     23  N   UNL     1       3.655   3.395  -0.015  0.00  0.00    -0.244 NA
ATOM     24  C   UNL     1       3.732   2.066   0.075  0.00  0.00    +0.073 A 
ATOM     25  C   UNL     1       2.548   1.286   0.087  0.00  0.00    +0.013 A 
ATOM     26  C   UNL     1       2.634  -0.107   0.182  0.00  0.00    +0.011 A 
ATOM     27  C   UNL     1       3.858  -0.703   0.262  0.00  0.00    +0.001 A 
ATOM     28  C   UNL     1       5.025   0.058   0.249  0.00  0.00    +0.002 A 
ATOM     29  C   UNL     1       4.977   1.416   0.157  0.00  0.00    +0.028 A 
BRANCH  22  30
ATOM     30  C   UNL     1       2.503   5.502  -0.189  0.00  0.00    +0.153 A 
ATOM     31  C   UNL     1       3.606   6.300  -0.206  0.00  0.00    +0.052 A 
ATOM     32  C   UNL     1       3.145   7.626  -0.307  0.00  0.00    +0.045 A 
ATOM     33  C   UNL     1       1.798   7.575  -0.347  0.00  0.00    +0.103 A 
ATOM     34  O   UNL     1       1.414   6.290  -0.282  0.00  0.00    -0.458 OA
ATOM     35  C   UNL     1       0.876   8.762  -0.455  0.00  0.00    +0.086 C 
ENDBRANCH  22  30
ENDBRANCH   2  20
TORSDOF 6
