REMARK  Name = ZINC32948631
REMARK  8 active torsions:
REMARK  status: ('A' for Active; 'I' for Inactive)
REMARK    1  A    between atoms: C_1  and  C_2
REMARK    2  A    between atoms: C_5  and  N_8
REMARK    3  A    between atoms: C_15  and  S_17
REMARK    4  A    between atoms: S_17  and  C_18
REMARK    5  A    between atoms: C_18  and  C_19
REMARK    6  A    between atoms: N_21  and  C_22
REMARK    7  A    between atoms: C_24  and  C_29
REMARK    8  A    between atoms: C_26  and  C_28
REMARK                            x       y       z     vdW  Elec       q    Type
REMARK                         _______ _______ _______ _____ _____    ______ ____
ROOT
ATOM      1  N   UNL     1       3.079  -0.976  -3.103  0.00  0.00    -0.282 N 
ATOM      2  C   UNL     1       1.867  -0.367  -3.313  0.00  0.00    +0.161 A 
ATOM      3  C   UNL     1       1.451  -0.272  -4.643  0.00  0.00    +0.122 A 
ATOM      4  C   UNL     1       0.245   0.321  -4.994  0.00  0.00    +0.268 A 
ATOM      5  O   UNL     1      -0.100   0.395  -6.162  0.00  0.00    -0.267 OA
ATOM      6  N   UNL     1      -0.540   0.812  -4.004  0.00  0.00    -0.301 N 
ATOM      7  H   UNL     1      -1.505   1.280  -4.249  0.00  0.00    +0.171 HD
ATOM      8  C   UNL     1      -0.112   0.713  -2.713  0.00  0.00    +0.172 A 
ATOM      9  N   UNL     1       1.025   0.153  -2.386  0.00  0.00    -0.204 NA
ATOM     10  S   UNL     1       2.777  -1.039  -5.539  0.00  0.00    -0.055 S 
ATOM     11  C   UNL     1       3.807  -1.446  -4.137  0.00  0.00    +0.132 A 
ATOM     12  S   UNL     1       5.328  -2.230  -4.112  0.00  0.00    -0.024 S 
ENDROOT
BRANCH   1  17
ATOM     13  C   UNL     1       5.056  -1.522   2.189  0.00  0.00    +0.044 C 
ATOM     14  C   UNL     1       4.531  -1.377   0.784  0.00  0.00    -0.050 A 
ATOM     15  C   UNL     1       4.207  -2.502   0.049  0.00  0.00    +0.005 A 
ATOM     16  C   UNL     1       3.725  -2.373  -1.239  0.00  0.00    +0.026 A 
ATOM     17  C   UNL     1       3.567  -1.111  -1.796  0.00  0.00    +0.050 A 
ATOM     18  C   UNL     1       3.899   0.017  -1.058  0.00  0.00    +0.026 A 
ATOM     19  C   UNL     1       4.375  -0.119   0.232  0.00  0.00    +0.005 A 
ENDBRANCH   1  17
BRANCH   8  20
ATOM     20  S   UNL     1      -1.136   1.358  -1.433  0.00  0.00    -0.078 S 
BRANCH  20  21
ATOM     21  C   UNL     1      -0.119   0.962   0.012  0.00  0.00    +0.173 C 
BRANCH  21  22
ATOM     22  C   UNL     1      -0.816   1.435   1.261  0.00  0.00    +0.227 C 
ATOM     23  O   UNL     1      -1.893   1.986   1.183  0.00  0.00    -0.275 OA
ATOM     24  N   UNL     1      -0.242   1.246   2.466  0.00  0.00    -0.285 N 
ATOM     25  H   UNL     1       0.692   0.670   2.546  0.00  0.00    +0.155 HD
BRANCH  24  26
ATOM     26  C   UNL     1      -0.833   1.782   3.615  0.00  0.00    +0.034 A 
ATOM     27  C   UNL     1      -0.741   1.106   4.825  0.00  0.00    +0.026 A 
ATOM     28  C   UNL     1      -1.321   1.641   5.958  0.00  0.00    -0.048 A 
ATOM     29  C   UNL     1      -2.003   2.842   5.887  0.00  0.00    +0.006 A 
ATOM     30  C   UNL     1      -2.102   3.514   4.683  0.00  0.00    -0.048 A 
ATOM     31  C   UNL     1      -1.519   2.988   3.547  0.00  0.00    +0.026 A 
ATOM     32  C   UNL     1      -2.845   4.823   4.610  0.00  0.00    +0.044 C 
ATOM     33  C   UNL     1      -1.216   0.912   7.273  0.00  0.00    +0.044 C 
ENDBRANCH  24  26
ENDBRANCH  21  22
ENDBRANCH  20  21
ENDBRANCH   8  20
TORSDOF 5
