REMARK  Name = ZINC37316401
REMARK  2 active torsions:
REMARK  status: ('A' for Active; 'I' for Inactive)
REMARK    1  A    between atoms: C_6  and  N_7
REMARK    2  A    between atoms: N_7  and  C_8
REMARK                            x       y       z     vdW  Elec       q    Type
REMARK                         _______ _______ _______ _____ _____    ______ ____
ROOT
ATOM      1  N   UNL     1      -1.200  -0.720   0.010  0.00  0.00    -0.341 N 
ATOM      2  H   UNL     1      -1.187  -1.689   0.005  0.00  0.00    +0.146 HD
ENDROOT
BRANCH   1   8
ATOM      3  C   UNL     1      -0.017   1.386   0.010  0.00  0.00    +0.026 A 
ATOM      4  C   UNL     1       1.167   2.097   0.002  0.00  0.00    +0.050 A 
ATOM      5  C   UNL     1       2.379   1.426  -0.013  0.00  0.00    +0.157 A 
ATOM      6  C   UNL     1       2.400   0.031  -0.021  0.00  0.00    +0.089 A 
ATOM      7  C   UNL     1       1.213  -0.682  -0.013  0.00  0.00    +0.052 A 
ATOM      8  C   UNL     1       0.002  -0.004   0.002  0.00  0.00    +0.030 A 
ATOM      9  N   UNL     1       3.743  -0.347  -0.036  0.00  0.00    -0.288 N 
ATOM     10  H   UNL     1       4.083  -1.255  -0.044  0.00  0.00    +0.172 HD
ATOM     11  C   UNL     1       4.481   0.780  -0.037  0.00  0.00    +0.419 A 
ATOM     12  O   UNL     1       5.697   0.823  -0.049  0.00  0.00    -0.223 OA
ATOM     13  O   UNL     1       3.668   1.848  -0.023  0.00  0.00    -0.408 OA
ENDBRANCH   1   8
BRANCH   1  14
ATOM     14  C   UNL     1      -2.478  -0.004   0.027  0.00  0.00    +0.071 C 
ATOM     15  C   UNL     1      -2.848   0.347   1.469  0.00  0.00    +0.022 C 
ATOM     16  C   UNL     1      -4.183   1.094   1.486  0.00  0.00    +0.005 C 
ATOM     17  C   UNL     1      -5.272   0.206   0.883  0.00  0.00    -0.008 C 
ATOM     18  C   UNL     1      -5.396  -1.079   1.704  0.00  0.00    +0.004 C 
ATOM     19  C   UNL     1      -6.486  -1.967   1.101  0.00  0.00    +0.000 C 
ATOM     20  C   UNL     1      -6.116  -2.318  -0.342  0.00  0.00    +0.000 C 
ATOM     21  C   UNL     1      -5.992  -1.034  -1.163  0.00  0.00    +0.004 C 
ATOM     22  C   UNL     1      -4.903  -0.145  -0.560  0.00  0.00    -0.006 C 
ATOM     23  C   UNL     1      -3.568  -0.893  -0.577  0.00  0.00    +0.026 C 
ENDBRANCH   1  14
TORSDOF 2
