REMARK  Name = ZINC39558828
REMARK  5 active torsions:
REMARK  status: ('A' for Active; 'I' for Inactive)
REMARK    1  A    between atoms: C_6  and  C_7
REMARK    2  A    between atoms: C_10  and  C_12
REMARK    3  A    between atoms: N_14  and  C_15
REMARK    4  A    between atoms: C_15  and  C_16
REMARK    5  A    between atoms: N_18  and  C_19
REMARK                            x       y       z     vdW  Elec       q    Type
REMARK                         _______ _______ _______ _____ _____    ______ ____
ROOT
ATOM      1  C   UNL     1      -6.854   0.368   0.045  0.00  0.00    +0.200 C 
ENDROOT
BRANCH   1   4
ATOM      2  C   UNL     1      -4.870  -1.046   0.027  0.00  0.00    +0.280 C 
ATOM      3  O   UNL     1      -5.599  -2.020   0.021  0.00  0.00    -0.267 OA
ATOM      4  N   UNL     1      -5.400   0.193   0.039  0.00  0.00    -0.300 N 
ATOM      5  H   UNL     1      -4.818   0.970   0.044  0.00  0.00    +0.150 HD
BRANCH   2   9
ATOM      6  C   UNL     1      -1.265  -0.764   0.017  0.00  0.00    +0.136 A 
ATOM      7  C   UNL     1      -1.378  -2.124   0.007  0.00  0.00    +0.050 A 
ATOM      8  C   UNL     1      -2.744  -2.424   0.009  0.00  0.00    +0.055 A 
ATOM      9  C   UNL     1      -3.415  -1.220   0.021  0.00  0.00    +0.190 A 
ATOM     10  O   UNL     1      -2.498  -0.230   0.032  0.00  0.00    -0.450 OA
BRANCH   6  16
ATOM     11  C   UNL     1      -0.017   1.391   0.036  0.00  0.00    +0.013 A 
ATOM     12  C   UNL     1       1.170   2.094   0.038  0.00  0.00    +0.021 A 
ATOM     13  C   UNL     1       2.378   1.417   0.023  0.00  0.00    +0.041 A 
ATOM     14  C   UNL     1       2.404   0.033   0.005  0.00  0.00    +0.021 A 
ATOM     15  C   UNL     1       1.224  -0.681   0.003  0.00  0.00    +0.013 A 
ATOM     16  C   UNL     1       0.002  -0.005   0.019  0.00  0.00    +0.017 A 
ATOM     17 CL   UNL     1       3.868   2.309   0.025  0.00  0.00    -0.084 Cl
ENDBRANCH   6  16
ENDBRANCH   2   9
ENDBRANCH   1   4
BRANCH   1  18
ATOM     18  C   UNL     1      -7.184   1.838   0.058  0.00  0.00    +0.234 C 
ATOM     19  O   UNL     1      -6.292   2.660   0.062  0.00  0.00    -0.274 OA
ATOM     20  N   UNL     1      -8.470   2.240   0.065  0.00  0.00    -0.284 N 
ATOM     21  H   UNL     1      -9.183   1.587  -0.005  0.00  0.00    +0.155 HD
BRANCH  20  22
ATOM     22  C   UNL     1      -8.777   3.603   0.175  0.00  0.00    +0.036 A 
ATOM     23  C   UNL     1      -9.902   4.005   0.886  0.00  0.00    +0.025 A 
ATOM     24  C   UNL     1     -10.211   5.346   0.998  0.00  0.00    +0.029 A 
ATOM     25  C   UNL     1      -9.396   6.296   0.400  0.00  0.00    +0.067 A 
ATOM     26  C   UNL     1      -8.265   5.895  -0.315  0.00  0.00    +0.069 A 
ATOM     27  C   UNL     1      -7.956   4.548  -0.420  0.00  0.00    +0.051 A 
ATOM     28  N   UNL     1      -7.658   7.054  -0.791  0.00  0.00    -0.306 N 
ATOM     29  H   UNL     1      -6.848   7.093  -1.324  0.00  0.00    +0.170 HD
ATOM     30  C   UNL     1      -8.385   8.112  -0.385  0.00  0.00    +0.325 A 
ATOM     31  O   UNL     1      -8.127   9.275  -0.632  0.00  0.00    -0.247 OA
ATOM     32  N   UNL     1      -9.440   7.688   0.335  0.00  0.00    -0.306 N 
ATOM     33  H   UNL     1     -10.116   8.254   0.740  0.00  0.00    +0.170 HD
ENDBRANCH  20  22
ENDBRANCH   1  18
TORSDOF 5
