REMARK  Name = ZINC06410240
REMARK  10 active torsions:
REMARK  status: ('A' for Active; 'I' for Inactive)
REMARK    1  A    between atoms: C_1  and  C_2
REMARK    2  A    between atoms: C_7  and  C_15
REMARK    3  A    between atoms: C_13  and  C_14
REMARK    4  A    between atoms: C_15  and  N_67
REMARK    5  A    between atoms: C_16  and  C_17
REMARK    6  A    between atoms: C_16  and  N_67
REMARK    7  A    between atoms: C_26  and  C_27
REMARK    8  A    between atoms: C_26  and  N_67
REMARK    9  A    between atoms: N_31  and  C_32
REMARK   10  A    between atoms: C_32  and  C_33
REMARK                            x       y       z     vdW  Elec       q    Type
REMARK                         _______ _______ _______ _____ _____    ______ ____
ROOT
ATOM      1  N   UNL     1       6.425  -0.744  -1.338  0.00  0.00    +0.390 N 
ATOM      2  H   UNL     1       6.477   0.126  -1.881  0.00  0.00    -0.080 HD
ENDROOT
BRANCH   1   3
ATOM      3  C   UNL     1       5.694  -0.482  -0.081  0.00  0.00    -0.036 C 
BRANCH   3  10
ATOM      4  C   UNL     1      -1.152   3.274  -1.706  0.00  0.00    +0.044 C 
ATOM      5  C   UNL     1       0.012   2.370  -1.394  0.00  0.00    -0.046 A 
ATOM      6  C   UNL     1      -0.194   1.002  -1.272  0.00  0.00    +0.004 A 
ATOM      7  C   UNL     1       0.849   0.164  -0.995  0.00  0.00    +0.010 A 
ATOM      8  C   UNL     1       2.136   0.689  -0.833  0.00  0.00    -0.001 A 
ATOM      9  C   UNL     1       3.276  -0.181  -0.535  0.00  0.00    +0.017 A 
ATOM     10  C   UNL     1       4.500   0.384  -0.388  0.00  0.00    +0.001 A 
ATOM     11  C   UNL     1       4.659   1.780  -0.521  0.00  0.00    +0.251 A 
ATOM     12  O   UNL     1       5.768   2.267  -0.385  0.00  0.00    -0.268 OA
ATOM     13  N   UNL     1       3.618   2.586  -0.794  0.00  0.00    -0.322 N 
ATOM     14  H   UNL     1       3.763   3.542  -0.879  0.00  0.00    +0.169 HD
ATOM     15  C   UNL     1       2.348   2.074  -0.956  0.00  0.00    +0.052 A 
ATOM     16  C   UNL     1       1.271   2.908  -1.238  0.00  0.00    -0.024 A 
ATOM     17  C   UNL     1       1.480   4.394  -1.374  0.00  0.00    +0.046 C 
ENDBRANCH   3  10
ENDBRANCH   1   3
BRANCH   1  18
ATOM     18  C   UNL     1       5.712  -1.765  -2.134  0.00  0.00    -0.042 C 
BRANCH  18  19
ATOM     19  C   UNL     1       5.727  -3.094  -1.423  0.00  0.00    -0.060 A 
ATOM     20  C   UNL     1       6.700  -4.027  -1.726  0.00  0.00    +0.005 A 
ATOM     21  C   UNL     1       6.721  -5.246  -1.073  0.00  0.00    +0.050 A 
ATOM     22  C   UNL     1       5.758  -5.538  -0.121  0.00  0.00    +0.166 A 
ATOM     23  C   UNL     1       4.774  -4.600   0.181  0.00  0.00    +0.166 A 
ATOM     24  C   UNL     1       4.763  -3.378  -0.474  0.00  0.00    +0.051 A 
ATOM     25  O   UNL     1       3.954  -5.120   1.139  0.00  0.00    -0.453 OA
ATOM     26  C   UNL     1       4.684  -6.220   1.714  0.00  0.00    +0.466 C 
ATOM     27  O   UNL     1       5.554  -6.647   0.649  0.00  0.00    -0.453 OA
ENDBRANCH  18  19
ENDBRANCH   1  18
BRANCH   1  28
ATOM     28  C   UNL     1       7.797  -1.204  -1.038  0.00  0.00    +0.001 C 
BRANCH  28  29
ATOM     29  C   UNL     1       8.632  -1.085  -2.287  0.00  0.00    +0.135 A 
ATOM     30  N   UNL     1       8.749  -1.979  -3.238  0.00  0.00    -0.115 NA
ATOM     31  N   UNL     1       9.547  -1.506  -4.133  0.00  0.00    -0.023 NA
ATOM     32  N   UNL     1       9.948  -0.336  -3.773  0.00  0.00    -0.044 NA
ATOM     33  N   UNL     1       9.405  -0.041  -2.640  0.00  0.00    -0.229 N 
BRANCH  33  34
ATOM     34  C   UNL     1       9.596   1.197  -1.880  0.00  0.00    +0.178 C 
BRANCH  34  35
ATOM     35  C   UNL     1      10.780   1.032  -0.926  0.00  0.00    +0.140 C 
ATOM     36  C   UNL     1      10.917   2.289  -0.040  0.00  0.00    +0.035 C 
ATOM     37  C   UNL     1      12.458   2.473   0.035  0.00  0.00    +0.031 C 
ATOM     38  C   UNL     1      12.881   1.985  -1.373  0.00  0.00    +0.160 C 
ATOM     39  O   UNL     1      11.993   0.897  -1.675  0.00  0.00    -0.375 OA
ENDBRANCH  34  35
ENDBRANCH  33  34
ENDBRANCH  28  29
ENDBRANCH   1  28
TORSDOF 8
