REMARK  Name = ZINC30822723
REMARK  5 active torsions:
REMARK  status: ('A' for Active; 'I' for Inactive)
REMARK    1  A    between atoms: C_4  and  C_7
REMARK    2  A    between atoms: C_8  and  C_9
REMARK    3  A    between atoms: N_10  and  N_11
REMARK    4  A    between atoms: C_14  and  C_32
REMARK    5  A    between atoms: C_24  and  C_25
REMARK                            x       y       z     vdW  Elec       q    Type
REMARK                         _______ _______ _______ _____ _____    ______ ____
ROOT
ATOM      1  N   UNL     1       0.091   1.156   0.917  0.00  0.00    -0.247 N 
ATOM      2  C   UNL     1       0.056  -0.087   0.457  0.00  0.00    +0.216 A 
ATOM      3  C   UNL     1      -1.159  -0.790   0.484  0.00  0.00    +0.076 A 
ATOM      4  C   UNL     1      -1.208  -2.085   0.002  0.00  0.00    -0.002 A 
ATOM      5  C   UNL     1       0.040  -2.677  -0.515  0.00  0.00    +0.026 A 
ATOM      6  C   UNL     1       0.059  -3.978  -1.010  0.00  0.00    +0.024 A 
ATOM      7  C   UNL     1       1.249  -4.506  -1.489  0.00  0.00    +0.029 A 
ATOM      8  C   UNL     1       2.427  -3.736  -1.477  0.00  0.00    +0.139 A 
ATOM      9  C   UNL     1       2.400  -2.440  -0.982  0.00  0.00    +0.093 A 
ATOM     10  C   UNL     1       1.217  -1.905  -0.501  0.00  0.00    +0.142 A 
ATOM     11  O   UNL     1       1.187  -0.641  -0.018  0.00  0.00    -0.438 OA
ATOM     12  O   UNL     1       3.412  -4.499  -1.996  0.00  0.00    -0.462 OA
ATOM     13  C   UNL     1       2.954  -5.713  -2.346  0.00  0.00    +0.204 A 
ATOM     14  C   UNL     1       1.634  -5.806  -2.070  0.00  0.00    +0.028 A 
ATOM     15  H   UNL     1      -0.824   1.624   1.309  0.00  0.00    +0.192 HD
ENDROOT
BRANCH  14  16
ATOM     16  C   UNL     1       0.753  -6.976  -2.303  0.00  0.00    -0.014 A 
ATOM     17  C   UNL     1      -0.060  -7.455  -1.277  0.00  0.00    +0.010 A 
ATOM     18  C   UNL     1      -0.882  -8.540  -1.501  0.00  0.00    +0.020 A 
ATOM     19  C   UNL     1      -0.892  -9.161  -2.738  0.00  0.00    +0.041 A 
ATOM     20  C   UNL     1      -0.082  -8.693  -3.759  0.00  0.00    +0.020 A 
ATOM     21  C   UNL     1       0.740  -7.605  -3.547  0.00  0.00    +0.010 A 
ATOM     22 CL   UNL     1      -1.923 -10.531  -3.011  0.00  0.00    -0.084 Cl
ENDBRANCH  14  16
BRANCH   4  23
ATOM     23  C   UNL     1      -2.471  -2.854   0.011  0.00  0.00    -0.017 A 
ATOM     24  C   UNL     1      -3.322  -2.793   1.116  0.00  0.00    +0.008 A 
ATOM     25  C   UNL     1      -4.501  -3.509   1.115  0.00  0.00    +0.001 A 
ATOM     26  C   UNL     1      -4.836  -4.295   0.027  0.00  0.00    +0.000 A 
ATOM     27  C   UNL     1      -3.994  -4.364  -1.070  0.00  0.00    +0.001 A 
ATOM     28  C   UNL     1      -2.815  -3.649  -1.084  0.00  0.00    +0.008 A 
ENDBRANCH   4  23
BRANCH   1  30
ATOM     29  C   UNL     1       1.234   3.049   1.360  0.00  0.00    +0.133 C 
ATOM     30  N   UNL     1       1.199   1.817   0.904  0.00  0.00    -0.179 NA
BRANCH  29  32
ATOM     31  C   UNL     1       2.480   5.041   1.817  0.00  0.00    +0.009 C 
ATOM     32  C   UNL     1       2.444   3.771   1.347  0.00  0.00    +0.022 C 
BRANCH  31  36
ATOM     33  C   UNL     1       6.122   7.213   1.778  0.00  0.00    +0.000 A 
ATOM     34  C   UNL     1       4.972   7.805   2.271  0.00  0.00    +0.001 A 
ATOM     35  C   UNL     1       3.784   7.106   2.287  0.00  0.00    +0.008 A 
ATOM     36  C   UNL     1       3.743   5.794   1.803  0.00  0.00    -0.025 A 
ATOM     37  C   UNL     1       4.910   5.200   1.310  0.00  0.00    +0.008 A 
ATOM     38  C   UNL     1       6.089   5.915   1.296  0.00  0.00    +0.001 A 
ENDBRANCH  31  36
ENDBRANCH  29  32
ENDBRANCH   1  30
TORSDOF 5
