REMARK  Name = ZINC63651295
REMARK  8 active torsions:
REMARK  status: ('A' for Active; 'I' for Inactive)
REMARK    1  A    between atoms: C_1  and  C_2
REMARK    2  A    between atoms: C_7  and  C_32
REMARK    3  A    between atoms: C_9  and  C_12
REMARK    4  A    between atoms: C_12  and  C_13
REMARK    5  A    between atoms: C_13  and  N_14
REMARK    6  A    between atoms: C_15  and  C_17
REMARK    7  A    between atoms: C_24  and  O_29
REMARK    8  A    between atoms: O_29  and  C_30
REMARK                            x       y       z     vdW  Elec       q    Type
REMARK                         _______ _______ _______ _____ _____    ______ ____
ROOT
ATOM      1  N   UNL     1       0.039  -1.037   5.336  0.00  0.00    -0.314 N 
ATOM      2  C   UNL     1       0.025   0.229   5.798  0.00  0.00    +0.227 C 
ATOM      3  O   UNL     1       0.010   1.159   5.019  0.00  0.00    -0.275 OA
ATOM      4  H   UNL     1       0.051  -1.780   5.959  0.00  0.00    +0.149 HD
ENDROOT
BRANCH   2   5
ATOM      5  C   UNL     1       0.028   0.490   7.282  0.00  0.00    +0.188 C 
ATOM      6  C   UNL     1      -0.013   1.998   7.545  0.00  0.00    +0.063 C 
ATOM      7  C   UNL     1      -0.412   2.258   8.976  0.00  0.00    +0.001 A 
ATOM      8  C   UNL     1      -0.104   3.490   9.534  0.00  0.00    +0.022 A 
ATOM      9  C   UNL     1      -0.456   3.776  10.838  0.00  0.00    +0.022 A 
ATOM     10  C   UNL     1      -1.122   2.832  11.599  0.00  0.00    +0.064 A 
ATOM     11  C   UNL     1      -1.431   1.600  11.050  0.00  0.00    +0.164 A 
ATOM     12  C   UNL     1      -1.072   1.309   9.733  0.00  0.00    +0.176 A 
ATOM     13  O   UNL     1      -1.376   0.078   9.236  0.00  0.00    -0.421 OA
ATOM     14  C   UNL     1      -1.208  -0.120   7.914  0.00  0.00    +0.325 C 
ATOM     15  O   UNL     1      -2.005  -0.752   7.262  0.00  0.00    -0.250 OA
ATOM     16 BR   UNL     1      -0.026   5.459  11.586  0.00  0.00    -0.050 Br
BRANCH  11  17
ATOM     17  O   UNL     1      -2.086   0.670  11.795  0.00  0.00    -0.491 OA
ATOM     18  C   UNL     1      -2.424   1.033  13.135  0.00  0.00    +0.277 C 
ENDBRANCH  11  17
ENDBRANCH   2   5
BRANCH   1  19
ATOM     19  C   UNL     1       0.037  -1.291   3.893  0.00  0.00    +0.108 C 
BRANCH  19  20
ATOM     20  C   UNL     1       0.055  -2.799   3.641  0.00  0.00    +0.052 C 
BRANCH  20  28
ATOM     21  C   UNL     1      -0.018   1.503   0.010  0.00  0.00    +0.044 C 
ATOM     22  C   UNL     1       0.002  -0.004   0.002  0.00  0.00    -0.050 A 
ATOM     23  C   UNL     1       0.005  -0.680  -1.226  0.00  0.00    +0.005 A 
ATOM     24  C   UNL     1       0.023  -2.026  -1.317  0.00  0.00    +0.026 A 
ATOM     25  C   UNL     1       0.039  -2.826  -0.141  0.00  0.00    +0.043 A 
ATOM     26  N   UNL     1       0.057  -4.126   0.030  0.00  0.00    -0.378 N 
ATOM     27  C   UNL     1       0.067  -4.408   1.470  0.00  0.00    +0.103 C 
ATOM     28  C   UNL     1       0.052  -3.060   2.156  0.00  0.00    -0.037 C 
ATOM     29  C   UNL     1       0.036  -2.137   1.168  0.00  0.00    -0.001 A 
ATOM     30  C   UNL     1       0.022  -0.669   1.180  0.00  0.00    +0.013 A 
ATOM     31  C   UNL     1       1.333  -5.180   1.847  0.00  0.00    +0.035 C 
ATOM     32  H   UNL     1       0.062  -4.790  -0.677  0.00  0.00    +0.160 HD
ENDBRANCH  20  28
ENDBRANCH  19  20
ENDBRANCH   1  19
TORSDOF 5
