REMARK  Name = ZINC09243649
REMARK  11 active torsions:
REMARK  status: ('A' for Active; 'I' for Inactive)
REMARK    1  A    between atoms: C_1  and  C_2
REMARK    2  A    between atoms: C_2  and  O_3
REMARK    3  A    between atoms: O_3  and  C_4
REMARK    4  A    between atoms: C_6  and  C_11
REMARK    5  A    between atoms: C_9  and  O_10
REMARK    6  A    between atoms: C_14  and  C_30
REMARK    7  A    between atoms: N_21  and  C_22
REMARK    8  A    between atoms: C_22  and  C_23
REMARK    9  A    between atoms: C_26  and  C_29
REMARK   10  A    between atoms: C_33  and  C_37
REMARK   11  A    between atoms: C_35  and  O_36
REMARK                            x       y       z     vdW  Elec       q    Type
REMARK                         _______ _______ _______ _____ _____    ______ ____
ROOT
ATOM      1  C   UNL     1       0.044  -4.975  -0.101  0.00  0.00    +0.142 C 
ATOM      2  C   UNL     1      -1.411  -5.346  -0.015  0.00  0.00    +0.035 A 
ATOM      3  C   UNL     1      -2.739  -4.908   0.027  0.00  0.00    +0.102 A 
ATOM      4  N   UNL     1      -3.505  -5.979   0.113  0.00  0.00    -0.173 NA
ATOM      5  N   UNL     1      -2.792  -7.048   0.129  0.00  0.00    -0.272 N 
ATOM      6  H   UNL     1      -3.142  -7.950   0.188  0.00  0.00    +0.189 HD
ATOM      7  C   UNL     1      -1.467  -6.725   0.051  0.00  0.00    +0.126 A 
ATOM      8  C   UNL     1      -0.097  -7.250   0.011  0.00  0.00    +0.266 C 
ATOM      9  O   UNL     1       0.196  -8.429   0.052  0.00  0.00    -0.268 OA
ATOM     10  N   UNL     1       0.790  -6.240  -0.078  0.00  0.00    -0.281 N 
ENDROOT
BRANCH   3  11
ATOM     11  C   UNL     1      -3.202  -3.499  -0.016  0.00  0.00    +0.045 A 
ATOM     12  C   UNL     1      -2.289  -2.470  -0.233  0.00  0.00    +0.034 A 
ATOM     13  C   UNL     1      -2.724  -1.159  -0.272  0.00  0.00    +0.045 A 
ATOM     14  C   UNL     1      -4.066  -0.866  -0.096  0.00  0.00    -0.029 A 
ATOM     15  C   UNL     1      -4.979  -1.880   0.121  0.00  0.00    +0.050 A 
ATOM     16  C   UNL     1      -4.556  -3.199   0.157  0.00  0.00    +0.126 A 
ATOM     17  C   UNL     1      -4.532   0.567  -0.140  0.00  0.00    +0.045 C 
ATOM     18 CL   UNL     1      -1.585   0.123  -0.543  0.00  0.00    -0.083 Cl
BRANCH  16  19
ATOM     19  O   UNL     1      -5.454  -4.197   0.364  0.00  0.00    -0.506 OA
ATOM     20  H   UNL     1      -5.588  -4.418   1.296  0.00  0.00    +0.292 HD
ENDBRANCH  16  19
ENDBRANCH   3  11
BRANCH   1  23
ATOM     21  C   UNL     1       0.692  -3.850   3.447  0.00  0.00    +0.162 A 
ATOM     22  C   UNL     1       0.335  -4.633   2.360  0.00  0.00    +0.055 A 
ATOM     23  C   UNL     1       0.432  -4.123   1.079  0.00  0.00    -0.019 A 
ATOM     24  C   UNL     1       0.886  -2.832   0.879  0.00  0.00    +0.009 A 
ATOM     25  C   UNL     1       1.244  -2.046   1.958  0.00  0.00    +0.049 A 
ATOM     26  C   UNL     1       1.143  -2.549   3.245  0.00  0.00    +0.158 A 
BRANCH  26  27
ATOM     27  O   UNL     1       1.489  -1.776   4.309  0.00  0.00    -0.503 OA
ATOM     28  H   UNL     1       2.419  -1.848   4.562  0.00  0.00    +0.292 HD
ENDBRANCH  26  27
BRANCH  21  29
ATOM     29  O   UNL     1       0.596  -4.351   4.708  0.00  0.00    -0.489 OA
BRANCH  29  31
ATOM     30  C   UNL     1      -0.075  -6.010   6.332  0.00  0.00    +0.048 C 
ATOM     31  C   UNL     1       0.022  -5.652   4.848  0.00  0.00    +0.226 C 
ENDBRANCH  29  31
ENDBRANCH  21  29
ENDBRANCH   1  23
BRANCH  10  32
ATOM     32  C   UNL     1       2.247  -6.379  -0.142  0.00  0.00    +0.144 C 
BRANCH  32  33
ATOM     33  C   UNL     1       2.815  -6.361   1.254  0.00  0.00    -0.030 A 
ATOM     34  C   UNL     1       3.180  -5.161   1.836  0.00  0.00    +0.005 A 
ATOM     35  C   UNL     1       3.701  -5.144   3.116  0.00  0.00    +0.003 A 
ATOM     36  C   UNL     1       3.856  -6.327   3.815  0.00  0.00    -0.050 A 
ATOM     37  C   UNL     1       3.489  -7.526   3.234  0.00  0.00    +0.003 A 
ATOM     38  C   UNL     1       2.964  -7.543   1.955  0.00  0.00    +0.005 A 
ATOM     39  C   UNL     1       4.425  -6.309   5.210  0.00  0.00    +0.044 C 
ENDBRANCH  32  33
ENDBRANCH  10  32
TORSDOF 8
