REMARK  Name = ZINC09354934
REMARK  7 active torsions:
REMARK  status: ('A' for Active; 'I' for Inactive)
REMARK    1  A    between atoms: C_4  and  C_7
REMARK    2  A    between atoms: C_7  and  C_8
REMARK    3  A    between atoms: C_8  and  N_9
REMARK    4  A    between atoms: C_12  and  C_13
REMARK    5  A    between atoms: N_14  and  C_15
REMARK    6  A    between atoms: C_20  and  C_21
REMARK    7  A    between atoms: C_20  and  N_60
REMARK                            x       y       z     vdW  Elec       q    Type
REMARK                         _______ _______ _______ _____ _____    ______ ____
ROOT
ATOM      1  N   UNL     1      -0.104   7.365  -1.788  0.00  0.00    -0.224 N 
ATOM      2  C   UNL     1      -1.277   7.990  -1.555  0.00  0.00    +0.240 C 
ATOM      3  O   UNL     1      -2.285   7.355  -1.308  0.00  0.00    -0.274 OA
ATOM      4  C   UNL     1      -1.302   9.463  -1.601  0.00  0.00    +0.202 C 
ATOM      5  C   UNL     1      -0.035  10.147  -1.913  0.00  0.00    +0.238 C 
ATOM      6  O   UNL     1       0.022  11.361  -1.974  0.00  0.00    -0.274 OA
ATOM      7  N   UNL     1       1.061   9.390  -2.129  0.00  0.00    -0.239 N 
ATOM      8  C   UNL     1       1.013   8.053  -2.065  0.00  0.00    +0.315 C 
ATOM      9  O   UNL     1       2.036   7.429  -2.270  0.00  0.00    -0.252 OA
ATOM     10  H   UNL     1       1.904   9.825  -2.335  0.00  0.00    +0.159 HD
ENDROOT
BRANCH   4  11
ATOM     11  C   UNL     1      -2.466  10.172  -1.369  0.00  0.00    +0.100 C 
ATOM     12  N   UNL     1      -2.427  11.515  -1.262  0.00  0.00    -0.291 NA
BRANCH  12  13
ATOM     13  C   UNL     1      -3.672  12.277  -1.136  0.00  0.00    +0.101 C 
ATOM     14  C   UNL     1      -4.242  12.559  -2.529  0.00  0.00    +0.008 C 
ATOM     15  C   UNL     1      -5.510  13.406  -2.395  0.00  0.00    -0.076 C 
ATOM     16  C   UNL     1      -4.683  14.423  -0.356  0.00  0.00    -0.076 C 
ATOM     17  C   UNL     1      -3.391  13.606  -0.430  0.00  0.00    +0.008 C 
ATOM     18  N   UNL     1      -5.166  14.681  -1.729  0.00  0.00    +0.382 N 
ATOM     19  H   UNL     1      -4.422  15.145  -2.263  0.00  0.00    -0.081 HD
BRANCH  18  20
ATOM     20  C   UNL     1      -6.350  15.564  -1.690  0.00  0.00    -0.043 C 
BRANCH  20  21
ATOM     21  C   UNL     1      -6.688  15.986  -3.097  0.00  0.00    -0.064 A 
ATOM     22  C   UNL     1      -6.117  17.125  -3.632  0.00  0.00    +0.002 A 
ATOM     23  C   UNL     1      -6.423  17.510  -4.924  0.00  0.00    +0.000 A 
ATOM     24  C   UNL     1      -7.308  16.761  -5.677  0.00  0.00    +0.000 A 
ATOM     25  C   UNL     1      -7.883  15.624  -5.140  0.00  0.00    +0.000 A 
ATOM     26  C   UNL     1      -7.573  15.237  -3.849  0.00  0.00    +0.002 A 
ENDBRANCH  20  21
ENDBRANCH  18  20
ENDBRANCH  12  13
ENDBRANCH   4  11
BRANCH   1  27
ATOM     27  C   UNL     1      -0.051   5.902  -1.742  0.00  0.00    +0.122 C 
BRANCH  27  28
ATOM     28  C   UNL     1       0.282   5.448  -0.320  0.00  0.00    +0.054 C 
BRANCH  28  32
ATOM     29  C   UNL     1       0.435   1.181  -0.189  0.00  0.00    +0.000 A 
ATOM     30  C   UNL     1      -0.758   1.837   0.048  0.00  0.00    +0.000 A 
ATOM     31  C   UNL     1      -0.806   3.218   0.011  0.00  0.00    +0.004 A 
ATOM     32  C   UNL     1       0.336   3.942  -0.273  0.00  0.00    -0.046 A 
ATOM     33  C   UNL     1       1.528   3.286  -0.515  0.00  0.00    +0.004 A 
ATOM     34  C   UNL     1       1.578   1.905  -0.473  0.00  0.00    +0.000 A 
ENDBRANCH  28  32
ENDBRANCH  27  28
ENDBRANCH   1  27
TORSDOF 7
