REMARK  Name = ZINC00919850
REMARK  12 active torsions:
REMARK  status: ('A' for Active; 'I' for Inactive)
REMARK    1  A    between atoms: C_1  and  N_2
REMARK    2  A    between atoms: C_3  and  C_24
REMARK    3  A    between atoms: C_6  and  S_7
REMARK    4  A    between atoms: S_7  and  C_8
REMARK    5  A    between atoms: C_8  and  C_9
REMARK    6  A    between atoms: N_11  and  C_12
REMARK    7  A    between atoms: N_11  and  C_18
REMARK    8  A    between atoms: C_26  and  O_33
REMARK    9  A    between atoms: C_27  and  O_32
REMARK   10  A    between atoms: C_28  and  O_30
REMARK   11  A    between atoms: O_30  and  C_31
REMARK   12  A    between atoms: O_33  and  C_34
REMARK                            x       y       z     vdW  Elec       q    Type
REMARK                         _______ _______ _______ _____ _____    ______ ____
ROOT
ATOM      1  C   UNL     1       3.296  -0.001   5.897  0.00  0.00    +0.153 C 
ATOM      2  N   UNL     1       3.429  -0.684   4.608  0.00  0.00    -0.305 N 
ATOM      3  C   UNL     1       2.499  -0.734   3.594  0.00  0.00    +0.165 A 
ATOM      4  N   UNL     1       3.022  -1.452   2.628  0.00  0.00    -0.128 NA
ATOM      5  N   UNL     1       4.202  -1.842   2.959  0.00  0.00    -0.122 NA
ATOM      6  C   UNL     1       4.500  -1.404   4.161  0.00  0.00    +0.192 A 
ENDROOT
BRANCH   3   7
ATOM      7  C   UNL     1       1.162  -0.104   3.596  0.00  0.00    +0.026 A 
ATOM      8  C   UNL     1       0.506   0.145   2.390  0.00  0.00    +0.061 A 
ATOM      9  C   UNL     1      -0.746   0.735   2.394  0.00  0.00    +0.166 A 
ATOM     10  C   UNL     1      -1.353   1.074   3.599  0.00  0.00    +0.201 A 
ATOM     11  C   UNL     1      -0.698   0.831   4.802  0.00  0.00    +0.166 A 
ATOM     12  C   UNL     1       0.554   0.242   4.803  0.00  0.00    +0.061 A 
BRANCH  11  13
ATOM     13  O   UNL     1      -1.291   1.168   5.979  0.00  0.00    -0.491 OA
ATOM     14  C   UNL     1      -0.564   0.885   7.176  0.00  0.00    +0.277 C 
ENDBRANCH  11  13
BRANCH  10  15
ATOM     15  O   UNL     1      -2.586   1.648   3.601  0.00  0.00    -0.501 OA
ATOM     16  H   UNL     1      -2.570   2.614   3.560  0.00  0.00    +0.292 HD
ENDBRANCH  10  15
BRANCH   9  17
ATOM     17  O   UNL     1      -1.387   0.978   1.219  0.00  0.00    -0.491 OA
ATOM     18  C   UNL     1      -0.708   0.599   0.020  0.00  0.00    +0.277 C 
ENDBRANCH   9  17
ENDBRANCH   3   7
BRANCH   6  19
ATOM     19  S   UNL     1       6.003  -1.692   5.035  0.00  0.00    -0.077 S 
BRANCH  19  20
ATOM     20  C   UNL     1       6.888  -2.695   3.816  0.00  0.00    +0.173 C 
BRANCH  20  21
ATOM     21  C   UNL     1       8.242  -3.071   4.361  0.00  0.00    +0.226 C 
ATOM     22  O   UNL     1       8.540  -2.775   5.499  0.00  0.00    -0.275 OA
ATOM     23  N   UNL     1       9.121  -3.735   3.585  0.00  0.00    -0.295 N 
BRANCH  23  24
ATOM     24  C   UNL     1      10.474  -4.004   4.076  0.00  0.00    +0.076 C 
ATOM     25  C   UNL     1      10.396  -4.847   5.351  0.00  0.00    +0.022 C 
ATOM     26  C   UNL     1      11.810  -5.128   5.864  0.00  0.00    +0.002 C 
ATOM     27  C   UNL     1      12.514  -3.804   6.170  0.00  0.00    +0.000 C 
ATOM     28  C   UNL     1      12.592  -2.962   4.895  0.00  0.00    +0.002 C 
ATOM     29  C   UNL     1      11.178  -2.681   4.382  0.00  0.00    +0.022 C 
ENDBRANCH  23  24
BRANCH  23  30
ATOM     30  C   UNL     1       8.722  -4.188   2.250  0.00  0.00    +0.076 C 
ATOM     31  C   UNL     1       8.770  -5.717   2.195  0.00  0.00    +0.022 C 
ATOM     32  C   UNL     1       8.354  -6.190   0.801  0.00  0.00    +0.002 C 
ATOM     33  C   UNL     1       9.313  -5.612  -0.241  0.00  0.00    +0.000 C 
ATOM     34  C   UNL     1       9.265  -4.083  -0.186  0.00  0.00    +0.002 C 
ATOM     35  C   UNL     1       9.681  -3.610   1.208  0.00  0.00    +0.022 C 
ENDBRANCH  23  30
ENDBRANCH  20  21
ENDBRANCH  19  20
ENDBRANCH   6  19
TORSDOF 9
