REMARK  Name = ZINC13335972
REMARK  9 active torsions:
REMARK  status: ('A' for Active; 'I' for Inactive)
REMARK    1  A    between atoms: C_1  and  C_2
REMARK    2  A    between atoms: C_2  and  C_4
REMARK    3  A    between atoms: C_2  and  N_6
REMARK    4  A    between atoms: C_16  and  S_17
REMARK    5  A    between atoms: S_17  and  C_18
REMARK    6  A    between atoms: C_18  and  C_19
REMARK    7  A    between atoms: N_21  and  C_22
REMARK    8  A    between atoms: C_24  and  C_31
REMARK    9  A    between atoms: C_26  and  C_28
REMARK                            x       y       z     vdW  Elec       q    Type
REMARK                         _______ _______ _______ _____ _____    ______ ____
ROOT
ATOM      1  C   UNL     1      -1.209   1.583   0.017  0.00  0.00    +0.227 C 
ATOM      2  O   UNL     1      -1.269   2.792  -0.067  0.00  0.00    -0.275 OA
ATOM      3  N   UNL     1      -0.011   0.966   0.007  0.00  0.00    -0.285 N 
ATOM      4  H   UNL     1       0.035  -0.003   0.007  0.00  0.00    +0.155 HD
ENDROOT
BRANCH   3   5
ATOM      5  C   UNL     1       1.166   1.723  -0.008  0.00  0.00    +0.035 A 
ATOM      6  C   UNL     1       1.211   2.919  -0.709  0.00  0.00    +0.036 A 
ATOM      7  C   UNL     1       2.381   3.679  -0.722  0.00  0.00    +0.039 A 
ATOM      8  C   UNL     1       3.510   3.230  -0.039  0.00  0.00    +0.026 A 
ATOM      9  C   UNL     1       3.463   2.025   0.659  0.00  0.00    +0.039 A 
ATOM     10  C   UNL     1       2.288   1.273   0.673  0.00  0.00    +0.036 A 
BRANCH   9  11
ATOM     11  C   UNL     1       4.658   1.544   1.386  0.00  0.00    +0.242 C 
ATOM     12  O   UNL     1       4.617   0.494   1.996  0.00  0.00    -0.270 OA
ATOM     13  N   UNL     1       5.793   2.272   1.372  0.00  0.00    -0.325 N 
ATOM     14  H   UNL     1       5.826   3.110   0.886  0.00  0.00    +0.145 HD
ATOM     15  H   UNL     1       6.577   1.956   1.849  0.00  0.00    +0.145 HD
ENDBRANCH   9  11
BRANCH   7  16
ATOM     16  C   UNL     1       2.426   4.957  -1.466  0.00  0.00    +0.242 C 
ATOM     17  O   UNL     1       1.441   5.348  -2.061  0.00  0.00    -0.270 OA
ATOM     18  N   UNL     1       3.558   5.687  -1.482  0.00  0.00    -0.325 N 
ATOM     19  H   UNL     1       4.344   5.375  -1.007  0.00  0.00    +0.145 HD
ATOM     20  H   UNL     1       3.588   6.525  -1.970  0.00  0.00    +0.145 HD
ENDBRANCH   7  16
ENDBRANCH   3   5
BRANCH   1  21
ATOM     21  C   UNL     1      -2.474   0.772   0.133  0.00  0.00    +0.173 C 
BRANCH  21  22
ATOM     22  S   UNL     1      -3.905   1.880   0.118  0.00  0.00    -0.078 S 
BRANCH  22  33
ATOM     23  N   UNL     1      -6.494   1.154   0.294  0.00  0.00    -0.273 N 
ATOM     24  C   UNL     1      -7.525   0.283   0.398  0.00  0.00    +0.263 A 
ATOM     25  O   UNL     1      -8.679   0.670   0.423  0.00  0.00    -0.267 OA
ATOM     26  C   UNL     1      -7.199  -1.147   0.485  0.00  0.00    +0.065 A 
ATOM     27  C   UNL     1      -8.189  -2.122   0.601  0.00  0.00    +0.015 A 
ATOM     28  C   UNL     1      -7.830  -3.440   0.678  0.00  0.00    +0.001 A 
ATOM     29  C   UNL     1      -6.493  -3.815   0.644  0.00  0.00    +0.002 A 
ATOM     30  C   UNL     1      -5.503  -2.880   0.532  0.00  0.00    +0.028 A 
ATOM     31  C   UNL     1      -5.837  -1.524   0.451  0.00  0.00    +0.079 A 
ATOM     32  N   UNL     1      -4.893  -0.569   0.339  0.00  0.00    -0.223 NA
ATOM     33  C   UNL     1      -5.206   0.701   0.262  0.00  0.00    +0.173 A 
BRANCH  23  35
ATOM     34  C   UNL     1      -7.503   3.048   1.467  0.00  0.00    +0.043 C 
ATOM     35  C   UNL     1      -6.762   2.591   0.209  0.00  0.00    +0.202 C 
BRANCH  35  36
ATOM     36  C   UNL     1      -7.611   2.873  -1.004  0.00  0.00    +0.378 C 
ATOM     37  O   UNL     1      -7.957   1.966  -1.724  0.00  0.00    -0.244 OA
ATOM     38  O   UNL     1      -7.984   4.132  -1.285  0.00  0.00    -0.244 OA
ENDBRANCH  35  36
ENDBRANCH  23  35
ENDBRANCH  22  33
ENDBRANCH  21  22
ENDBRANCH   1  21
TORSDOF 8
