REMARK  Name = ZINC35845813
REMARK  6 active torsions:
REMARK  status: ('A' for Active; 'I' for Inactive)
REMARK    1  A    between atoms: C_4  and  C_7
REMARK    2  A    between atoms: C_7  and  C_8
REMARK    3  A    between atoms: C_7  and  N_14
REMARK    4  A    between atoms: C_15  and  C_17
REMARK    5  A    between atoms: C_17  and  N_18
REMARK    6  A    between atoms: C_26  and  C_28
REMARK                            x       y       z     vdW  Elec       q    Type
REMARK                         _______ _______ _______ _____ _____    ______ ____
ROOT
ATOM      1  C   UNL     1       3.722  -2.906  -3.171  0.00  0.00    +0.020 C 
ENDROOT
BRANCH   1   2
ATOM      2  N   UNL     1       3.996  -2.485  -4.551  0.00  0.00    +0.395 N 
ATOM      3  C   UNL     1       2.953  -1.550  -4.992  0.00  0.00    -0.055 C 
ATOM      4  C   UNL     1       3.385  -0.863  -6.294  0.00  0.00    +0.103 C 
ATOM      5  N   UNL     1       3.801  -1.906  -7.241  0.00  0.00    -0.353 N 
ATOM      6  C   UNL     1       3.969  -1.802  -8.583  0.00  0.00    +0.086 A 
ATOM      7  C   UNL     1       4.352  -3.009  -9.053  0.00  0.00    +0.019 A 
ATOM      8  C   UNL     1       4.425  -3.890  -7.952  0.00  0.00    +0.021 A 
ATOM      9  C   UNL     1       4.086  -3.191  -6.859  0.00  0.00    +0.009 A 
ATOM     10  C   UNL     1       4.014  -3.668  -5.429  0.00  0.00    +0.011 C 
ATOM     11  H   UNL     1       4.894  -2.026  -4.590  0.00  0.00    -0.080 HD
BRANCH  10  12
ATOM     12  C   UNL     1       5.219  -4.516  -5.115  0.00  0.00    -0.055 A 
ATOM     13  C   UNL     1       6.432  -3.917  -4.835  0.00  0.00    +0.004 A 
ATOM     14  C   UNL     1       7.538  -4.694  -4.546  0.00  0.00    +0.020 A 
ATOM     15  C   UNL     1       7.430  -6.074  -4.538  0.00  0.00    +0.041 A 
ATOM     16  C   UNL     1       6.215  -6.673  -4.818  0.00  0.00    +0.020 A 
ATOM     17  C   UNL     1       5.109  -5.894  -5.101  0.00  0.00    +0.004 A 
ATOM     18 CL   UNL     1       8.818  -7.051  -4.176  0.00  0.00    -0.084 Cl
ENDBRANCH  10  12
ENDBRANCH   1   2
BRANCH   1  20
ATOM     19  N   UNL     1       3.611  -1.865  -0.930  0.00  0.00    -0.306 N 
ATOM     20  C   UNL     1       3.825  -1.716  -2.253  0.00  0.00    +0.197 C 
ATOM     21  O   UNL     1       4.099  -0.624  -2.704  0.00  0.00    -0.278 OA
ATOM     22  H   UNL     1       3.392  -2.738  -0.569  0.00  0.00    +0.150 HD
BRANCH  19  23
ATOM     23  C   UNL     1       3.711  -0.707  -0.038  0.00  0.00    +0.133 C 
BRANCH  23  27
ATOM     24  C   UNL     1      -0.017   1.378   0.010  0.00  0.00    +0.000 A 
ATOM     25  C   UNL     1       1.171   2.086   0.002  0.00  0.00    +0.000 A 
ATOM     26  C   UNL     1       2.377   1.411  -0.013  0.00  0.00    +0.006 A 
ATOM     27  C   UNL     1       2.396   0.029  -0.020  0.00  0.00    -0.023 A 
ATOM     28  C   UNL     1       1.208  -0.679  -0.012  0.00  0.00    +0.006 A 
ATOM     29  C   UNL     1       0.002  -0.004   0.002  0.00  0.00    +0.000 A 
ENDBRANCH  23  27
BRANCH  23  30
ATOM     30  C   UNL     1       4.044  -1.175   1.356  0.00  0.00    -0.023 A 
ATOM     31  C   UNL     1       3.455  -2.320   1.860  0.00  0.00    +0.006 A 
ATOM     32  C   UNL     1       3.760  -2.748   3.138  0.00  0.00    +0.000 A 
ATOM     33  C   UNL     1       4.654  -2.033   3.912  0.00  0.00    +0.000 A 
ATOM     34  C   UNL     1       5.243  -0.888   3.408  0.00  0.00    +0.000 A 
ATOM     35  C   UNL     1       4.941  -0.462   2.128  0.00  0.00    +0.006 A 
ENDBRANCH  23  30
ENDBRANCH  19  23
ENDBRANCH   1  20
TORSDOF 6
