REMARK  Name = ZINC36764838
REMARK  10 active torsions:
REMARK  status: ('A' for Active; 'I' for Inactive)
REMARK    1  A    between atoms: C_1  and  C_2
REMARK    2  A    between atoms: C_2  and  C_3
REMARK    3  A    between atoms: C_2  and  C_11
REMARK    4  A    between atoms: C_2  and  N_20
REMARK    5  A    between atoms: C_3  and  C_4
REMARK    6  A    between atoms: C_4  and  C_5
REMARK    7  A    between atoms: C_13  and  C_16
REMARK    8  A    between atoms: C_16  and  C_17
REMARK    9  A    between atoms: C_16  and  C_18
REMARK   10  A    between atoms: C_16  and  C_19
REMARK                            x       y       z     vdW  Elec       q    Type
REMARK                         _______ _______ _______ _____ _____    ______ ____
ROOT
ATOM      1  C   UNL     1      -0.019   1.526   0.010  0.00  0.00    -0.003 C 
ATOM      2  C   UNL     1       0.002  -0.004   0.002  0.00  0.00    -0.009 C 
ENDROOT
BRANCH   2   3
ATOM      3  C   UNL     1       0.707  -0.490  -1.238  0.00  0.00    +0.160 A 
ATOM      4  N   UNL     1       0.336  -0.230  -2.496  0.00  0.00    -0.197 NA
ATOM      5  C   UNL     1       1.159  -0.799  -3.333  0.00  0.00    +0.233 A 
ATOM      6  O   UNL     1       2.094  -1.447  -2.626  0.00  0.00    -0.338 OA
ATOM      7  N   UNL     1       1.781  -1.227  -1.259  0.00  0.00    -0.063 NA
BRANCH   5   8
ATOM      8  C   UNL     1       1.074  -0.736  -4.836  0.00  0.00    +0.041 C 
ATOM      9  C   UNL     1       1.166   0.721  -5.292  0.00  0.00    +0.020 C 
ATOM     10  C   UNL     1       2.228  -1.535  -5.446  0.00  0.00    +0.020 C 
ATOM     11  C   UNL     1      -0.257  -1.333  -5.297  0.00  0.00    +0.020 C 
ENDBRANCH   5   8
ENDBRANCH   2   3
BRANCH   2  12
ATOM     12  N   UNL     1      -1.376  -0.512   0.012  0.00  0.00    +0.386 N 
ATOM     13  H   UNL     1      -1.864  -0.178  -0.805  0.00  0.00    -0.089 HD
ATOM     14  H   UNL     1      -1.362  -1.521   0.007  0.00  0.00    -0.089 HD
ATOM     15  H   UNL     1      -1.848  -0.187   0.843  0.00  0.00    -0.089 HD
ENDBRANCH   2  12
BRANCH   2  16
ATOM     16  C   UNL     1       0.742  -0.511   1.242  0.00  0.00    -0.001 C 
BRANCH  16  17
ATOM     17  C   UNL     1      -0.042  -0.124   2.497  0.00  0.00    +0.034 C 
BRANCH  17  18
ATOM     18  C   UNL     1       0.687  -0.623   3.718  0.00  0.00    -0.047 A 
ATOM     19  C   UNL     1       0.420  -1.885   4.215  0.00  0.00    +0.003 A 
ATOM     20  C   UNL     1       1.089  -2.343   5.335  0.00  0.00    +0.000 A 
ATOM     21  C   UNL     1       2.025  -1.539   5.958  0.00  0.00    +0.000 A 
ATOM     22  C   UNL     1       2.293  -0.277   5.460  0.00  0.00    +0.000 A 
ATOM     23  C   UNL     1       1.627   0.179   4.338  0.00  0.00    +0.003 A 
ENDBRANCH  17  18
ENDBRANCH  16  17
ENDBRANCH   2  16
TORSDOF 6
