REMARK  Name = ZINC12856385
REMARK  9 active torsions:
REMARK  status: ('A' for Active; 'I' for Inactive)
REMARK    1  A    between atoms: C_1  and  C_2
REMARK    2  A    between atoms: C_2  and  C_3
REMARK    3  A    between atoms: C_2  and  C_4
REMARK    4  A    between atoms: C_4  and  O_35
REMARK    5  A    between atoms: C_5  and  C_31
REMARK    6  A    between atoms: C_7  and  C_23
REMARK    7  A    between atoms: N_12  and  C_13
REMARK    8  A    between atoms: C_31  and  O_33
REMARK    9  A    between atoms: O_33  and  C_34
REMARK                            x       y       z     vdW  Elec       q    Type
REMARK                         _______ _______ _______ _____ _____    ______ ____
ROOT
ATOM      1  C   UNL     1       2.060  -1.652  -0.115  0.00  0.00    +0.156 C 
ATOM      2  C   UNL     1       3.352  -1.571   0.704  0.00  0.00    +0.173 C 
ATOM      3  C   UNL     1       4.132  -0.327   0.264  0.00  0.00    +0.126 C 
ATOM      4  N   UNL     1       3.272   0.850   0.398  0.00  0.00    -0.318 N 
ATOM      5  C   UNL     1       1.940   0.760   0.272  0.00  0.00    +0.140 C 
ATOM      6  S   UNL     1       1.002   2.184   0.421  0.00  0.00    -0.018 S 
ATOM      7  N   UNL     1       1.313  -0.403   0.040  0.00  0.00    -0.253 N 
ATOM      8  H   UNL     1       3.675   1.714   0.579  0.00  0.00    +0.148 HD
ENDROOT
BRANCH   7   9
ATOM      9  C   UNL     1      -0.084  -0.421  -0.063  0.00  0.00    +0.042 A 
ATOM     10  C   UNL     1      -0.843  -1.063   0.907  0.00  0.00    +0.027 A 
ATOM     11  C   UNL     1      -2.220  -1.087   0.802  0.00  0.00    +0.051 A 
ATOM     12  C   UNL     1      -2.849  -0.462  -0.264  0.00  0.00    +0.162 A 
ATOM     13  C   UNL     1      -2.092   0.184  -1.234  0.00  0.00    +0.164 A 
ATOM     14  C   UNL     1      -0.709   0.202  -1.133  0.00  0.00    +0.073 A 
ATOM     15  O   UNL     1      -2.692   0.806  -2.286  0.00  0.00    -0.485 OA
ATOM     16  C   UNL     1      -4.052   0.450  -2.555  0.00  0.00    +0.270 C 
ATOM     17  C   UNL     1      -4.822   0.454  -1.227  0.00  0.00    +0.270 C 
ATOM     18  O   UNL     1      -4.208  -0.497  -0.350  0.00  0.00    -0.485 OA
ENDBRANCH   7   9
BRANCH   3  19
ATOM     19  C   UNL     1       5.351  -0.163   1.134  0.00  0.00    +0.044 A 
ATOM     20  C   UNL     1       5.225   0.345   2.415  0.00  0.00    +0.131 A 
ATOM     21  C   UNL     1       6.345   0.491   3.215  0.00  0.00    +0.039 A 
ATOM     22  C   UNL     1       7.591   0.140   2.731  0.00  0.00    +0.006 A 
ATOM     23  C   UNL     1       7.720  -0.362   1.450  0.00  0.00    +0.039 A 
ATOM     24  C   UNL     1       6.599  -0.514   0.650  0.00  0.00    +0.131 A 
ATOM     25  F   UNL     1       6.725  -1.005  -0.603  0.00  0.00    -0.205 F 
ATOM     26  F   UNL     1       4.008   0.694   2.887  0.00  0.00    -0.205 F 
ENDBRANCH   3  19
BRANCH   1  28
ATOM     27  C   UNL     1       3.197  -3.161  -1.750  0.00  0.00    +0.012 C 
ATOM     28  C   UNL     1       2.403  -1.863  -1.591  0.00  0.00    +0.034 C 
ATOM     29  C   UNL     1       1.112  -1.953  -2.407  0.00  0.00    +0.012 C 
ENDBRANCH   1  28
BRANCH   2  30
ATOM     30  C   UNL     1       3.016  -1.465   2.170  0.00  0.00    +0.317 C 
ATOM     31  O   UNL     1       1.948  -1.019   2.514  0.00  0.00    -0.250 OA
BRANCH  30  32
ATOM     32  O   UNL     1       3.905  -1.867   3.092  0.00  0.00    -0.468 OA
ATOM     33  C   UNL     1       3.514  -1.736   4.484  0.00  0.00    +0.280 C 
ENDBRANCH  30  32
ENDBRANCH   2  30
BRANCH   1  34
ATOM     34  O   UNL     1       1.265  -2.745   0.351  0.00  0.00    -0.370 OA
ATOM     35  H   UNL     1       0.470  -2.905  -0.175  0.00  0.00    +0.212 HD
ENDBRANCH   1  34
TORSDOF 6
