REMARK  Name = ZINC36346209
REMARK  16 active torsions:
REMARK  status: ('A' for Active; 'I' for Inactive)
REMARK    1  A    between atoms: C_1  and  C_2
REMARK    2  A    between atoms: C_2  and  O_3
REMARK    3  A    between atoms: O_3  and  C_4
REMARK    4  A    between atoms: C_4  and  C_5
REMARK    5  A    between atoms: C_5  and  C_7
REMARK    6  A    between atoms: C_5  and  O_37
REMARK    7  A    between atoms: C_7  and  N_8
REMARK    8  A    between atoms: N_8  and  C_9
REMARK    9  A    between atoms: N_8  and  C_30
REMARK   10  A    between atoms: C_9  and  C_10
REMARK   11  A    between atoms: C_11  and  C_29
REMARK   12  A    between atoms: N_13  and  C_23
REMARK   13  A    between atoms: C_14  and  O_15
REMARK   14  A    between atoms: O_15  and  C_16
REMARK   15  A    between atoms: C_19  and  C_22
REMARK   16  A    between atoms: C_30  and  C_31
REMARK                            x       y       z     vdW  Elec       q    Type
REMARK                         _______ _______ _______ _____ _____    ______ ____
ROOT
ATOM      1  C   UNL     1       3.336  -5.443  -5.399  0.00  0.00    +0.021 A 
ATOM      2  C   UNL     1       2.725  -5.373  -6.655  0.00  0.00    +0.065 A 
ATOM      3  N   UNL     1       3.661  -5.286  -7.565  0.00  0.00    -0.168 NA
ATOM      4  N   UNL     1       4.906  -5.298  -6.923  0.00  0.00    -0.200 N 
ATOM      5  C   UNL     1       4.681  -5.390  -5.584  0.00  0.00    +0.225 A 
ATOM      6  C   UNL     1       1.241  -5.394  -6.916  0.00  0.00    +0.068 C 
ENDROOT
BRANCH   4   7
ATOM      7  C   UNL     1       6.159  -5.223  -7.547  0.00  0.00    +0.069 A 
ATOM      8  C   UNL     1       7.166  -4.444  -6.993  0.00  0.00    +0.028 A 
ATOM      9  C   UNL     1       8.399  -4.372  -7.611  0.00  0.00    +0.002 A 
ATOM     10  C   UNL     1       8.631  -5.074  -8.779  0.00  0.00    +0.000 A 
ATOM     11  C   UNL     1       7.630  -5.850  -9.333  0.00  0.00    +0.002 A 
ATOM     12  C   UNL     1       6.396  -5.931  -8.717  0.00  0.00    +0.028 A 
ENDBRANCH   4   7
BRANCH   1  13
ATOM     13  C   UNL     1       2.627  -5.552  -4.073  0.00  0.00    -0.036 C 
BRANCH  13  14
ATOM     14  N   UNL     1       2.499  -4.216  -3.475  0.00  0.00    +0.386 N 
ATOM     15  H   UNL     1       3.410  -3.787  -3.415  0.00  0.00    -0.081 HD
BRANCH  14  16
ATOM     16  C   UNL     1       1.621  -3.387  -4.311  0.00  0.00    -0.044 C 
BRANCH  16  17
ATOM     17  C   UNL     1       1.588  -1.961  -3.757  0.00  0.00    +0.124 C 
BRANCH  17  18
ATOM     18  O   UNL     1       2.885  -1.374  -3.874  0.00  0.00    -0.391 OA
ATOM     19  H   UNL     1       3.212  -1.320  -4.783  0.00  0.00    +0.210 HD
ENDBRANCH  17  18
BRANCH  17  20
ATOM     20  C   UNL     1       0.578  -1.129  -4.551  0.00  0.00    +0.189 C 
BRANCH  20  21
ATOM     21  O   UNL     1       0.461   0.167  -3.962  0.00  0.00    -0.378 OA
BRANCH  21  23
ATOM     22  C   UNL     1      -0.506   2.382  -3.918  0.00  0.00    +0.034 C 
ATOM     23  C   UNL     1      -0.462   1.029  -4.631  0.00  0.00    +0.156 C 
ENDBRANCH  21  23
ENDBRANCH  20  21
ENDBRANCH  17  20
ENDBRANCH  16  17
ENDBRANCH  14  16
BRANCH  14  24
ATOM     24  C   UNL     1       1.925  -4.335  -2.128  0.00  0.00    -0.046 C 
BRANCH  24  25
ATOM     25  C   UNL     1       2.909  -5.070  -1.216  0.00  0.00    +0.102 C 
ATOM     26  C   UNL     1       2.318  -5.190   0.204  0.00  0.00    +0.032 C 
ATOM     27  C   UNL     1       3.562  -4.947   1.101  0.00  0.00    +0.030 C 
ATOM     28  C   UNL     1       4.346  -3.921   0.245  0.00  0.00    +0.160 C 
ATOM     29  O   UNL     1       4.129  -4.324  -1.118  0.00  0.00    -0.378 OA
ENDBRANCH  24  25
ENDBRANCH  14  24
ENDBRANCH  13  14
ENDBRANCH   1  13
BRANCH   5  30
ATOM     30  O   UNL     1       5.628  -5.426  -4.612  0.00  0.00    -0.438 OA
BRANCH  30  31
ATOM     31  C   UNL     1       6.166  -6.632  -4.290  0.00  0.00    +0.130 A 
ATOM     32  C   UNL     1       5.828  -7.762  -5.021  0.00  0.00    +0.046 A 
ATOM     33  C   UNL     1       6.376  -8.986  -4.691  0.00  0.00    +0.007 A 
ATOM     34  C   UNL     1       7.260  -9.086  -3.633  0.00  0.00    -0.050 A 
ATOM     35  C   UNL     1       7.599  -7.962  -2.903  0.00  0.00    +0.007 A 
ATOM     36  C   UNL     1       7.058  -6.734  -3.232  0.00  0.00    +0.046 A 
ATOM     37  C   UNL     1       7.856 -10.424  -3.275  0.00  0.00    +0.044 C 
ENDBRANCH  30  31
ENDBRANCH   5  30
TORSDOF 13
