REMARK  Name = ZINC35860102
REMARK  10 active torsions:
REMARK  status: ('A' for Active; 'I' for Inactive)
REMARK    1  A    between atoms: C_1  and  C_2
REMARK    2  A    between atoms: C_2  and  C_3
REMARK    3  A    between atoms: C_3  and  C_5
REMARK    4  A    between atoms: C_3  and  O_15
REMARK    5  A    between atoms: N_7  and  C_8
REMARK    6  A    between atoms: N_7  and  C_9
REMARK    7  A    between atoms: C_9  and  C_10
REMARK    8  A    between atoms: O_15  and  C_16
REMARK    9  A    between atoms: C_22  and  C_34
REMARK   10  A    between atoms: C_27  and  C_29
REMARK                            x       y       z     vdW  Elec       q    Type
REMARK                         _______ _______ _______ _____ _____    ______ ____
ROOT
ATOM      1  C   UNL     1       0.344   0.386   3.232  0.00  0.00    +0.122 A 
ATOM      2  C   UNL     1       1.406   1.059   2.644  0.00  0.00    +0.046 A 
ATOM      3  C   UNL     1       1.787   2.292   3.129  0.00  0.00    +0.007 A 
ATOM      4  C   UNL     1       1.116   2.871   4.199  0.00  0.00    -0.040 A 
ATOM      5  C   UNL     1       0.056   2.208   4.777  0.00  0.00    -0.016 A 
ATOM      6  C   UNL     1      -0.330   0.966   4.293  0.00  0.00    +0.051 A 
ATOM      7  C   UNL     1      -0.734   2.792   5.921  0.00  0.00    +0.137 C 
ATOM      8  N   UNL     1      -0.034   3.963   6.458  0.00  0.00    -0.284 N 
ATOM      9  C   UNL     1       0.516   4.926   5.488  0.00  0.00    +0.114 C 
ATOM     10  C   UNL     1       1.600   4.213   4.682  0.00  0.00    +0.054 C 
ATOM     11  C   UNL     1       0.102   4.152   7.785  0.00  0.00    +0.283 C 
ATOM     12  O   UNL     1       0.604   5.177   8.207  0.00  0.00    -0.267 OA
ENDROOT
BRANCH   7  13
ATOM     13  C   UNL     1      -2.098   3.205   5.430  0.00  0.00    -0.022 A 
ATOM     14  C   UNL     1      -2.213   4.066   4.355  0.00  0.00    +0.008 A 
ATOM     15  C   UNL     1      -3.463   4.446   3.904  0.00  0.00    +0.038 A 
ATOM     16  C   UNL     1      -4.600   3.963   4.529  0.00  0.00    +0.123 A 
ATOM     17  C   UNL     1      -4.483   3.101   5.606  0.00  0.00    +0.038 A 
ATOM     18  C   UNL     1      -3.232   2.719   6.052  0.00  0.00    +0.008 A 
ATOM     19  F   UNL     1      -5.822   4.334   4.089  0.00  0.00    -0.205 F 
ENDBRANCH   7  13
BRANCH  11  20
ATOM     20  C   UNL     1      -0.354   3.120   8.723  0.00  0.00    +0.189 A 
ATOM     21  C   UNL     1      -0.392   3.232  10.083  0.00  0.00    +0.054 A 
ATOM     22  C   UNL     1      -0.894   2.017  10.574  0.00  0.00    +0.042 A 
ATOM     23  C   UNL     1      -1.138   1.226   9.506  0.00  0.00    +0.196 A 
ATOM     24  O   UNL     1      -0.816   1.897   8.392  0.00  0.00    -0.458 OA
ENDBRANCH  11  20
BRANCH   1  25
ATOM     25  O   UNL     1      -0.035  -0.833   2.765  0.00  0.00    -0.480 OA
BRANCH  25  26
ATOM     26  C   UNL     1      -1.126  -1.471   3.431  0.00  0.00    +0.258 C 
BRANCH  26  27
ATOM     27  C   UNL     1      -1.956  -2.228   2.425  0.00  0.00    +0.256 C 
ATOM     28  O   UNL     1      -1.483  -2.522   1.348  0.00  0.00    -0.272 OA
ATOM     29  N   UNL     1      -3.223  -2.576   2.722  0.00  0.00    -0.294 N 
ATOM     30  C   UNL     1      -3.762  -2.310   4.059  0.00  0.00    +0.132 C 
BRANCH  29  31
ATOM     31  C   UNL     1      -4.062  -3.221   1.709  0.00  0.00    +0.181 C 
BRANCH  31  32
ATOM     32  C   UNL     1      -3.897  -4.717   1.798  0.00  0.00    +0.122 A 
ATOM     33  C   UNL     1      -4.638  -5.547   2.554  0.00  0.00    +0.046 A 
ATOM     34  C   UNL     1      -4.143  -6.853   2.335  0.00  0.00    +0.041 A 
ATOM     35  C   UNL     1      -3.129  -6.743   1.458  0.00  0.00    +0.195 A 
ATOM     36  O   UNL     1      -2.988  -5.447   1.132  0.00  0.00    -0.466 OA
ENDBRANCH  31  32
ENDBRANCH  29  31
ENDBRANCH  26  27
BRANCH  26  38
ATOM     37  C   UNL     1       0.134  -1.661   5.580  0.00  0.00    +0.008 C 
ATOM     38  C   UNL     1      -0.584  -2.445   4.479  0.00  0.00    +0.051 C 
ENDBRANCH  26  38
ENDBRANCH  25  26
ENDBRANCH   1  25
TORSDOF 8
