REMARK  Name = ZINC35455286
REMARK  10 active torsions:
REMARK  status: ('A' for Active; 'I' for Inactive)
REMARK    1  A    between atoms: C_1  and  C_2
REMARK    2  A    between atoms: C_2  and  C_3
REMARK    3  A    between atoms: C_3  and  N_4
REMARK    4  A    between atoms: N_4  and  C_5
REMARK    5  A    between atoms: C_5  and  C_6
REMARK    6  A    between atoms: N_10  and  C_11
REMARK    7  A    between atoms: C_11  and  C_12
REMARK    8  A    between atoms: C_15  and  C_17
REMARK    9  A    between atoms: C_22  and  C_25
REMARK   10  A    between atoms: N_30  and  C_31
REMARK                            x       y       z     vdW  Elec       q    Type
REMARK                         _______ _______ _______ _____ _____    ______ ____
ROOT
ATOM      1  C   UNL     1       0.939  -1.179  -2.804  0.00  0.00    +0.037 A 
ATOM      2  C   UNL     1       1.767  -2.028  -3.446  0.00  0.00    +0.024 A 
ATOM      3  C   UNL     1       2.310  -1.336  -4.546  0.00  0.00    +0.019 A 
ATOM      4  C   UNL     1       1.793  -0.090  -4.535  0.00  0.00    +0.086 A 
ATOM      5  N   UNL     1       0.946   0.010  -3.471  0.00  0.00    -0.342 N 
ENDROOT
BRANCH   1   6
ATOM      6  C   UNL     1       0.138  -1.492  -1.567  0.00  0.00    +0.162 C 
BRANCH   6   7
ATOM      7  N   UNL     1       0.906  -1.113  -0.379  0.00  0.00    -0.280 N 
ATOM      8  C   UNL     1       1.717  -2.012   0.215  0.00  0.00    +0.307 C 
ATOM      9  O   UNL     1       1.882  -3.107  -0.287  0.00  0.00    -0.252 OA
ATOM     10  N   UNL     1       2.344  -1.697   1.365  0.00  0.00    -0.267 N 
ATOM     11  H   UNL     1       2.165  -0.848   1.799  0.00  0.00    +0.156 HD
BRANCH  10  12
ATOM     12  C   UNL     1       3.255  -2.596   1.935  0.00  0.00    +0.070 A 
ATOM     13  C   UNL     1       3.161  -3.952   1.656  0.00  0.00    +0.026 A 
ATOM     14  C   UNL     1       4.060  -4.837   2.220  0.00  0.00    +0.002 A 
ATOM     15  C   UNL     1       5.054  -4.373   3.062  0.00  0.00    +0.003 A 
ATOM     16  C   UNL     1       5.152  -3.022   3.343  0.00  0.00    +0.040 A 
ATOM     17  C   UNL     1       4.258  -2.131   2.778  0.00  0.00    +0.145 A 
ATOM     18  F   UNL     1       4.357  -0.811   3.048  0.00  0.00    -0.204 F 
ENDBRANCH  10  12
BRANCH   7  19
ATOM     19  C   UNL     1       0.794   0.243   0.164  0.00  0.00    +0.109 C 
BRANCH  19  21
ATOM     20  C   UNL     1      -0.507   1.717   1.705  0.00  0.00    +0.005 C 
ATOM     21  C   UNL     1      -0.307   0.278   1.225  0.00  0.00    +0.016 C 
ENDBRANCH  19  21
ENDBRANCH   7  19
ENDBRANCH   6   7
ENDBRANCH   1   6
BRANCH   5  22
ATOM     22  C   UNL     1       0.175   1.200  -3.104  0.00  0.00    +0.195 C 
BRANCH  22  23
ATOM     23  C   UNL     1      -0.979   1.366  -4.059  0.00  0.00    +0.126 A 
ATOM     24  C   UNL     1      -2.238   0.917  -3.859  0.00  0.00    +0.047 A 
ATOM     25  C   UNL     1      -2.991   1.281  -4.986  0.00  0.00    +0.055 A 
ATOM     26  C   UNL     1      -2.143   1.942  -5.828  0.00  0.00    +0.190 A 
ATOM     27  O   UNL     1      -0.927   1.987  -5.245  0.00  0.00    -0.453 OA
BRANCH  26  28
ATOM     28  C   UNL     1      -2.493   2.507  -7.135  0.00  0.00    +0.282 C 
ATOM     29  O   UNL     1      -3.655   2.532  -7.495  0.00  0.00    -0.267 OA
ATOM     30  N   UNL     1      -1.528   2.999  -7.937  0.00  0.00    -0.295 N 
ATOM     31  C   UNL     1      -0.110   2.799  -7.611  0.00  0.00    +0.109 C 
ATOM     32  C   UNL     1       0.591   2.170  -8.820  0.00  0.00    +0.032 C 
ATOM     33  C   UNL     1       0.346   3.040 -10.055  0.00  0.00    +0.078 C 
ATOM     34  C   UNL     1      -1.155   3.106 -10.346  0.00  0.00    +0.032 C 
ATOM     35  C   UNL     1      -1.875   3.739  -9.158  0.00  0.00    +0.109 C 
BRANCH  33  36
ATOM     36  C   UNL     1       1.062   2.443 -11.239  0.00  0.00    +0.214 C 
ATOM     37  O   UNL     1       1.704   1.423 -11.108  0.00  0.00    -0.276 OA
ATOM     38  N   UNL     1       0.988   3.043 -12.444  0.00  0.00    -0.329 N 
ATOM     39  H   UNL     1       0.475   3.860 -12.549  0.00  0.00    +0.145 HD
ATOM     40  H   UNL     1       1.449   2.659 -13.206  0.00  0.00    +0.145 HD
ENDBRANCH  33  36
ENDBRANCH  26  28
ENDBRANCH  22  23
ENDBRANCH   5  22
TORSDOF 9
