REMARK  Name = ZINC40316731
REMARK  9 active torsions:
REMARK  status: ('A' for Active; 'I' for Inactive)
REMARK    1  A    between atoms: C_10  and  C_11
REMARK    2  A    between atoms: C_11  and  N_12
REMARK    3  A    between atoms: N_12  and  C_13
REMARK    4  A    between atoms: N_12  and  C_26
REMARK    5  A    between atoms: C_13  and  C_14
REMARK    6  A    between atoms: C_14  and  C_16
REMARK    7  A    between atoms: C_14  and  O_25
REMARK    8  A    between atoms: C_16  and  O_17
REMARK    9  A    between atoms: O_17  and  C_18
REMARK                            x       y       z     vdW  Elec       q    Type
REMARK                         _______ _______ _______ _____ _____    ______ ____
ROOT
ATOM      1  N   UNL     1       5.213   0.795   1.353  0.00  0.00    +0.387 N 
ATOM      2  H   UNL     1       4.338   1.223   1.615  0.00  0.00    -0.081 HD
ENDROOT
BRANCH   1   3
ATOM      3  C   UNL     1       5.442  -0.398   2.179  0.00  0.00    -0.045 C 
ATOM      4  C   UNL     1       6.484  -1.305   1.503  0.00  0.00    +0.009 C 
ATOM      5  C   UNL     1       6.496  -2.694   2.186  0.00  0.00    +0.164 C 
ATOM      6  S   UNL     1       4.775  -2.850   2.815  0.00  0.00    -0.033 S 
ATOM      7  O   UNL     1       4.806  -2.927   4.234  0.00  0.00    -0.174 OA
ATOM      8  O   UNL     1       4.102  -3.859   2.075  0.00  0.00    -0.174 OA
ATOM      9  C   UNL     1       4.118  -1.202   2.318  0.00  0.00    +0.151 C 
ENDBRANCH   1   3
BRANCH   1  10
ATOM     10  C   UNL     1       5.165   0.408  -0.063  0.00  0.00    -0.042 C 
BRANCH  10  20
ATOM     11  C   UNL     1       0.105   1.164  -0.216  0.00  0.00    +0.001 A 
ATOM     12  C   UNL     1       1.212   1.980   0.013  0.00  0.00    +0.001 A 
ATOM     13  C   UNL     1       2.474   1.472  -0.013  0.00  0.00    +0.009 A 
ATOM     14  C   UNL     1       2.668   0.104  -0.273  0.00  0.00    -0.017 A 
ATOM     15  C   UNL     1       1.542  -0.726  -0.505  0.00  0.00    -0.018 A 
ATOM     16  C   UNL     1       0.254  -0.165  -0.471  0.00  0.00    +0.008 A 
ATOM     17  C   UNL     1       1.736  -2.093  -0.765  0.00  0.00    +0.008 A 
ATOM     18  C   UNL     1       2.999  -2.601  -0.790  0.00  0.00    +0.001 A 
ATOM     19  C   UNL     1       4.105  -1.786  -0.561  0.00  0.00    +0.002 A 
ATOM     20  C   UNL     1       3.956  -0.457  -0.307  0.00  0.00    -0.056 A 
ENDBRANCH  10  20
ENDBRANCH   1  10
BRANCH   1  21
ATOM     21  C   UNL     1       6.308   1.753   1.562  0.00  0.00    -0.043 C 
BRANCH  21  22
ATOM     22  C   UNL     1       6.200   2.351   2.966  0.00  0.00    +0.135 C 
BRANCH  22  23
ATOM     23  O   UNL     1       6.560   1.363   3.934  0.00  0.00    -0.390 OA
ATOM     24  H   UNL     1       7.484   1.082   3.884  0.00  0.00    +0.210 HD
ENDBRANCH  22  23
BRANCH  22  25
ATOM     25  C   UNL     1       7.146   3.548   3.084  0.00  0.00    +0.258 C 
BRANCH  25  26
ATOM     26  O   UNL     1       6.961   4.177   4.354  0.00  0.00    -0.489 OA
BRANCH  26  27
ATOM     27  C   UNL     1       7.730   5.266   4.621  0.00  0.00    +0.121 A 
ATOM     28  C   UNL     1       8.640   5.722   3.678  0.00  0.00    +0.047 A 
ATOM     29  C   UNL     1       9.421   6.828   3.951  0.00  0.00    +0.019 A 
ATOM     30  C   UNL     1       9.296   7.481   5.164  0.00  0.00    +0.018 A 
ATOM     31  C   UNL     1       8.390   7.028   6.106  0.00  0.00    +0.019 A 
ATOM     32  C   UNL     1       7.603   5.925   5.835  0.00  0.00    +0.047 A 
ATOM     33 BR   UNL     1      10.367   8.995   5.535  0.00  0.00    -0.050 Br
ENDBRANCH  26  27
ENDBRANCH  25  26
ENDBRANCH  22  25
ENDBRANCH  21  22
ENDBRANCH   1  21
TORSDOF 9
