REMARK  Name = ZINC07454395
REMARK  10 active torsions:
REMARK  status: ('A' for Active; 'I' for Inactive)
REMARK    1  A    between atoms: C_1  and  C_2
REMARK    2  A    between atoms: C_3  and  C_31
REMARK    3  A    between atoms: N_4  and  C_25
REMARK    4  A    between atoms: C_5  and  N_9
REMARK    5  A    between atoms: C_6  and  C_7
REMARK    6  A    between atoms: C_10  and  C_12
REMARK    7  A    between atoms: C_12  and  N_59
REMARK    8  A    between atoms: C_13  and  N_59
REMARK    9  A    between atoms: C_14  and  N_59
REMARK   10  A    between atoms: C_25  and  C_26
REMARK                            x       y       z     vdW  Elec       q    Type
REMARK                         _______ _______ _______ _____ _____    ______ ____
ROOT
ATOM      1  N   UNL     1      -0.818   2.500   0.232  0.00  0.00    -0.272 N 
ATOM      2  C   UNL     1      -0.502   3.799   0.056  0.00  0.00    +0.202 C 
ATOM      3  O   UNL     1       0.658   4.152   0.100  0.00  0.00    -0.278 OA
ATOM      4  H   UNL     1      -1.743   2.214   0.174  0.00  0.00    +0.156 HD
ENDROOT
BRANCH   1   9
ATOM      5  C   UNL     1       3.309   0.207   2.034  0.00  0.00    +0.047 C 
ATOM      6  C   UNL     1       2.033   0.508   1.291  0.00  0.00    -0.011 A 
ATOM      7  C   UNL     1       1.372  -0.318   0.465  0.00  0.00    +0.022 A 
ATOM      8  N   UNL     1       0.259   0.317  -0.016  0.00  0.00    -0.324 N 
ATOM      9  C   UNL     1       0.180   1.573   0.494  0.00  0.00    +0.124 A 
ATOM     10  C   UNL     1       1.272   1.763   1.330  0.00  0.00    +0.095 A 
ATOM     11  C   UNL     1       1.790  -1.725   0.120  0.00  0.00    +0.064 C 
BRANCH  10  12
ATOM     12  C   UNL     1       1.589   2.941   2.079  0.00  0.00    +0.103 C 
ATOM     13  N   UNL     1       1.842   3.876   2.673  0.00  0.00    -0.191 NA
ENDBRANCH  10  12
BRANCH   8  14
ATOM     14  C   UNL     1      -0.708  -0.273  -0.945  0.00  0.00    +0.197 C 
BRANCH  14  15
ATOM     15  C   UNL     1      -0.360   0.130  -2.355  0.00  0.00    +0.124 A 
ATOM     16  C   UNL     1       0.458  -0.542  -3.185  0.00  0.00    +0.046 A 
ATOM     17  C   UNL     1       0.497   0.184  -4.398  0.00  0.00    +0.041 A 
ATOM     18  C   UNL     1      -0.292   1.261  -4.233  0.00  0.00    +0.195 A 
ATOM     19  O   UNL     1      -0.809   1.222  -2.994  0.00  0.00    -0.466 OA
ENDBRANCH  14  15
ENDBRANCH   8  14
ENDBRANCH   1   9
BRANCH   2  20
ATOM     20  C   UNL     1      -1.589   4.811  -0.196  0.00  0.00    +0.019 C 
BRANCH  20  22
ATOM     21  C   UNL     1      -0.225   6.233  -1.603  0.00  0.00    -0.095 C 
ATOM     22  N   UNL     1      -0.972   6.148  -0.331  0.00  0.00    +0.388 N 
ATOM     23  H   UNL     1      -0.321   6.295   0.449  0.00  0.00    -0.081 HD
BRANCH  22  24
ATOM     24  C   UNL     1      -2.017   7.193  -0.288  0.00  0.00    -0.037 C 
ATOM     25  C   UNL     1      -2.931   7.079  -1.506  0.00  0.00    -0.010 C 
ATOM     26  C   UNL     1      -3.853   8.303  -1.534  0.00  0.00    +0.003 C 
ATOM     27  C   UNL     1      -3.013   9.531  -1.879  0.00  0.00    +0.035 C 
ATOM     28  C   UNL     1      -1.806   9.616  -0.981  0.00  0.00    -0.046 A 
ATOM     29  C   UNL     1      -1.347   8.541  -0.253  0.00  0.00    -0.058 A 
ATOM     30  C   UNL     1      -0.224   8.685   0.552  0.00  0.00    +0.002 A 
ATOM     31  C   UNL     1       0.432   9.896   0.630  0.00  0.00    +0.000 A 
ATOM     32  C   UNL     1      -0.032  10.976  -0.097  0.00  0.00    +0.000 A 
ATOM     33  C   UNL     1      -1.146  10.835  -0.899  0.00  0.00    +0.004 A 
ENDBRANCH  22  24
ENDBRANCH  20  22
ENDBRANCH   2  20
TORSDOF 7
