REMARK  Name = ZINC08440186
REMARK  13 active torsions:
REMARK  status: ('A' for Active; 'I' for Inactive)
REMARK    1  A    between atoms: C_1  and  C_2
REMARK    2  A    between atoms: C_8  and  C_30
REMARK    3  A    between atoms: C_10  and  C_13
REMARK    4  A    between atoms: C_15  and  O_23
REMARK    5  A    between atoms: C_16  and  O_21
REMARK    6  A    between atoms: C_17  and  O_19
REMARK    7  A    between atoms: O_19  and  C_20
REMARK    8  A    between atoms: O_21  and  C_22
REMARK    9  A    between atoms: O_23  and  C_24
REMARK   10  A    between atoms: C_25  and  C_26
REMARK   11  A    between atoms: C_25  and  N_64
REMARK   12  A    between atoms: C_26  and  O_28
REMARK   13  A    between atoms: O_28  and  C_29
REMARK                            x       y       z     vdW  Elec       q    Type
REMARK                         _______ _______ _______ _____ _____    ______ ____
ROOT
ATOM      1  C   UNL     1       2.359   7.021  -0.700  0.00  0.00    +0.044 C 
ATOM      2  C   UNL     1       1.858   5.636  -0.378  0.00  0.00    -0.050 A 
ATOM      3  C   UNL     1       2.497   4.879   0.587  0.00  0.00    +0.005 A 
ATOM      4  C   UNL     1       2.041   3.610   0.881  0.00  0.00    +0.023 A 
ATOM      5  C   UNL     1       0.939   3.097   0.209  0.00  0.00    +0.028 A 
ATOM      6  C   UNL     1       0.297   3.858  -0.758  0.00  0.00    -0.036 A 
ATOM      7  C   UNL     1       0.762   5.128  -1.049  0.00  0.00    +0.007 A 
ATOM      8  C   UNL     1      -0.901   3.319  -1.494  0.00  0.00    -0.001 C 
ATOM      9  C   UNL     1      -0.844   1.412  -0.005  0.00  0.00    +0.049 C 
ATOM     10  N   UNL     1       0.476   1.810   0.506  0.00  0.00    -0.353 N 
ATOM     11  H   UNL     1       1.012   1.197   1.034  0.00  0.00    +0.145 HD
ATOM     12  N   UNL     1      -0.918   1.845  -1.419  0.00  0.00    +0.409 N 
ATOM     13  H   UNL     1      -0.105   1.475  -1.925  0.00  0.00    -0.076 HD
ENDROOT
BRANCH   9  14
ATOM     14  C   UNL     1      -1.926   2.069   0.814  0.00  0.00    -0.037 A 
ATOM     15  C   UNL     1      -1.725   3.333   1.335  0.00  0.00    +0.053 A 
ATOM     16  C   UNL     1      -2.720   3.943   2.084  0.00  0.00    +0.165 A 
ATOM     17  C   UNL     1      -3.917   3.276   2.319  0.00  0.00    +0.204 A 
ATOM     18  C   UNL     1      -4.113   2.003   1.797  0.00  0.00    +0.165 A 
ATOM     19  C   UNL     1      -3.115   1.403   1.045  0.00  0.00    +0.053 A 
BRANCH  18  20
ATOM     20  O   UNL     1      -5.283   1.347   2.024  0.00  0.00    -0.491 OA
ATOM     21  C   UNL     1      -5.415   0.043   1.458  0.00  0.00    +0.277 C 
ENDBRANCH  18  20
BRANCH  17  22
ATOM     22  O   UNL     1      -4.894   3.869   3.058  0.00  0.00    -0.488 OA
ATOM     23  C   UNL     1      -4.868   3.643   4.468  0.00  0.00    +0.277 C 
ENDBRANCH  17  22
BRANCH  16  24
ATOM     24  O   UNL     1      -2.523   5.189   2.592  0.00  0.00    -0.491 OA
ATOM     25  C   UNL     1      -1.311   5.853   2.229  0.00  0.00    +0.277 C 
ENDBRANCH  16  24
ENDBRANCH   9  14
BRANCH   8  26
ATOM     26  C   UNL     1      -0.821   3.725  -2.943  0.00  0.00    -0.057 A 
ATOM     27  C   UNL     1      -0.005   3.026  -3.813  0.00  0.00    +0.002 A 
ATOM     28  C   UNL     1       0.065   3.396  -5.143  0.00  0.00    +0.000 A 
ATOM     29  C   UNL     1      -0.672   4.471  -5.601  0.00  0.00    +0.000 A 
ATOM     30  C   UNL     1      -1.483   5.175  -4.730  0.00  0.00    +0.000 A 
ATOM     31  C   UNL     1      -1.557   4.802  -3.401  0.00  0.00    +0.002 A 
ENDBRANCH   8  26
BRANCH  12  32
ATOM     32  C   UNL     1      -2.151   1.321  -2.045  0.00  0.00    +0.048 C 
BRANCH  32  33
ATOM     33  C   UNL     1      -2.060  -0.181  -2.116  0.00  0.00    +0.290 C 
ATOM     34  O   UNL     1      -1.039  -0.741  -1.792  0.00  0.00    -0.253 OA
BRANCH  33  35
ATOM     35  O   UNL     1      -3.113  -0.898  -2.540  0.00  0.00    -0.469 OA
ATOM     36  C   UNL     1      -2.926  -2.332  -2.667  0.00  0.00    +0.280 C 
ENDBRANCH  33  35
ENDBRANCH  32  33
ENDBRANCH  12  32
TORSDOF 8
