REMARK  Name = ZINC09169148
REMARK  6 active torsions:
REMARK  status: ('A' for Active; 'I' for Inactive)
REMARK    1  A    between atoms: C_1  and  C_2
REMARK    2  A    between atoms: C_2  and  C_26
REMARK    3  A    between atoms: C_7  and  N_14
REMARK    4  A    between atoms: N_14  and  S_15
REMARK    5  A    between atoms: S_15  and  C_18
REMARK    6  A    between atoms: C_18  and  C_19
REMARK                            x       y       z     vdW  Elec       q    Type
REMARK                         _______ _______ _______ _____ _____    ______ ____
ROOT
ATOM      1  C   UNL     1      -0.019   1.526   0.010  0.00  0.00    +0.024 C 
ATOM      2  C   UNL     1       0.002  -0.004   0.002  0.00  0.00    +0.076 C 
ATOM      3  C   UNL     1       0.611  -0.495  -1.310  0.00  0.00    +0.244 C 
ATOM      4  O   UNL     1      -0.323  -0.367  -2.374  0.00  0.00    -0.489 OA
ATOM      5  C   UNL     1      -1.036   0.788  -2.440  0.00  0.00    +0.143 A 
ATOM      6  C   UNL     1      -0.722   1.752  -3.383  0.00  0.00    +0.072 A 
ATOM      7  C   UNL     1      -1.450   2.934  -3.433  0.00  0.00    +0.051 A 
ATOM      8  C   UNL     1      -2.492   3.148  -2.539  0.00  0.00    +0.026 A 
ATOM      9  C   UNL     1      -2.808   2.186  -1.599  0.00  0.00    +0.029 A 
ATOM     10  C   UNL     1      -2.084   1.006  -1.548  0.00  0.00    +0.076 A 
ATOM     11  N   UNL     1      -2.396   0.018  -0.601  0.00  0.00    -0.282 N 
ATOM     12  C   UNL     1      -1.405  -0.524   0.143  0.00  0.00    +0.226 C 
ATOM     13  O   UNL     1      -1.648  -1.423   0.919  0.00  0.00    -0.275 OA
ATOM     14  C   UNL     1       0.848  -0.506   1.174  0.00  0.00    +0.024 C 
ATOM     15  H   UNL     1      -3.314  -0.274  -0.481  0.00  0.00    +0.155 HD
ENDROOT
BRANCH   7  16
ATOM     16  N   UNL     1      -1.134   3.909  -4.384  0.00  0.00    -0.220 N 
ATOM     17  H   UNL     1      -0.967   3.653  -5.305  0.00  0.00    +0.173 HD
BRANCH  16  18
ATOM     18  S   UNL     1      -1.045   5.502  -3.939  0.00  0.00    +0.047 S 
ATOM     19  O   UNL     1      -0.733   6.197  -5.138  0.00  0.00    -0.155 OA
ATOM     20  O   UNL     1      -2.261   5.755  -3.250  0.00  0.00    -0.155 OA
BRANCH  18  21
ATOM     21  C   UNL     1       0.354   5.586  -2.787  0.00  0.00    +0.226 C 
BRANCH  21  22
ATOM     22  C   UNL     1       0.530   7.005  -2.312  0.00  0.00    +0.010 A 
ATOM     23  C   UNL     1       1.356   7.869  -3.007  0.00  0.00    +0.008 A 
ATOM     24  C   UNL     1       1.512   9.173  -2.575  0.00  0.00    +0.000 A 
ATOM     25  C   UNL     1       0.852   9.611  -1.442  0.00  0.00    +0.003 A 
ATOM     26  C   UNL     1       0.031   8.748  -0.743  0.00  0.00    +0.038 A 
ATOM     27  C   UNL     1      -0.132   7.443  -1.178  0.00  0.00    +0.128 A 
ATOM     28  F   UNL     1      -0.934   6.598  -0.495  0.00  0.00    -0.205 F 
ENDBRANCH  21  22
ENDBRANCH  18  21
ENDBRANCH  16  18
ENDBRANCH   7  16
TORSDOF 4
