REMARK  Name = ZINC63547661
REMARK  8 active torsions:
REMARK  status: ('A' for Active; 'I' for Inactive)
REMARK    1  A    between atoms: C_1  and  C_2
REMARK    2  A    between atoms: C_4  and  S_15
REMARK    3  A    between atoms: C_5  and  C_14
REMARK    4  A    between atoms: N_7  and  C_8
REMARK    5  A    between atoms: S_15  and  N_18
REMARK    6  A    between atoms: N_18  and  C_19
REMARK    7  A    between atoms: C_19  and  C_20
REMARK    8  A    between atoms: C_20  and  C_21
REMARK                            x       y       z     vdW  Elec       q    Type
REMARK                         _______ _______ _______ _____ _____    ______ ____
ROOT
ATOM      1  S   UNL     1       0.300  -0.234  -2.897  0.00  0.00    +0.058 S 
ATOM      2  O   UNL     1       1.144  -1.065  -3.682  0.00  0.00    -0.153 OA
ATOM      3  O   UNL     1      -1.117  -0.310  -2.962  0.00  0.00    -0.153 OA
ENDROOT
BRANCH   1   6
ATOM      4  C   UNL     1      -0.019   1.526   0.010  0.00  0.00    +0.036 C 
ATOM      5  C   UNL     1       0.002  -0.004   0.002  0.00  0.00    +0.142 C 
ATOM      6  C   UNL     1       0.742  -0.515  -1.214  0.00  0.00    +0.122 C 
ATOM      7  C   UNL     1       1.776  -1.208  -0.786  0.00  0.00    +0.043 C 
ATOM      8  N   UNL     1       1.841  -1.238   0.593  0.00  0.00    -0.266 N 
ATOM      9  N   UNL     1       0.773  -0.514   1.148  0.00  0.00    -0.245 N 
ATOM     10  C   UNL     1       2.770  -1.887  -1.693  0.00  0.00    +0.064 C 
ATOM     11  H   UNL     1       2.526  -1.695   1.106  0.00  0.00    +0.170 HD
BRANCH   9  12
ATOM     12  C   UNL     1       0.499  -0.317   2.504  0.00  0.00    +0.048 A 
ATOM     13  C   UNL     1      -0.609   0.428   2.889  0.00  0.00    +0.025 A 
ATOM     14  C   UNL     1      -0.877   0.620   4.230  0.00  0.00    +0.002 A 
ATOM     15  C   UNL     1      -0.044   0.074   5.189  0.00  0.00    +0.000 A 
ATOM     16  C   UNL     1       1.060  -0.667   4.809  0.00  0.00    +0.002 A 
ATOM     17  C   UNL     1       1.331  -0.869   3.470  0.00  0.00    +0.025 A 
ENDBRANCH   9  12
ENDBRANCH   1   6
BRANCH   1  18
ATOM     18  N   UNL     1       0.707   1.330  -3.255  0.00  0.00    -0.190 NA
ATOM     19  H   UNL     1       0.015   1.974  -3.471  0.00  0.00    +0.148 HD
BRANCH  18  20
ATOM     20  C   UNL     1       2.114   1.741  -3.247  0.00  0.00    +0.110 C 
BRANCH  20  21
ATOM     21  C   UNL     1       2.256   3.088  -3.958  0.00  0.00    +0.050 C 
BRANCH  21  22
ATOM     22  C   UNL     1       3.702   3.511  -3.949  0.00  0.00    -0.040 C 
ATOM     23  C   UNL     1       4.613   3.312  -4.928  0.00  0.00    +0.000 A 
ATOM     24  C   UNL     1       4.534   2.667  -6.244  0.00  0.00    +0.030 A 
ATOM     25  C   UNL     1       5.641   2.620  -7.020  0.00  0.00    +0.042 A 
ATOM     26  C   UNL     1       6.861   3.171  -6.599  0.00  0.00    +0.022 A 
ATOM     27  C   UNL     1       7.011   3.780  -5.404  0.00  0.00    +0.027 A 
ATOM     28  C   UNL     1       5.911   3.887  -4.508  0.00  0.00    +0.043 A 
ATOM     29  N   UNL     1       5.806   4.420  -3.315  0.00  0.00    -0.380 N 
ATOM     30  C   UNL     1       4.426   4.249  -2.846  0.00  0.00    +0.144 C 
ATOM     31 CL   UNL     1       5.552   1.858  -8.577  0.00  0.00    -0.084 Cl
ATOM     32  H   UNL     1       6.520   4.857  -2.825  0.00  0.00    +0.160 HD
ENDBRANCH  21  22
ENDBRANCH  20  21
ENDBRANCH  18  20
ENDBRANCH   1  18
TORSDOF 6
