REMARK  Name = ZINC11553860
REMARK  10 active torsions:
REMARK  status: ('A' for Active; 'I' for Inactive)
REMARK    1  A    between atoms: C_1  and  C_2
REMARK    2  A    between atoms: C_2  and  O_3
REMARK    3  A    between atoms: O_3  and  C_4
REMARK    4  A    between atoms: C_6  and  C_11
REMARK    5  A    between atoms: C_9  and  O_10
REMARK    6  A    between atoms: C_13  and  C_27
REMARK    7  A    between atoms: C_14  and  C_26
REMARK    8  A    between atoms: N_15  and  C_19
REMARK    9  A    between atoms: C_22  and  C_25
REMARK   10  A    between atoms: C_32  and  C_35
REMARK                            x       y       z     vdW  Elec       q    Type
REMARK                         _______ _______ _______ _____ _____    ______ ____
ROOT
ATOM      1  C   UNL     1       1.202  -4.860  -0.225  0.00  0.00    +0.139 C 
ATOM      2  C   UNL     1       2.497  -4.077  -0.303  0.00  0.00    +0.056 C 
ATOM      3  C   UNL     1       2.439  -2.744  -0.096  0.00  0.00    +0.025 C 
ATOM      4  N   UNL     1       1.253  -2.125   0.186  0.00  0.00    -0.255 N 
ATOM      5  C   UNL     1       0.081  -2.768   0.267  0.00  0.00    +0.142 C 
ATOM      6  S   UNL     1      -1.333  -1.871   0.621  0.00  0.00    -0.018 S 
ATOM      7  N   UNL     1      -0.021  -4.099   0.079  0.00  0.00    -0.315 N 
ATOM      8  C   UNL     1       3.702  -1.926  -0.170  0.00  0.00    +0.062 C 
ATOM      9  H   UNL     1      -0.880  -4.545   0.142  0.00  0.00    +0.149 HD
ENDROOT
BRANCH   2  10
ATOM     10  C   UNL     1       3.726  -4.720  -0.590  0.00  0.00    +0.249 C 
ATOM     11  O   UNL     1       4.297  -5.355   0.277  0.00  0.00    -0.270 OA
ATOM     12  N   UNL     1       4.262  -4.629  -1.823  0.00  0.00    -0.264 N 
ATOM     13  C   UNL     1       5.515  -5.183  -2.080  0.00  0.00    +0.168 A 
ATOM     14  C   UNL     1       6.349  -5.872  -1.159  0.00  0.00    +0.091 A 
ATOM     15  C   UNL     1       7.437  -6.205  -1.890  0.00  0.00    +0.136 A 
ATOM     16  O   UNL     1       7.225  -5.736  -3.128  0.00  0.00    -0.358 OA
ATOM     17  N   UNL     1       6.156  -5.179  -3.220  0.00  0.00    -0.063 NA
ATOM     18  C   UNL     1       8.650  -6.956  -1.406  0.00  0.00    +0.089 C 
ATOM     19  H   UNL     1       3.777  -4.178  -2.531  0.00  0.00    +0.157 HD
ENDBRANCH   2  10
BRANCH   4  20
ATOM     20  C   UNL     1       1.263  -0.741   0.397  0.00  0.00    +0.040 A 
ATOM     21  C   UNL     1       1.561  -0.230   1.653  0.00  0.00    +0.024 A 
ATOM     22  C   UNL     1       1.571   1.136   1.858  0.00  0.00    +0.005 A 
ATOM     23  C   UNL     1       1.284   1.995   0.813  0.00  0.00    -0.050 A 
ATOM     24  C   UNL     1       0.987   1.489  -0.440  0.00  0.00    +0.005 A 
ATOM     25  C   UNL     1       0.976   0.124  -0.651  0.00  0.00    +0.024 A 
ATOM     26  C   UNL     1       1.296   3.485   1.039  0.00  0.00    +0.044 C 
ENDBRANCH   4  20
BRANCH   1  29
ATOM     27  C   UNL     1       1.172  -7.525  -2.903  0.00  0.00    +0.162 A 
ATOM     28  C   UNL     1       1.362  -6.882  -1.690  0.00  0.00    +0.055 A 
ATOM     29  C   UNL     1       1.000  -5.556  -1.547  0.00  0.00    -0.019 A 
ATOM     30  C   UNL     1       0.459  -4.864  -2.615  0.00  0.00    +0.009 A 
ATOM     31  C   UNL     1       0.273  -5.497  -3.829  0.00  0.00    +0.049 A 
ATOM     32  C   UNL     1       0.628  -6.829  -3.978  0.00  0.00    +0.158 A 
BRANCH  32  33
ATOM     33  O   UNL     1       0.445  -7.453  -5.172  0.00  0.00    -0.503 OA
ATOM     34  H   UNL     1       1.203  -7.389  -5.769  0.00  0.00    +0.292 HD
ENDBRANCH  32  33
BRANCH  27  35
ATOM     35  O   UNL     1       1.522  -8.831  -3.044  0.00  0.00    -0.489 OA
BRANCH  35  37
ATOM     36  C   UNL     1       2.405 -10.935  -2.247  0.00  0.00    +0.048 C 
ATOM     37  C   UNL     1       2.075  -9.482  -1.899  0.00  0.00    +0.226 C 
ENDBRANCH  35  37
ENDBRANCH  27  35
ENDBRANCH   1  29
TORSDOF 6
