REMARK  Name = ZINC64816045
REMARK  8 active torsions:
REMARK  status: ('A' for Active; 'I' for Inactive)
REMARK    1  A    between atoms: C_1  and  C_2
REMARK    2  A    between atoms: C_5  and  C_35
REMARK    3  A    between atoms: C_6  and  N_8
REMARK    4  A    between atoms: C_13  and  C_30
REMARK    5  A    between atoms: C_17  and  C_18
REMARK    6  A    between atoms: C_17  and  C_19
REMARK    7  A    between atoms: N_21  and  C_22
REMARK    8  A    between atoms: C_22  and  C_23
REMARK                            x       y       z     vdW  Elec       q    Type
REMARK                         _______ _______ _______ _____ _____    ______ ____
ROOT
ATOM      1  N   UNL     1       0.046  -3.204   2.340  0.00  0.00    -0.250 N 
ATOM      2  C   UNL     1       1.158  -3.709   2.926  0.00  0.00    +0.270 C 
ATOM      3  O   UNL     1       2.252  -3.634   2.399  0.00  0.00    -0.268 OA
ATOM      4  C   UNL     1       0.971  -4.355   4.235  0.00  0.00    +0.125 A 
ATOM      5  C   UNL     1       1.872  -4.797   5.159  0.00  0.00    +0.065 A 
ATOM      6  C   UNL     1       1.088  -5.307   6.218  0.00  0.00    +0.128 A 
ATOM      7  N   UNL     1      -0.182  -5.154   5.886  0.00  0.00    -0.167 NA
ATOM      8  N   UNL     1      -0.287  -4.615   4.734  0.00  0.00    -0.256 N 
ATOM      9  C   UNL     1      -1.493  -4.292   3.960  0.00  0.00    +0.179 C 
ATOM     10  C   UNL     1      -1.211  -3.079   3.070  0.00  0.00    +0.135 C 
ATOM     11  C   UNL     1      -1.153  -1.823   3.942  0.00  0.00    +0.044 C 
ENDROOT
BRANCH   1  17
ATOM     12  C   UNL     1       0.690   0.399  -0.942  0.00  0.00    +0.044 C 
ATOM     13  C   UNL     1       0.416  -1.046  -0.613  0.00  0.00    -0.049 A 
ATOM     14  C   UNL     1       0.223  -1.962  -1.632  0.00  0.00    +0.004 A 
ATOM     15  C   UNL     1      -0.028  -3.288  -1.334  0.00  0.00    +0.005 A 
ATOM     16  C   UNL     1      -0.087  -3.703  -0.018  0.00  0.00    -0.029 A 
ATOM     17  C   UNL     1       0.106  -2.787   1.007  0.00  0.00    +0.041 A 
ATOM     18  C   UNL     1       0.363  -1.456   0.705  0.00  0.00    +0.027 A 
ATOM     19  C   UNL     1      -0.362  -5.149   0.305  0.00  0.00    +0.045 C 
ENDBRANCH   1  17
BRANCH   6  20
ATOM     20  C   UNL     1       1.597  -5.903   7.473  0.00  0.00    +0.155 A 
ATOM     21  C   UNL     1       0.838  -6.396   8.486  0.00  0.00    +0.051 A 
ATOM     22  C   UNL     1       1.730  -6.861   9.473  0.00  0.00    +0.042 A 
ATOM     23  C   UNL     1       2.977  -6.631   9.017  0.00  0.00    +0.196 A 
ATOM     24  O   UNL     1       2.892  -6.057   7.806  0.00  0.00    -0.461 OA
ENDBRANCH   6  20
BRANCH  10  25
ATOM     25  C   UNL     1      -2.336  -2.929   2.079  0.00  0.00    +0.239 C 
ATOM     26  O   UNL     1      -3.112  -3.844   1.900  0.00  0.00    -0.273 OA
ATOM     27  N   UNL     1      -2.481  -1.778   1.393  0.00  0.00    -0.309 N 
ATOM     28  H   UNL     1      -1.819  -1.074   1.481  0.00  0.00    +0.149 HD
BRANCH  27  29
ATOM     29  C   UNL     1      -3.638  -1.590   0.514  0.00  0.00    +0.139 C 
BRANCH  29  30
ATOM     30  C   UNL     1      -3.563  -0.230  -0.131  0.00  0.00    -0.030 A 
ATOM     31  C   UNL     1      -4.142   0.862   0.489  0.00  0.00    +0.006 A 
ATOM     32  C   UNL     1      -4.074   2.109  -0.102  0.00  0.00    +0.020 A 
ATOM     33  C   UNL     1      -3.426   2.265  -1.314  0.00  0.00    +0.041 A 
ATOM     34  C   UNL     1      -2.847   1.173  -1.934  0.00  0.00    +0.020 A 
ATOM     35  C   UNL     1      -2.911  -0.073  -1.340  0.00  0.00    +0.006 A 
ATOM     36 CL   UNL     1      -3.340   3.832  -2.057  0.00  0.00    -0.084 Cl
ENDBRANCH  29  30
ENDBRANCH  27  29
ENDBRANCH  10  25
TORSDOF 5
