REMARK  Name = ZINC32774454
REMARK  7 active torsions:
REMARK  status: ('A' for Active; 'I' for Inactive)
REMARK    1  A    between atoms: C_1  and  S_2
REMARK    2  A    between atoms: S_2  and  C_5
REMARK    3  A    between atoms: C_10  and  N_11
REMARK    4  A    between atoms: C_12  and  C_14
REMARK    5  A    between atoms: C_14  and  S_15
REMARK    6  A    between atoms: S_15  and  C_16
REMARK    7  A    between atoms: N_23  and  C_26
REMARK                            x       y       z     vdW  Elec       q    Type
REMARK                         _______ _______ _______ _____ _____    ______ ____
ROOT
ATOM      1  S   UNL     1      -3.110   2.100  -5.764  0.00  0.00    -0.077 S 
ENDROOT
BRANCH   1   2
ATOM      2  C   UNL     1      -4.600   3.035  -5.667  0.00  0.00    +0.194 A 
ATOM      3  N   UNL     1      -5.120   3.290  -4.471  0.00  0.00    -0.183 NA
ATOM      4  C   UNL     1      -6.238   3.989  -4.344  0.00  0.00    +0.285 A 
ATOM      5  O   UNL     1      -6.760   4.244  -3.121  0.00  0.00    -0.265 OA
ATOM      6  C   UNL     1      -6.872   4.461  -5.509  0.00  0.00    +0.105 A 
ATOM      7  C   UNL     1      -8.039   5.214  -5.767  0.00  0.00    +0.150 A 
ATOM      8  N   UNL     1      -8.156   5.367  -7.055  0.00  0.00    -0.172 NA
ATOM      9  N   UNL     1      -7.090   4.734  -7.705  0.00  0.00    -0.214 N 
ATOM     10  C   UNL     1      -6.286   4.168  -6.756  0.00  0.00    +0.171 A 
ATOM     11  N   UNL     1      -5.157   3.463  -6.788  0.00  0.00    -0.202 NA
BRANCH   9  12
ATOM     12  C   UNL     1      -6.883   4.688  -9.090  0.00  0.00    +0.068 A 
ATOM     13  C   UNL     1      -5.592   4.715  -9.602  0.00  0.00    +0.028 A 
ATOM     14  C   UNL     1      -5.391   4.669 -10.967  0.00  0.00    +0.002 A 
ATOM     15  C   UNL     1      -6.473   4.597 -11.825  0.00  0.00    +0.000 A 
ATOM     16  C   UNL     1      -7.760   4.571 -11.318  0.00  0.00    +0.002 A 
ATOM     17  C   UNL     1      -7.967   4.611  -9.953  0.00  0.00    +0.028 A 
ENDBRANCH   9  12
ENDBRANCH   1   2
BRANCH   1  18
ATOM     18  C   UNL     1      -2.710   1.732  -4.033  0.00  0.00    +0.173 C 
BRANCH  18  20
ATOM     19  N   UNL     1      -0.946   0.533  -2.780  0.00  0.00    -0.283 N 
ATOM     20  C   UNL     1      -1.439   0.924  -3.972  0.00  0.00    +0.228 C 
ATOM     21  O   UNL     1      -0.860   0.627  -4.995  0.00  0.00    -0.275 OA
ATOM     22  H   UNL     1      -1.443   0.713  -1.967  0.00  0.00    +0.155 HD
BRANCH  19  28
ATOM     23  C   UNL     1       1.135   0.080  -1.642  0.00  0.00    +0.109 A 
ATOM     24  C   UNL     1       2.345  -0.584  -1.579  0.00  0.00    +0.029 A 
ATOM     25  C   UNL     1       2.709  -1.457  -2.587  0.00  0.00    +0.002 A 
ATOM     26  C   UNL     1       1.865  -1.668  -3.662  0.00  0.00    +0.002 A 
ATOM     27  C   UNL     1       0.654  -1.008  -3.730  0.00  0.00    +0.025 A 
ATOM     28  C   UNL     1       0.283  -0.134  -2.717  0.00  0.00    +0.058 A 
BRANCH  23  30
ATOM     29  C   UNL     1       0.601   2.821  -1.151  0.00  0.00    +0.200 C 
ATOM     30  S   UNL     1       0.672   1.192  -0.356  0.00  0.00    -0.004 S 
ATOM     31  O   UNL     1       1.749   1.146   0.569  0.00  0.00    -0.170 OA
ATOM     32  O   UNL     1      -0.632   0.778   0.029  0.00  0.00    -0.170 OA
ENDBRANCH  23  30
ENDBRANCH  19  28
ENDBRANCH  18  20
ENDBRANCH   1  18
TORSDOF 6
