REMARK  Name = ZINC58854564
REMARK  5 active torsions:
REMARK  status: ('A' for Active; 'I' for Inactive)
REMARK    1  A    between atoms: C_9  and  O_12
REMARK    2  A    between atoms: O_12  and  C_13
REMARK    3  A    between atoms: C_13  and  C_14
REMARK    4  A    between atoms: N_16  and  C_17
REMARK    5  A    between atoms: C_17  and  C_22
REMARK                            x       y       z     vdW  Elec       q    Type
REMARK                         _______ _______ _______ _____ _____    ______ ____
ROOT
ATOM      1  O   UNL     1       4.875  -2.647  -0.054  0.00  0.00    -0.482 OA
ENDROOT
BRANCH   1  10
ATOM      2  C   UNL     1      -0.016   1.357   0.009  0.00  0.00    +0.001 A 
ATOM      3  C   UNL     1       1.168   2.091   0.002  0.00  0.00    +0.001 A 
ATOM      4  C   UNL     1       2.378   1.468  -0.013  0.00  0.00    +0.010 A 
ATOM      5  C   UNL     1       2.438   0.063  -0.021  0.00  0.00    -0.000 A 
ATOM      6  C   UNL     1       1.232  -0.683  -0.013  0.00  0.00    -0.017 A 
ATOM      7  C   UNL     1       0.002  -0.004   0.002  0.00  0.00    +0.008 A 
ATOM      8  C   UNL     1       1.288  -2.088  -0.020  0.00  0.00    +0.012 A 
ATOM      9  C   UNL     1       2.493  -2.718  -0.034  0.00  0.00    +0.047 A 
ATOM     10  C   UNL     1       3.686  -1.990  -0.041  0.00  0.00    +0.136 A 
ATOM     11  C   UNL     1       3.669  -0.613  -0.036  0.00  0.00    +0.067 A 
ATOM     12 BR   UNL     1       5.290   0.359  -0.046  0.00  0.00    -0.046 Br
ENDBRANCH   1  10
BRANCH   1  13
ATOM     13  C   UNL     1       4.827  -4.076  -0.060  0.00  0.00    +0.324 C 
BRANCH  13  14
ATOM     14  C   UNL     1       6.229  -4.626  -0.074  0.00  0.00    +0.252 C 
ATOM     15  O   UNL     1       7.177  -3.869  -0.079  0.00  0.00    -0.272 OA
ATOM     16  N   UNL     1       6.431  -5.958  -0.082  0.00  0.00    -0.295 N 
ATOM     17  H   UNL     1       5.673  -6.563  -0.078  0.00  0.00    +0.150 HD
BRANCH  16  18
ATOM     18  C   UNL     1       7.795  -6.493  -0.095  0.00  0.00    +0.121 C 
ATOM     19  C   UNL     1       8.517  -6.064  -1.389  0.00  0.00    +0.041 C 
ATOM     20  C   UNL     1       9.380  -7.294  -1.768  0.00  0.00    +0.003 C 
ATOM     21  C   UNL     1       8.459  -8.484  -1.399  0.00  0.00    +0.003 C 
ATOM     22  C   UNL     1       7.758  -8.031  -0.102  0.00  0.00    +0.041 C 
BRANCH  18  23
ATOM     23  C   UNL     1       8.537  -6.011   1.081  0.00  0.00    +0.088 C 
ATOM     24  N   UNL     1       9.109  -5.640   1.989  0.00  0.00    -0.194 NA
ENDBRANCH  18  23
ENDBRANCH  16  18
ENDBRANCH  13  14
ENDBRANCH   1  13
TORSDOF 5
