REMARK  Name = ZINC47407565
REMARK  6 active torsions:
REMARK  status: ('A' for Active; 'I' for Inactive)
REMARK    1  A    between atoms: N_9  and  C_10
REMARK    2  A    between atoms: C_10  and  C_11
REMARK    3  A    between atoms: C_16  and  N_17
REMARK    4  A    between atoms: C_18  and  C_20
REMARK    5  A    between atoms: C_20  and  C_21
REMARK    6  A    between atoms: C_24  and  C_26
REMARK                            x       y       z     vdW  Elec       q    Type
REMARK                         _______ _______ _______ _____ _____    ______ ____
ROOT
ATOM      1  C   UNL     1       5.414  -0.283   1.371  0.00  0.00    -0.009 A 
ATOM      2  C   UNL     1       5.492   0.963   1.962  0.00  0.00    +0.007 A 
ATOM      3  C   UNL     1       5.953   1.088   3.259  0.00  0.00    +0.000 A 
ATOM      4  C   UNL     1       6.337  -0.035   3.970  0.00  0.00    +0.002 A 
ATOM      5  C   UNL     1       6.261  -1.284   3.386  0.00  0.00    +0.023 A 
ATOM      6  C   UNL     1       5.793  -1.412   2.084  0.00  0.00    +0.038 A 
ENDROOT
BRANCH   6   7
ATOM      7  N   UNL     1       5.710  -2.677   1.491  0.00  0.00    -0.285 N 
ATOM      8  C   UNL     1       5.588  -3.776   2.262  0.00  0.00    +0.223 C 
ATOM      9  O   UNL     1       5.449  -3.663   3.462  0.00  0.00    -0.275 OA
ATOM     10  H   UNL     1       5.740  -2.763   0.525  0.00  0.00    +0.155 HD
BRANCH   8  11
ATOM     11  C   UNL     1       5.623  -5.145   1.633  0.00  0.00    +0.152 C 
BRANCH  11  12
ATOM     12  C   UNL     1       5.467  -6.194   2.704  0.00  0.00    +0.058 A 
ATOM     13  C   UNL     1       4.484  -7.128   2.603  0.00  0.00    +0.071 A 
ATOM     14  S   UNL     1       4.770  -8.071   4.096  0.00  0.00    -0.072 S 
ATOM     15  C   UNL     1       6.163  -7.121   4.690  0.00  0.00    +0.144 A 
ATOM     16  N   UNL     1       6.283  -6.210   3.731  0.00  0.00    -0.240 NA
BRANCH  15  17
ATOM     17  C   UNL     1       6.965  -7.303   5.911  0.00  0.00    +0.160 A 
ATOM     18  C   UNL     1       6.785  -8.275   6.848  0.00  0.00    +0.052 A 
ATOM     19  C   UNL     1       7.768  -8.072   7.836  0.00  0.00    +0.042 A 
ATOM     20  C   UNL     1       8.492  -6.999   7.459  0.00  0.00    +0.196 A 
ATOM     21  O   UNL     1       8.008  -6.541   6.293  0.00  0.00    -0.461 OA
ENDBRANCH  15  17
ENDBRANCH  11  12
ENDBRANCH   8  11
ENDBRANCH   6   7
BRANCH   1  22
ATOM     22  C   UNL     1       4.911  -0.418  -0.043  0.00  0.00    +0.142 C 
BRANCH  22  31
ATOM     23  C   UNL     1       0.003   1.417   0.040  0.00  0.00    +0.000 A 
ATOM     24  C   UNL     1       1.198   2.113   0.027  0.00  0.00    +0.002 A 
ATOM     25  C   UNL     1       2.397   1.434   0.005  0.00  0.00    +0.023 A 
ATOM     26  C   UNL     1       2.415   0.037  -0.004  0.00  0.00    +0.033 A 
ATOM     27  C   UNL     1       1.212  -0.651   0.010  0.00  0.00    -0.025 A 
ATOM     28  C   UNL     1       0.013   0.034   0.031  0.00  0.00    +0.005 A 
ATOM     29  C   UNL     1       1.507  -2.135  -0.003  0.00  0.00    +0.056 C 
ATOM     30  C   UNL     1       3.042  -2.223  -0.025  0.00  0.00    +0.110 C 
ATOM     31  N   UNL     1       3.506  -0.833  -0.024  0.00  0.00    -0.325 N 
ENDBRANCH  22  31
ENDBRANCH   1  22
TORSDOF 6
