REMARK  Name = ZINC39708092
REMARK  5 active torsions:
REMARK  status: ('A' for Active; 'I' for Inactive)
REMARK    1  A    between atoms: C_1  and  C_2
REMARK    2  A    between atoms: C_5  and  N_9
REMARK    3  A    between atoms: C_10  and  C_12
REMARK    4  A    between atoms: C_12  and  S_13
REMARK    5  A    between atoms: S_13  and  C_14
REMARK                            x       y       z     vdW  Elec       q    Type
REMARK                         _______ _______ _______ _____ _____    ______ ____
ROOT
ATOM      1  C   UNL     1      -0.358  -8.691  -2.732  0.00  0.00    +0.208 C 
ATOM      2  N   UNL     1      -0.336  -9.200  -1.523  0.00  0.00    -0.227 NA
ATOM      3  C   UNL     1      -0.342 -10.655  -1.397  0.00  0.00    +0.252 C 
ATOM      4  C   UNL     1      -1.064 -11.188  -2.626  0.00  0.00    +0.117 C 
ATOM      5  C   UNL     1      -1.983 -12.077  -2.154  0.00  0.00    +0.028 A 
ATOM      6  C   UNL     1      -2.870 -12.965  -2.807  0.00  0.00    +0.050 A 
ATOM      7  C   UNL     1      -3.687 -13.724  -2.024  0.00  0.00    +0.124 A 
ATOM      8  C   UNL     1      -3.700 -13.678  -0.623  0.00  0.00    +0.040 A 
ATOM      9  C   UNL     1      -2.887 -12.869   0.106  0.00  0.00    +0.029 A 
ATOM     10  C   UNL     1      -1.962 -12.015  -0.659  0.00  0.00    +0.046 A 
ATOM     11  N   UNL     1      -1.070 -11.169  -0.246  0.00  0.00    -0.358 N 
ATOM     12  F   UNL     1      -4.538 -14.575  -2.637  0.00  0.00    -0.205 F 
ATOM     13  N   UNL     1      -0.838 -10.676  -3.839  0.00  0.00    -0.147 NA
ATOM     14  N   UNL     1      -0.460  -9.435  -3.860  0.00  0.00    -0.122 NA
ATOM     15  H   UNL     1      -0.913 -10.920   0.678  0.00  0.00    +0.162 HD
ENDROOT
BRANCH   1  16
ATOM     16  S   UNL     1      -0.257  -6.940  -2.898  0.00  0.00    -0.075 S 
BRANCH  16  17
ATOM     17  C   UNL     1      -0.136  -6.343  -1.190  0.00  0.00    +0.173 C 
BRANCH  17  19
ATOM     18  N   UNL     1       0.057  -4.171  -0.023  0.00  0.00    -0.284 N 
ATOM     19  C   UNL     1      -0.042  -4.839  -1.189  0.00  0.00    +0.228 C 
ATOM     20  O   UNL     1      -0.055  -4.230  -2.238  0.00  0.00    -0.275 OA
ATOM     21  H   UNL     1       0.149  -4.660   0.810  0.00  0.00    +0.155 HD
BRANCH  18  26
ATOM     22  C   UNL     1      -0.063   1.502   0.016  0.00  0.00    +0.044 C 
ATOM     23  C   UNL     1      -0.031  -0.005   0.006  0.00  0.00    -0.049 A 
ATOM     24  C   UNL     1      -0.622  -0.701  -1.033  0.00  0.00    +0.005 A 
ATOM     25  C   UNL     1      -0.594  -2.081  -1.045  0.00  0.00    +0.024 A 
ATOM     26  C   UNL     1       0.028  -2.771  -0.013  0.00  0.00    +0.047 A 
ATOM     27  C   UNL     1       0.621  -2.070   1.029  0.00  0.00    +0.039 A 
ATOM     28  C   UNL     1       0.595  -0.688   1.032  0.00  0.00    +0.020 A 
ATOM     29 BR   UNL     1       1.470  -3.004   2.437  0.00  0.00    -0.048 Br
ENDBRANCH  18  26
ENDBRANCH  17  19
ENDBRANCH  16  17
ENDBRANCH   1  16
TORSDOF 4
