REMARK  Name = ZINC09530764
REMARK  13 active torsions:
REMARK  status: ('A' for Active; 'I' for Inactive)
REMARK    1  A    between atoms: C_1  and  C_2
REMARK    2  A    between atoms: C_3  and  C_35
REMARK    3  A    between atoms: N_4  and  C_31
REMARK    4  A    between atoms: C_9  and  C_14
REMARK    5  A    between atoms: C_14  and  C_16
REMARK    6  A    between atoms: C_14  and  N_20
REMARK    7  A    between atoms: C_16  and  C_17
REMARK    8  A    between atoms: C_17  and  S_18
REMARK    9  A    between atoms: S_18  and  C_19
REMARK   10  A    between atoms: C_31  and  C_32
REMARK   11  A    between atoms: C_32  and  N_64
REMARK   12  A    between atoms: C_33  and  N_64
REMARK   13  A    between atoms: C_34  and  N_64
REMARK                            x       y       z     vdW  Elec       q    Type
REMARK                         _______ _______ _______ _____ _____    ______ ____
ROOT
ATOM      1  C   UNL     1      -6.039  -0.841  -4.083  0.00  0.00    +0.046 C 
ATOM      2  C   UNL     1      -6.043   0.556  -4.649  0.00  0.00    -0.017 A 
ATOM      3  C   UNL     1      -6.700   0.975  -5.746  0.00  0.00    +0.021 A 
ATOM      4  N   UNL     1      -6.461   2.308  -5.943  0.00  0.00    -0.331 N 
ATOM      5  C   UNL     1      -5.634   2.787  -4.964  0.00  0.00    +0.146 A 
ATOM      6  C   UNL     1      -5.338   1.713  -4.114  0.00  0.00    +0.066 A 
ATOM      7  C   UNL     1      -4.463   1.957  -2.973  0.00  0.00    +0.169 A 
ATOM      8  N   UNL     1      -3.977   1.215  -1.996  0.00  0.00    -0.209 NA
ATOM      9  C   UNL     1      -3.214   1.960  -1.205  0.00  0.00    +0.173 A 
ATOM     10  N   UNL     1      -3.183   3.191  -1.655  0.00  0.00    -0.147 NA
ATOM     11  N   UNL     1      -3.983   3.230  -2.804  0.00  0.00    -0.201 N 
ATOM     12  C   UNL     1      -4.328   4.206  -3.683  0.00  0.00    +0.227 A 
ATOM     13  N   UNL     1      -5.108   3.992  -4.703  0.00  0.00    -0.218 NA
ATOM     14  C   UNL     1      -7.565   0.109  -6.625  0.00  0.00    +0.064 C 
ENDROOT
BRANCH   9  15
ATOM     15  C   UNL     1      -2.489   1.465   0.020  0.00  0.00    +0.155 C 
BRANCH  15  16
ATOM     16  N   UNL     1      -1.117   1.980   0.018  0.00  0.00    -0.223 N 
ATOM     17  C   UNL     1      -0.014   1.210   0.009  0.00  0.00    +0.254 C 
ATOM     18  O   UNL     1       0.002  -0.004   0.002  0.00  0.00    -0.270 OA
ATOM     19  C   UNL     1       1.174   2.089   0.002  0.00  0.00    +0.049 A 
ATOM     20  C   UNL     1       2.542   1.867  -0.012  0.00  0.00    +0.014 A 
ATOM     21  C   UNL     1       3.413   2.946  -0.014  0.00  0.00    +0.001 A 
ATOM     22  C   UNL     1       2.926   4.239  -0.002  0.00  0.00    +0.001 A 
ATOM     23  C   UNL     1       1.561   4.477   0.012  0.00  0.00    +0.014 A 
ATOM     24  C   UNL     1       0.678   3.409   0.014  0.00  0.00    +0.049 A 
ATOM     25  C   UNL     1      -0.795   3.287   0.027  0.00  0.00    +0.254 C 
ATOM     26  O   UNL     1      -1.583   4.211   0.039  0.00  0.00    -0.270 OA
ENDBRANCH  15  16
BRANCH  15  27
ATOM     27  C   UNL     1      -3.215   1.953   1.275  0.00  0.00    +0.041 C 
BRANCH  27  28
ATOM     28  C   UNL     1      -2.553   1.349   2.515  0.00  0.00    +0.071 C 
BRANCH  28  29
ATOM     29  S   UNL     1      -3.414   1.928   4.003  0.00  0.00    -0.164 S 
ATOM     30  C   UNL     1      -2.519   1.132   5.365  0.00  0.00    +0.084 C 
ENDBRANCH  28  29
ENDBRANCH  27  28
ENDBRANCH  15  27
ENDBRANCH   9  15
BRANCH   4  31
ATOM     31  C   UNL     1      -7.011   3.106  -7.042  0.00  0.00    +0.105 C 
BRANCH  31  32
ATOM     32  C   UNL     1      -6.054   3.058  -8.235  0.00  0.00    -0.058 C 
BRANCH  32  35
ATOM     33  C   UNL     1      -5.614   4.033 -10.407  0.00  0.00    -0.097 C 
ATOM     34  C   UNL     1      -7.841   3.259  -9.856  0.00  0.00    -0.097 C 
ATOM     35  N   UNL     1      -6.611   3.885  -9.326  0.00  0.00    +0.377 N 
ATOM     36  H   UNL     1      -6.843   4.814  -8.957  0.00  0.00    -0.083 HD
ENDBRANCH  32  35
ENDBRANCH  31  32
ENDBRANCH   4  31
TORSDOF 8
