REMARK  Name = ZINC63375940
REMARK  8 active torsions:
REMARK  status: ('A' for Active; 'I' for Inactive)
REMARK    1  A    between atoms: C_1  and  C_2
REMARK    2  A    between atoms: C_2  and  C_3
REMARK    3  A    between atoms: C_2  and  C_4
REMARK    4  A    between atoms: C_7  and  C_10
REMARK    5  A    between atoms: N_28  and  C_31
REMARK    6  A    between atoms: C_36  and  C_37
REMARK    7  A    between atoms: N_39  and  C_40
REMARK    8  A    between atoms: C_40  and  C_41
REMARK                            x       y       z     vdW  Elec       q    Type
REMARK                         _______ _______ _______ _____ _____    ______ ____
ROOT
ATOM      1  C   UNL     1      -5.419  -2.005   0.043  0.00  0.00    +0.135 C 
ATOM      2  C   UNL     1      -5.431  -3.466   0.511  0.00  0.00    +0.131 C 
ATOM      3  C   UNL     1      -6.777  -4.056   0.108  0.00  0.00    -0.034 C 
ATOM      4  C   UNL     1      -7.340  -4.503   1.226  0.00  0.00    -0.001 A 
ATOM      5  C   UNL     1      -8.604  -5.218   1.465  0.00  0.00    +0.010 A 
ATOM      6  C   UNL     1      -8.886  -5.519   2.760  0.00  0.00    +0.001 A 
ATOM      7  C   UNL     1      -8.046  -5.186   3.828  0.00  0.00    +0.002 A 
ATOM      8  C   UNL     1      -6.863  -4.534   3.699  0.00  0.00    +0.026 A 
ATOM      9  C   UNL     1      -6.456  -4.167   2.383  0.00  0.00    +0.043 A 
ATOM     10  N   UNL     1      -5.372  -3.556   1.973  0.00  0.00    -0.375 N 
ATOM     11  C   UNL     1      -7.302  -4.022  -1.308  0.00  0.00    +0.065 C 
ATOM     12  C   UNL     1      -6.315  -3.166  -2.120  0.00  0.00    +0.169 C 
ATOM     13  N   UNL     1      -5.974  -1.973  -1.316  0.00  0.00    -0.264 N 
ATOM     14  C   UNL     1      -6.289  -0.902  -2.055  0.00  0.00    +0.317 C 
ATOM     15  O   UNL     1      -6.033   0.242  -1.735  0.00  0.00    -0.252 OA
ATOM     16  N   UNL     1      -6.919  -1.238  -3.189  0.00  0.00    -0.192 N 
ATOM     17  C   UNL     1      -7.009  -2.600  -3.340  0.00  0.00    +0.248 C 
ATOM     18  O   UNL     1      -7.531  -3.222  -4.240  0.00  0.00    -0.273 OA
ATOM     19  H   UNL     1      -4.655  -3.219   2.533  0.00  0.00    +0.160 HD
ENDROOT
BRANCH   1  23
ATOM     20  C   UNL     1      -1.412  -0.526   0.013  0.00  0.00    -0.045 A 
ATOM     21  C   UNL     1      -2.259  -0.204   1.056  0.00  0.00    +0.004 A 
ATOM     22  C   UNL     1      -3.556  -0.683   1.066  0.00  0.00    +0.006 A 
ATOM     23  C   UNL     1      -4.006  -1.482   0.032  0.00  0.00    -0.025 A 
ATOM     24  C   UNL     1      -3.159  -1.803  -1.012  0.00  0.00    +0.006 A 
ATOM     25  C   UNL     1      -1.863  -1.321  -1.024  0.00  0.00    +0.004 A 
BRANCH  20  27
ATOM     26  C   UNL     1      -0.019   1.526   0.010  0.00  0.00    +0.012 C 
ATOM     27  C   UNL     1       0.002  -0.004   0.002  0.00  0.00    +0.013 C 
ATOM     28  C   UNL     1       0.742  -0.511   1.242  0.00  0.00    +0.012 C 
ENDBRANCH  20  27
ENDBRANCH   1  23
BRANCH  16  29
ATOM     29  C   UNL     1      -7.414  -0.315  -4.114  0.00  0.00    +0.058 A 
ATOM     30  C   UNL     1      -6.612   0.123  -5.158  0.00  0.00    +0.025 A 
ATOM     31  C   UNL     1      -7.103   1.035  -6.072  0.00  0.00    +0.002 A 
ATOM     32  C   UNL     1      -8.396   1.518  -5.954  0.00  0.00    +0.001 A 
ATOM     33  C   UNL     1      -9.206   1.093  -4.923  0.00  0.00    +0.015 A 
ATOM     34  C   UNL     1      -8.725   0.167  -3.995  0.00  0.00    +0.059 A 
BRANCH  34  35
ATOM     35  C   UNL     1      -9.589  -0.296  -2.892  0.00  0.00    +0.246 C 
ATOM     36  O   UNL     1      -9.165  -1.098  -2.083  0.00  0.00    -0.270 OA
ATOM     37  N   UNL     1     -10.848   0.171  -2.781  0.00  0.00    -0.308 N 
ATOM     38  H   UNL     1     -11.187   0.811  -3.427  0.00  0.00    +0.149 HD
BRANCH  37  39
ATOM     39  C   UNL     1     -11.706  -0.289  -1.686  0.00  0.00    +0.131 C 
BRANCH  39  40
ATOM     40  C   UNL     1     -13.053   0.379  -1.789  0.00  0.00    -0.016 C 
ATOM     41  C   UNL     1     -14.143  -0.347  -1.835  0.00  0.00    +0.005 C 
ENDBRANCH  39  40
ENDBRANCH  37  39
ENDBRANCH  34  35
ENDBRANCH  16  29
TORSDOF 6
