REMARK  Name = ZINC35861424
REMARK  8 active torsions:
REMARK  status: ('A' for Active; 'I' for Inactive)
REMARK    1  A    between atoms: C_3  and  C_6
REMARK    2  A    between atoms: C_14  and  O_26
REMARK    3  A    between atoms: C_17  and  C_19
REMARK    4  A    between atoms: O_26  and  C_27
REMARK    5  A    between atoms: C_27  and  C_28
REMARK    6  A    between atoms: C_31  and  C_33
REMARK    7  A    between atoms: N_35  and  C_36
REMARK    8  A    between atoms: C_36  and  C_37
REMARK                            x       y       z     vdW  Elec       q    Type
REMARK                         _______ _______ _______ _____ _____    ______ ____
ROOT
ATOM      1  C   UNL     1       3.808   0.790   0.907  0.00  0.00    +0.283 C 
ATOM      2  O   UNL     1       4.508   1.773   0.750  0.00  0.00    -0.267 OA
ATOM      3  N   UNL     1       4.284  -0.433   0.599  0.00  0.00    -0.284 N 
ATOM      4  C   UNL     1       3.432  -1.630   0.687  0.00  0.00    +0.114 C 
ATOM      5  C   UNL     1       3.276  -2.200  -0.722  0.00  0.00    +0.054 C 
ATOM      6  C   UNL     1       4.611  -2.291  -1.415  0.00  0.00    -0.040 A 
ATOM      7  C   UNL     1       4.716  -3.156  -2.497  0.00  0.00    +0.007 A 
ATOM      8  C   UNL     1       5.904  -3.282  -3.184  0.00  0.00    +0.046 A 
ATOM      9  C   UNL     1       7.008  -2.537  -2.792  0.00  0.00    +0.121 A 
ATOM     10  C   UNL     1       6.905  -1.678  -1.712  0.00  0.00    +0.051 A 
ATOM     11  C   UNL     1       5.708  -1.558  -1.020  0.00  0.00    -0.016 A 
ATOM     12  C   UNL     1       5.670  -0.623   0.158  0.00  0.00    +0.137 C 
ENDROOT
BRANCH  12  13
ATOM     13  C   UNL     1       6.256   0.707  -0.240  0.00  0.00    -0.022 A 
ATOM     14  C   UNL     1       5.654   1.459  -1.232  0.00  0.00    +0.008 A 
ATOM     15  C   UNL     1       6.191   2.679  -1.597  0.00  0.00    +0.038 A 
ATOM     16  C   UNL     1       7.332   3.148  -0.969  0.00  0.00    +0.123 A 
ATOM     17  C   UNL     1       7.934   2.394   0.024  0.00  0.00    +0.038 A 
ATOM     18  C   UNL     1       7.393   1.177   0.391  0.00  0.00    +0.008 A 
ATOM     19  F   UNL     1       7.858   4.340  -1.326  0.00  0.00    -0.205 F 
ENDBRANCH  12  13
BRANCH   1  22
ATOM     20  C   UNL     1       0.578   1.772   2.295  0.00  0.00    +0.042 A 
ATOM     21  C   UNL     1       1.884   2.092   1.894  0.00  0.00    +0.054 A 
ATOM     22  C   UNL     1       2.447   0.936   1.433  0.00  0.00    +0.189 A 
ATOM     23  O   UNL     1       1.530  -0.048   1.544  0.00  0.00    -0.458 OA
ATOM     24  C   UNL     1       0.402   0.453   2.064  0.00  0.00    +0.196 A 
ENDBRANCH   1  22
BRANCH   9  25
ATOM     25  O   UNL     1       8.183  -2.651  -3.466  0.00  0.00    -0.484 OA
BRANCH  25  26
ATOM     26  C   UNL     1       8.213  -3.558  -4.569  0.00  0.00    +0.303 C 
BRANCH  26  27
ATOM     27  C   UNL     1       9.587  -3.551  -5.188  0.00  0.00    +0.143 A 
ATOM     28  C   UNL     1      10.611  -4.362  -4.840  0.00  0.00    +0.049 A 
ATOM     29  C   UNL     1      11.700  -4.026  -5.659  0.00  0.00    +0.055 A 
ATOM     30  C   UNL     1      11.281  -3.015  -6.476  0.00  0.00    +0.190 A 
ATOM     31  O   UNL     1       9.993  -2.744  -6.177  0.00  0.00    -0.452 OA
BRANCH  30  32
ATOM     32  C   UNL     1      12.087  -2.343  -7.500  0.00  0.00    +0.279 C 
ATOM     33  O   UNL     1      13.243  -2.679  -7.681  0.00  0.00    -0.267 OA
ATOM     34  N   UNL     1      11.549  -1.355  -8.241  0.00  0.00    -0.309 N 
ATOM     35  H   UNL     1      10.627  -1.087  -8.097  0.00  0.00    +0.149 HD
BRANCH  34  36
ATOM     36  C   UNL     1      12.354  -0.684  -9.265  0.00  0.00    +0.108 C 
BRANCH  36  37
ATOM     37  C   UNL     1      11.511   0.390  -9.955  0.00  0.00    +0.006 C 
ATOM     38  C   UNL     1      11.224   0.212 -11.447  0.00  0.00    +0.005 C 
ATOM     39  C   UNL     1      12.209   1.286 -10.979  0.00  0.00    +0.005 C 
ENDBRANCH  36  37
ENDBRANCH  34  36
ENDBRANCH  30  32
ENDBRANCH  26  27
ENDBRANCH  25  26
ENDBRANCH   9  25
TORSDOF 8
