REMARK  Name = ZINC01918510
REMARK  10 active torsions:
REMARK  status: ('A' for Active; 'I' for Inactive)
REMARK    1  A    between atoms: C_1  and  C_2
REMARK    2  A    between atoms: C_2  and  C_3
REMARK    3  A    between atoms: C_3  and  O_4
REMARK    4  A    between atoms: O_4  and  C_5
REMARK    5  A    between atoms: C_8  and  C_13
REMARK    6  A    between atoms: C_10  and  O_11
REMARK    7  A    between atoms: O_11  and  C_12
REMARK    8  A    between atoms: C_14  and  C_15
REMARK    9  A    between atoms: C_20  and  C_23
REMARK   10  A    between atoms: C_27  and  N_29
REMARK                            x       y       z     vdW  Elec       q    Type
REMARK                         _______ _______ _______ _____ _____    ______ ____
ROOT
ATOM      1  C   UNL     1       1.934   9.537   0.036  0.00  0.00    +0.243 C 
ATOM      2  O   UNL     1       0.797   9.972   0.050  0.00  0.00    -0.270 OA
ATOM      3  N   UNL     1       2.146   8.206   0.027  0.00  0.00    -0.261 N 
ATOM      4  C   UNL     1       1.068   7.331   0.033  0.00  0.00    +0.165 A 
ATOM      5  N   UNL     1       1.064   6.011   0.031  0.00  0.00    -0.225 NA
ATOM      6  C   UNL     1      -0.070   5.327   0.032  0.00  0.00    +0.080 A 
ATOM      7  C   UNL     1      -1.260   6.001   0.047  0.00  0.00    +0.076 A 
ATOM      8  S   UNL     1      -0.682   7.693   0.051  0.00  0.00    -0.060 S 
ATOM      9  H   UNL     1       3.173   7.813   0.015  0.00  0.00    +0.157 HD
ENDROOT
BRANCH   6  10
ATOM     10  C   UNL     1      -0.050   3.844   0.023  0.00  0.00    +0.003 A 
ATOM     11  C   UNL     1      -1.246   3.128   0.031  0.00  0.00    +0.010 A 
ATOM     12  C   UNL     1      -1.222   1.749   0.017  0.00  0.00    +0.003 A 
ATOM     13  C   UNL     1      -0.013   1.076   0.008  0.00  0.00    +0.033 A 
ATOM     14  C   UNL     1       1.177   1.781   0.000  0.00  0.00    +0.127 A 
ATOM     15  C   UNL     1       1.165   3.161   0.008  0.00  0.00    +0.042 A 
BRANCH  14  16
ATOM     16  N   UNL     1       2.467   1.054  -0.016  0.00  0.00    +0.056 N 
ATOM     17  O   UNL     1       2.479  -0.164  -0.023  0.00  0.00    -0.126 OA
ATOM     18  O   UNL     1       3.515   1.674  -0.023  0.00  0.00    -0.126 OA
ENDBRANCH  14  16
ENDBRANCH   6  10
BRANCH   1  20
ATOM     19  C   UNL     1       2.856  11.792   0.040  0.00  0.00    +0.013 C 
ATOM     20  C   UNL     1       3.068  10.458   0.031  0.00  0.00    +0.068 C 
BRANCH  19  24
ATOM     21  C   UNL     1       6.155  14.462   0.022  0.00  0.00    +0.162 A 
ATOM     22  C   UNL     1       6.372  13.091   0.013  0.00  0.00    +0.050 A 
ATOM     23  C   UNL     1       5.305  12.220   0.019  0.00  0.00    +0.012 A 
ATOM     24  C   UNL     1       3.997  12.718   0.034  0.00  0.00    -0.021 A 
ATOM     25  C   UNL     1       3.779  14.101   0.038  0.00  0.00    +0.057 A 
ATOM     26  C   UNL     1       4.855  14.966   0.037  0.00  0.00    +0.162 A 
BRANCH  26  27
ATOM     27  O   UNL     1       4.647  16.310   0.046  0.00  0.00    -0.491 OA
ATOM     28  C   UNL     1       3.289  16.756   0.062  0.00  0.00    +0.277 C 
ENDBRANCH  26  27
BRANCH  21  29
ATOM     29  O   UNL     1       7.212  15.315   0.015  0.00  0.00    -0.488 OA
BRANCH  29  30
ATOM     30  C   UNL     1       8.516  14.732  -0.001  0.00  0.00    +0.229 C 
BRANCH  30  32
ATOM     31  C   UNL     1      10.967  15.217  -0.025  0.00  0.00    +0.007 C 
ATOM     32  C   UNL     1       9.570  15.841  -0.007  0.00  0.00    +0.038 C 
ENDBRANCH  30  32
ENDBRANCH  29  30
ENDBRANCH  21  29
ENDBRANCH  19  24
ENDBRANCH   1  20
TORSDOF 8
