REMARK  Name = ZINC40036943
REMARK  6 active torsions:
REMARK  status: ('A' for Active; 'I' for Inactive)
REMARK    1  A    between atoms: C_2  and  C_3
REMARK    2  A    between atoms: C_3  and  O_4
REMARK    3  A    between atoms: O_4  and  C_5
REMARK    4  A    between atoms: C_9  and  C_11
REMARK    5  A    between atoms: N_12  and  N_13
REMARK    6  A    between atoms: N_20  and  C_21
REMARK                            x       y       z     vdW  Elec       q    Type
REMARK                         _______ _______ _______ _____ _____    ______ ____
ROOT
ATOM      1  N   UNL     1      -4.996  -6.944  -4.830  0.00  0.00    -0.206 N 
ATOM      2  C   UNL     1      -5.856  -7.980  -4.571  0.00  0.00    +0.223 A 
ATOM      3  N   UNL     1      -6.875  -7.784  -3.759  0.00  0.00    -0.214 NA
ATOM      4  C   UNL     1      -7.731  -8.772  -3.479  0.00  0.00    +0.084 A 
ATOM      5  C   UNL     1      -7.572 -10.014  -4.076  0.00  0.00    +0.050 A 
ATOM      6  C   UNL     1      -6.484 -10.218  -4.934  0.00  0.00    +0.264 A 
ATOM      7  O   UNL     1      -6.306 -11.301  -5.468  0.00  0.00    -0.267 OA
ATOM      8  N   UNL     1      -5.640  -9.190  -5.163  0.00  0.00    -0.248 N 
ATOM      9  C   UNL     1      -8.569 -11.113  -3.826  0.00  0.00    +0.007 C 
ATOM     10  C   UNL     1      -7.899 -12.468  -4.080  0.00  0.00    +0.012 C 
ATOM     11  C   UNL     1      -8.908 -13.589  -3.833  0.00  0.00    +0.001 C 
ATOM     12  C   UNL     1     -10.095 -13.427  -4.785  0.00  0.00    +0.000 C 
ATOM     13  C   UNL     1     -10.764 -12.073  -4.538  0.00  0.00    +0.001 C 
ATOM     14  C   UNL     1      -9.753 -10.952  -4.783  0.00  0.00    +0.012 C 
ATOM     15  C   UNL     1      -9.071 -11.063  -2.385  0.00  0.00    +0.047 C 
ATOM     16  C   UNL     1      -9.529  -9.674  -2.028  0.00  0.00    -0.037 A 
ATOM     17  C   UNL     1      -8.865  -8.564  -2.551  0.00  0.00    +0.004 A 
ATOM     18  C   UNL     1      -9.272  -7.279  -2.201  0.00  0.00    +0.010 A 
ATOM     19  C   UNL     1     -10.343  -7.110  -1.347  0.00  0.00    +0.001 A 
ATOM     20  C   UNL     1     -11.009  -8.213  -0.842  0.00  0.00    +0.000 A 
ATOM     21  C   UNL     1     -10.602  -9.491  -1.181  0.00  0.00    +0.004 A 
ATOM     22  H   UNL     1      -4.202  -7.095  -5.366  0.00  0.00    +0.177 HD
ENDROOT
BRANCH   8  23
ATOM     23  C   UNL     1      -4.536  -9.367  -6.006  0.00  0.00    +0.053 A 
ATOM     24  C   UNL     1      -3.324  -9.801  -5.485  0.00  0.00    +0.026 A 
ATOM     25  C   UNL     1      -2.238  -9.975  -6.319  0.00  0.00    +0.002 A 
ATOM     26  C   UNL     1      -2.355  -9.718  -7.673  0.00  0.00    +0.000 A 
ATOM     27  C   UNL     1      -3.560  -9.285  -8.195  0.00  0.00    +0.002 A 
ATOM     28  C   UNL     1      -4.652  -9.115  -7.367  0.00  0.00    +0.026 A 
ENDBRANCH   8  23
BRANCH   1  30
ATOM     29  C   UNL     1      -4.453  -4.685  -4.567  0.00  0.00    +0.138 C 
ATOM     30  N   UNL     1      -5.266  -5.666  -4.322  0.00  0.00    -0.188 NA
BRANCH  29  35
ATOM     31  C   UNL     1      -4.136  -1.024  -3.788  0.00  0.00    +0.122 A 
ATOM     32  C   UNL     1      -5.275  -0.815  -3.022  0.00  0.00    +0.046 A 
ATOM     33  C   UNL     1      -6.141  -1.860  -2.761  0.00  0.00    +0.004 A 
ATOM     34  C   UNL     1      -5.880  -3.120  -3.260  0.00  0.00    +0.010 A 
ATOM     35  C   UNL     1      -4.736  -3.340  -4.032  0.00  0.00    -0.002 A 
ATOM     36  C   UNL     1      -3.866  -2.282  -4.299  0.00  0.00    +0.055 A 
BRANCH  31  37
ATOM     37  O   UNL     1      -3.289   0.008  -4.041  0.00  0.00    -0.488 OA
BRANCH  37  38
ATOM     38  C   UNL     1      -3.629   1.279  -3.483  0.00  0.00    +0.256 C 
BRANCH  38  40
ATOM     39  C   UNL     1      -2.943   3.478  -4.290  0.00  0.00    +0.007 C 
ATOM     40  C   UNL     1      -2.582   2.293  -3.866  0.00  0.00    +0.006 C 
ENDBRANCH  38  40
ENDBRANCH  37  38
ENDBRANCH  31  37
ENDBRANCH  29  35
ENDBRANCH   1  30
TORSDOF 6
