REMARK  Name = ZINC54215739
REMARK  5 active torsions:
REMARK  status: ('A' for Active; 'I' for Inactive)
REMARK    1  A    between atoms: C_1  and  C_2
REMARK    2  A    between atoms: C_5  and  N_9
REMARK    3  A    between atoms: C_10  and  C_12
REMARK    4  A    between atoms: C_17  and  N_18
REMARK    5  A    between atoms: N_18  and  N_19
REMARK                            x       y       z     vdW  Elec       q    Type
REMARK                         _______ _______ _______ _____ _____    ______ ____
ROOT
ATOM      1  N   UNL     1       0.946  -4.343  -0.060  0.00  0.00    -0.280 N 
ATOM      2  C   UNL     1       0.563  -4.941  -1.206  0.00  0.00    +0.250 C 
ATOM      3  O   UNL     1       0.548  -4.311  -2.245  0.00  0.00    -0.270 OA
ATOM      4  H   UNL     1       1.040  -4.866   0.752  0.00  0.00    +0.155 HD
ENDROOT
BRANCH   1   9
ATOM      5  C   UNL     1       2.006   1.230   0.011  0.00  0.00    +0.044 C 
ATOM      6  C   UNL     1       1.725  -0.251  -0.007  0.00  0.00    -0.049 A 
ATOM      7  C   UNL     1       2.154  -1.021  -1.072  0.00  0.00    +0.005 A 
ATOM      8  C   UNL     1       1.897  -2.378  -1.093  0.00  0.00    +0.025 A 
ATOM      9  C   UNL     1       1.208  -2.969  -0.042  0.00  0.00    +0.048 A 
ATOM     10  C   UNL     1       0.778  -2.192   1.027  0.00  0.00    +0.039 A 
ATOM     11  C   UNL     1       1.043  -0.836   1.044  0.00  0.00    +0.020 A 
ATOM     12 BR   UNL     1      -0.162  -2.991   2.460  0.00  0.00    -0.048 Br
ENDBRANCH   1   9
BRANCH   2  13
ATOM     13  C   UNL     1       0.161  -6.360  -1.198  0.00  0.00    +0.062 A 
ATOM     14  C   UNL     1       0.068  -7.058   0.010  0.00  0.00    +0.015 A 
ATOM     15  C   UNL     1      -0.308  -8.382   0.011  0.00  0.00    +0.004 A 
ATOM     16  C   UNL     1      -0.595  -9.031  -1.180  0.00  0.00    +0.040 A 
ATOM     17  C   UNL     1      -0.507  -8.356  -2.382  0.00  0.00    +0.146 A 
ATOM     18  C   UNL     1      -0.135  -7.016  -2.402  0.00  0.00    +0.089 A 
ATOM     19  F   UNL     1      -0.789  -8.996  -3.538  0.00  0.00    -0.203 F 
BRANCH  18  20
ATOM     20  N   UNL     1      -0.052  -6.332  -3.610  0.00  0.00    -0.280 N 
ATOM     21  H   UNL     1      -0.280  -5.389  -3.650  0.00  0.00    +0.166 HD
BRANCH  20  22
ATOM     22  N   UNL     1       0.351  -6.986  -4.739  0.00  0.00    -0.256 NA
ATOM     23  H   UNL     1      -0.231  -7.790  -4.918  0.00  0.00    +0.140 HD
ATOM     24  H   UNL     1       0.363  -6.363  -5.533  0.00  0.00    +0.140 HD
ENDBRANCH  20  22
ENDBRANCH  18  20
ENDBRANCH   2  13
TORSDOF 4
