REMARK  Name = ZINC23750946
REMARK  10 active torsions:
REMARK  status: ('A' for Active; 'I' for Inactive)
REMARK    1  A    between atoms: C_1  and  C_2
REMARK    2  A    between atoms: C_2  and  O_3
REMARK    3  A    between atoms: O_3  and  C_4
REMARK    4  A    between atoms: C_4  and  C_6
REMARK    5  A    between atoms: C_7  and  C_33
REMARK    6  A    between atoms: C_13  and  C_17
REMARK    7  A    between atoms: C_17  and  C_19
REMARK    8  A    between atoms: C_17  and  N_20
REMARK    9  A    between atoms: C_23  and  C_26
REMARK   10  A    between atoms: C_26  and  C_27
REMARK                            x       y       z     vdW  Elec       q    Type
REMARK                         _______ _______ _______ _____ _____    ______ ____
ROOT
ATOM      1  C   UNL     1       0.595  -2.246   3.185  0.00  0.00    +0.102 A 
ATOM      2  C   UNL     1       0.872  -3.563   3.414  0.00  0.00    -0.015 A 
ATOM      3  C   UNL     1       1.769  -3.919   4.423  0.00  0.00    +0.076 A 
ATOM      4  C   UNL     1       2.215  -5.266   4.846  0.00  0.00    +0.260 A 
ATOM      5  O   UNL     1       1.794  -6.266   4.292  0.00  0.00    -0.267 OA
ATOM      6  N   UNL     1       3.099  -5.357   5.859  0.00  0.00    -0.312 N 
ATOM      7  H   UNL     1       3.401  -6.232   6.148  0.00  0.00    +0.170 HD
ATOM      8  C   UNL     1       3.574  -4.251   6.481  0.00  0.00    +0.097 A 
ATOM      9  N   UNL     1       3.202  -3.049   6.134  0.00  0.00    -0.228 NA
ATOM     10  C   UNL     1       2.336  -2.846   5.149  0.00  0.00    +0.116 A 
ATOM     11  S   UNL     1       1.608  -1.413   4.396  0.00  0.00    -0.062 S 
ATOM     12  C   UNL     1       0.211  -4.630   2.580  0.00  0.00    +0.046 C 
ENDROOT
BRANCH   1  13
ATOM     13  C   UNL     1      -0.304  -1.661   2.188  0.00  0.00    +0.346 C 
ATOM     14  O   UNL     1      -0.926  -2.382   1.431  0.00  0.00    -0.244 OA
BRANCH  13  15
ATOM     15  O   UNL     1      -0.444  -0.321   2.110  0.00  0.00    -0.461 OA
BRANCH  15  17
ATOM     16  C   UNL     1      -1.365   1.709   1.176  0.00  0.00    +0.048 C 
ATOM     17  C   UNL     1      -1.338   0.180   1.114  0.00  0.00    +0.229 C 
ENDBRANCH  15  17
ENDBRANCH  13  15
ENDBRANCH   1  13
BRANCH   8  18
ATOM     18  C   UNL     1       4.561  -4.413   7.609  0.00  0.00    -0.004 C 
ATOM     19  C   UNL     1       5.737  -5.272   7.137  0.00  0.00    -0.005 C 
BRANCH  18  20
ATOM     20  N   UNL     1       5.054  -3.093   8.022  0.00  0.00    +0.386 N 
ATOM     21  C   UNL     1       5.837  -2.500   6.930  0.00  0.00    -0.078 C 
ATOM     22  C   UNL     1       6.284  -1.091   7.325  0.00  0.00    -0.015 C 
ATOM     23  C   UNL     1       7.147  -1.171   8.588  0.00  0.00    -0.010 C 
ATOM     24  C   UNL     1       6.346  -1.857   9.698  0.00  0.00    -0.015 C 
ATOM     25  C   UNL     1       5.896  -3.238   9.216  0.00  0.00    -0.078 C 
ATOM     26  H   UNL     1       4.271  -2.494   8.235  0.00  0.00    -0.081 HD
BRANCH  23  27
ATOM     27  C   UNL     1       7.532   0.241   9.034  0.00  0.00    +0.038 C 
BRANCH  27  28
ATOM     28  C   UNL     1       8.480   0.158  10.203  0.00  0.00    -0.047 A 
ATOM     29  C   UNL     1       7.985   0.129  11.493  0.00  0.00    +0.003 A 
ATOM     30  C   UNL     1       8.855   0.053  12.565  0.00  0.00    +0.000 A 
ATOM     31  C   UNL     1      10.219   0.004  12.347  0.00  0.00    +0.000 A 
ATOM     32  C   UNL     1      10.713   0.032  11.056  0.00  0.00    +0.000 A 
ATOM     33  C   UNL     1       9.844   0.104   9.984  0.00  0.00    +0.003 A 
ENDBRANCH  27  28
ENDBRANCH  23  27
ENDBRANCH  18  20
ENDBRANCH   8  18
TORSDOF 7
