REMARK  Name = ZINC55008627
REMARK  16 active torsions:
REMARK  status: ('A' for Active; 'I' for Inactive)
REMARK    1  A    between atoms: C_1  and  C_2
REMARK    2  A    between atoms: C_2  and  N_3
REMARK    3  A    between atoms: N_3  and  C_4
REMARK    4  A    between atoms: N_3  and  C_6
REMARK    5  A    between atoms: C_4  and  C_5
REMARK    6  A    between atoms: C_6  and  C_7
REMARK    7  A    between atoms: C_7  and  N_8
REMARK    8  A    between atoms: N_17  and  C_18
REMARK    9  A    between atoms: C_18  and  C_20
REMARK   10  A    between atoms: C_23  and  C_25
REMARK   11  A    between atoms: C_25  and  O_26
REMARK   12  A    between atoms: O_26  and  C_27
REMARK   13  A    between atoms: C_29  and  C_36
REMARK   14  A    between atoms: C_32  and  C_33
REMARK   15  A    between atoms: C_33  and  C_34
REMARK   16  A    between atoms: C_33  and  C_35
REMARK                            x       y       z     vdW  Elec       q    Type
REMARK                         _______ _______ _______ _____ _____    ______ ____
ROOT
ATOM      1  N   UNL     1       2.221  -3.726  -0.509  0.00  0.00    -0.314 N 
ATOM      2  C   UNL     1       3.339  -4.403  -0.034  0.00  0.00    +0.068 A 
ATOM      3  C   UNL     1       4.448  -4.002   0.698  0.00  0.00    +0.028 A 
ATOM      4  C   UNL     1       5.422  -4.922   1.032  0.00  0.00    +0.002 A 
ATOM      5  C   UNL     1       5.297  -6.244   0.638  0.00  0.00    +0.002 A 
ATOM      6  C   UNL     1       4.198  -6.653  -0.090  0.00  0.00    +0.028 A 
ATOM      7  C   UNL     1       3.213  -5.736  -0.430  0.00  0.00    +0.066 A 
ATOM      8  N   UNL     1       2.021  -5.844  -1.138  0.00  0.00    -0.326 N 
ATOM      9  C   UNL     1       1.432  -4.617  -1.171  0.00  0.00    +0.201 A 
ATOM     10  N   UNL     1       0.276  -4.334  -1.756  0.00  0.00    -0.140 NA
ATOM     11  H   UNL     1       1.668  -6.654  -1.537  0.00  0.00    +0.169 HD
ENDROOT
BRANCH  10  12
ATOM     12  C   UNL     1      -0.471  -5.319  -2.275  0.00  0.00    +0.305 C 
ATOM     13  O   UNL     1      -0.136  -6.482  -2.127  0.00  0.00    -0.265 OA
BRANCH  12  14
ATOM     14  C   UNL     1      -1.696  -4.997  -3.023  0.00  0.00    +0.192 A 
ATOM     15  C   UNL     1      -2.546  -5.897  -3.594  0.00  0.00    +0.055 A 
ATOM     16  C   UNL     1      -3.574  -5.155  -4.200  0.00  0.00    +0.049 A 
ATOM     17  C   UNL     1      -3.308  -3.850  -3.973  0.00  0.00    +0.143 A 
ATOM     18  O   UNL     1      -2.178  -3.759  -3.258  0.00  0.00    -0.452 OA
BRANCH  17  19
ATOM     19  C   UNL     1      -4.147  -2.689  -4.441  0.00  0.00    +0.303 C 
BRANCH  19  20
ATOM     20  O   UNL     1      -5.124  -2.376  -3.446  0.00  0.00    -0.484 OA
BRANCH  20  21
ATOM     21  C   UNL     1      -5.968  -1.345  -3.713  0.00  0.00    +0.125 A 
ATOM     22  C   UNL     1      -5.862  -0.653  -4.911  0.00  0.00    +0.049 A 
ATOM     23  C   UNL     1      -6.721   0.395  -5.180  0.00  0.00    -0.047 A 
ATOM     24  C   UNL     1      -7.686   0.753  -4.258  0.00  0.00    +0.004 A 
ATOM     25  C   UNL     1      -7.794   0.066  -3.063  0.00  0.00    +0.008 A 
ATOM     26  C   UNL     1      -6.940  -0.986  -2.791  0.00  0.00    -0.003 A 
ATOM     27  C   UNL     1      -6.606   1.147  -6.481  0.00  0.00    +0.044 C 
BRANCH  26  28
ATOM     28  C   UNL     1      -7.062  -1.740  -1.492  0.00  0.00    +0.016 C 
ATOM     29  C   UNL     1      -6.853  -0.776  -0.322  0.00  0.00    +0.012 C 
ATOM     30  C   UNL     1      -8.455  -2.366  -1.394  0.00  0.00    +0.012 C 
ENDBRANCH  26  28
ENDBRANCH  20  21
ENDBRANCH  19  20
ENDBRANCH  17  19
ENDBRANCH  12  14
ENDBRANCH  10  12
BRANCH   1  31
ATOM     31  C   UNL     1       1.937  -2.301  -0.325  0.00  0.00    +0.106 C 
BRANCH  31  32
ATOM     32  C   UNL     1       1.143  -2.102   0.968  0.00  0.00    -0.057 C 
BRANCH  32  33
ATOM     33  N   UNL     1       0.859  -0.673   1.153  0.00  0.00    +0.380 N 
ATOM     34  H   UNL     1       1.723  -0.152   1.127  0.00  0.00    -0.082 HD
BRANCH  33  36
ATOM     35  C   UNL     1      -0.208   1.309   0.188  0.00  0.00    -0.017 C 
ATOM     36  C   UNL     1      -0.026  -0.206   0.077  0.00  0.00    -0.082 C 
ENDBRANCH  33  36
BRANCH  33  37
ATOM     37  C   UNL     1       0.202  -0.468   2.451  0.00  0.00    -0.082 C 
ATOM     38  C   UNL     1       1.177  -0.819   3.577  0.00  0.00    -0.017 C 
ENDBRANCH  33  37
ENDBRANCH  32  33
ENDBRANCH  31  32
ENDBRANCH   1  31
TORSDOF 11
