REMARK  Name = ZINC20569482
REMARK  17 active torsions:
REMARK  status: ('A' for Active; 'I' for Inactive)
REMARK    1  A    between atoms: C_1  and  C_2
REMARK    2  A    between atoms: C_7  and  C_19
REMARK    3  A    between atoms: C_9  and  C_13
REMARK    4  A    between atoms: C_10  and  C_12
REMARK    5  A    between atoms: C_13  and  O_15
REMARK    6  A    between atoms: O_15  and  C_16
REMARK    7  A    between atoms: C_16  and  C_17
REMARK    8  A    between atoms: C_16  and  C_18
REMARK    9  A    between atoms: C_21  and  O_29
REMARK   10  A    between atoms: C_22  and  O_27
REMARK   11  A    between atoms: C_23  and  O_25
REMARK   12  A    between atoms: O_25  and  C_26
REMARK   13  A    between atoms: O_27  and  C_28
REMARK   14  A    between atoms: O_29  and  C_30
REMARK   15  A    between atoms: C_33  and  C_35
REMARK   16  A    between atoms: C_35  and  O_37
REMARK   17  A    between atoms: O_37  and  C_38
REMARK                            x       y       z     vdW  Elec       q    Type
REMARK                         _______ _______ _______ _____ _____    ______ ____
ROOT
ATOM      1  C   UNL     1      -1.653   1.172   2.568  0.00  0.00    +0.009 C 
ATOM      2  C   UNL     1      -2.241   1.436   1.181  0.00  0.00    +0.013 C 
ATOM      3  C   UNL     1      -1.234   2.217   0.333  0.00  0.00    +0.055 C 
ATOM      4  C   UNL     1       0.024   1.402   0.164  0.00  0.00    +0.016 C 
ATOM      5  C   UNL     1      -0.021   0.053   0.133  0.00  0.00    +0.025 C 
ATOM      6  C   UNL     1       1.238  -0.755  -0.057  0.00  0.00    +0.092 C 
ATOM      7  C   UNL     1       2.457   0.070   0.235  0.00  0.00    +0.065 C 
ATOM      8  C   UNL     1       2.399   1.413   0.266  0.00  0.00    +0.016 C 
ATOM      9  N   UNL     1       1.217   2.061   0.037  0.00  0.00    -0.321 N 
ATOM     10  C   UNL     1       3.645   2.209   0.555  0.00  0.00    +0.061 C 
ATOM     11  C   UNL     1      -1.238  -0.636   0.279  0.00  0.00    +0.176 C 
ATOM     12  O   UNL     1      -1.244  -1.850   0.239  0.00  0.00    -0.291 OA
ATOM     13  C   UNL     1      -2.532   0.103   0.483  0.00  0.00    +0.171 C 
ATOM     14  H   UNL     1       1.232   3.122  -0.252  0.00  0.00    +0.152 HD
ENDROOT
BRANCH   6  15
ATOM     15  C   UNL     1       1.302  -1.245  -1.480  0.00  0.00    -0.028 A 
ATOM     16  C   UNL     1       1.316  -0.336  -2.522  0.00  0.00    +0.054 A 
ATOM     17  C   UNL     1       1.380  -0.782  -3.833  0.00  0.00    +0.165 A 
ATOM     18  C   UNL     1       1.419  -2.146  -4.100  0.00  0.00    +0.204 A 
ATOM     19  C   UNL     1       1.399  -3.056  -3.050  0.00  0.00    +0.165 A 
ATOM     20  C   UNL     1       1.340  -2.602  -1.742  0.00  0.00    +0.054 A 
BRANCH  19  21
ATOM     21  O   UNL     1       1.437  -4.391  -3.306  0.00  0.00    -0.491 OA
ATOM     22  C   UNL     1       1.413  -5.269  -2.179  0.00  0.00    +0.277 C 
ENDBRANCH  19  21
BRANCH  18  23
ATOM     23  O   UNL     1       1.478  -2.588  -5.386  0.00  0.00    -0.488 OA
ATOM     24  C   UNL     1       0.234  -2.826  -6.047  0.00  0.00    +0.277 C 
ENDBRANCH  18  23
BRANCH  17  25
ATOM     25  O   UNL     1       1.399   0.113  -4.857  0.00  0.00    -0.491 OA
ATOM     26  C   UNL     1       1.356   1.498  -4.509  0.00  0.00    +0.277 C 
ENDBRANCH  17  25
ENDBRANCH   6  15
BRANCH   7  27
ATOM     27  C   UNL     1       3.690  -0.577   0.483  0.00  0.00    +0.338 C 
ATOM     28  O   UNL     1       3.880  -1.140   1.544  0.00  0.00    -0.245 OA
BRANCH  27  29
ATOM     29  O   UNL     1       4.657  -0.569  -0.459  0.00  0.00    -0.459 OA
BRANCH  29  30
ATOM     30  C   UNL     1       5.877  -1.242  -0.142  0.00  0.00    +0.171 C 
ATOM     31  C   UNL     1       5.782  -2.704  -0.583  0.00  0.00    +0.052 C 
ATOM     32  C   UNL     1       7.038  -0.564  -0.872  0.00  0.00    +0.052 C 
ENDBRANCH  29  30
ENDBRANCH  27  29
ENDBRANCH   7  27
BRANCH  13  33
ATOM     33  C   UNL     1      -3.455  -0.726   1.339  0.00  0.00    +0.318 C 
ATOM     34  O   UNL     1      -3.850  -0.293   2.396  0.00  0.00    -0.250 OA
BRANCH  33  35
ATOM     35  O   UNL     1      -3.840  -1.944   0.927  0.00  0.00    -0.467 OA
ATOM     36  C   UNL     1      -4.730  -2.685   1.802  0.00  0.00    +0.280 C 
ENDBRANCH  33  35
ENDBRANCH  13  33
TORSDOF 9
