REMARK  Name = ZINC35969503
REMARK  12 active torsions:
REMARK  status: ('A' for Active; 'I' for Inactive)
REMARK    1  A    between atoms: C_1  and  C_2
REMARK    2  A    between atoms: C_2  and  O_3
REMARK    3  A    between atoms: O_3  and  C_4
REMARK    4  A    between atoms: C_4  and  C_6
REMARK    5  A    between atoms: C_7  and  C_34
REMARK    6  A    between atoms: C_11  and  C_13
REMARK    7  A    between atoms: C_18  and  C_19
REMARK    8  A    between atoms: C_20  and  C_23
REMARK    9  A    between atoms: C_24  and  N_26
REMARK   10  A    between atoms: N_26  and  C_27
REMARK   11  A    between atoms: C_27  and  C_28
REMARK   12  A    between atoms: C_28  and  C_29
REMARK                            x       y       z     vdW  Elec       q    Type
REMARK                         _______ _______ _______ _____ _____    ______ ____
ROOT
ATOM      1  C   UNL     1       1.390  -2.164  -2.550  0.00  0.00    +0.082 C 
ATOM      2  C   UNL     1       1.600  -3.515  -2.748  0.00  0.00    +0.053 C 
ATOM      3  N   UNL     1       2.276  -3.941  -3.803  0.00  0.00    -0.230 NA
ATOM      4  C   UNL     1       2.794  -3.160  -4.729  0.00  0.00    +0.166 C 
ATOM      5  N   UNL     1       2.697  -1.797  -4.718  0.00  0.00    -0.267 N 
ATOM      6  C   UNL     1       1.950  -1.205  -3.576  0.00  0.00    +0.150 C 
ATOM      7  C   UNL     1       3.294  -1.118  -5.762  0.00  0.00    +0.048 C 
ATOM      8  C   UNL     1       3.923  -1.850  -6.708  0.00  0.00    +0.072 C 
ATOM      9  S   UNL     1       3.670  -3.512  -6.117  0.00  0.00    -0.060 S 
ATOM     10  C   UNL     1       1.056  -4.511  -1.757  0.00  0.00    +0.066 C 
ENDROOT
BRANCH   6  11
ATOM     11  C   UNL     1       0.805  -0.399  -4.133  0.00  0.00    -0.019 A 
ATOM     12  C   UNL     1       0.124  -0.846  -5.251  0.00  0.00    +0.006 A 
ATOM     13  C   UNL     1      -0.926  -0.107  -5.761  0.00  0.00    +0.000 A 
ATOM     14  C   UNL     1      -1.296   1.079  -5.154  0.00  0.00    +0.000 A 
ATOM     15  C   UNL     1      -0.617   1.525  -4.037  0.00  0.00    +0.004 A 
ATOM     16  C   UNL     1       0.431   0.783  -3.523  0.00  0.00    -0.045 A 
ATOM     17  C   UNL     1       1.169   1.267  -2.301  0.00  0.00    +0.044 C 
ENDBRANCH   6  11
BRANCH   7  18
ATOM     18  C   UNL     1       3.246   0.349  -5.842  0.00  0.00    +0.091 C 
ATOM     19  C   UNL     1       3.704   0.979  -6.941  0.00  0.00    +0.239 C 
ATOM     20  O   UNL     1       4.082   0.260  -8.026  0.00  0.00    -0.271 OA
BRANCH  19  21
ATOM     21  N   UNL     1       3.789   2.361  -6.962  0.00  0.00    -0.311 N 
ATOM     22  H   UNL     1       3.589   2.871  -6.162  0.00  0.00    +0.149 HD
BRANCH  21  23
ATOM     23  C   UNL     1       4.182   3.052  -8.193  0.00  0.00    +0.109 C 
BRANCH  23  24
ATOM     24  C   UNL     1       4.319   4.550  -7.915  0.00  0.00    +0.061 C 
BRANCH  24  25
ATOM     25  C   UNL     1       4.723   5.261  -9.181  0.00  0.00    -0.009 A 
ATOM     26  C   UNL     1       3.938   5.807 -10.141  0.00  0.00    +0.011 A 
ATOM     27  C   UNL     1       4.535   6.417 -11.228  0.00  0.00    +0.008 A 
ATOM     28  C   UNL     1       5.888   6.451 -11.302  0.00  0.00    +0.045 A 
ATOM     29  S   UNL     1       6.361   5.610  -9.800  0.00  0.00    -0.102 S 
ENDBRANCH  24  25
ENDBRANCH  23  24
ENDBRANCH  21  23
ENDBRANCH  19  21
ENDBRANCH   7  18
BRANCH   1  30
ATOM     30  C   UNL     1       0.676  -1.698  -1.439  0.00  0.00    +0.339 C 
ATOM     31  O   UNL     1      -0.470  -1.307  -1.571  0.00  0.00    -0.245 OA
BRANCH  30  32
ATOM     32  O   UNL     1       1.259  -1.683  -0.220  0.00  0.00    -0.462 OA
BRANCH  32  34
ATOM     33  C   UNL     1       1.294  -1.223   2.152  0.00  0.00    +0.048 C 
ATOM     34  C   UNL     1       0.439  -1.301   0.886  0.00  0.00    +0.229 C 
ENDBRANCH  32  34
ENDBRANCH  30  32
ENDBRANCH   1  30
TORSDOF 9
