REMARK  Name = ZINC51687558
REMARK  6 active torsions:
REMARK  status: ('A' for Active; 'I' for Inactive)
REMARK    1  A    between atoms: C_1  and  C_2
REMARK    2  A    between atoms: C_3  and  C_14
REMARK    3  A    between atoms: N_6  and  C_7
REMARK    4  A    between atoms: C_14  and  C_16
REMARK    5  A    between atoms: C_14  and  N_17
REMARK    6  A    between atoms: C_24  and  C_27
REMARK                            x       y       z     vdW  Elec       q    Type
REMARK                         _______ _______ _______ _____ _____    ______ ____
ROOT
ATOM      1  C   UNL     1      -0.002  -0.326  -2.526  0.00  0.00    +0.105 C 
ATOM      2  C   UNL     1      -1.432   0.046  -2.922  0.00  0.00    +0.033 C 
ENDROOT
BRANCH   1   3
ATOM      3  N   UNL     1       0.482  -1.401  -3.396  0.00  0.00    -0.293 N 
ATOM      4  C   UNL     1       1.028  -1.106  -4.592  0.00  0.00    +0.303 C 
ATOM      5  O   UNL     1       1.037   0.043  -4.989  0.00  0.00    -0.253 OA
ATOM      6  N   UNL     1       1.564  -2.084  -5.348  0.00  0.00    -0.280 N 
ATOM      7  C   UNL     1       1.458  -3.496  -4.947  0.00  0.00    +0.137 C 
ATOM      8  C   UNL     1       0.927  -4.299  -6.139  0.00  0.00    +0.180 C 
ATOM      9  O   UNL     1       1.732  -4.025  -7.288  0.00  0.00    -0.364 OA
ATOM     10  C   UNL     1       1.700  -2.660  -7.712  0.00  0.00    +0.221 C 
ATOM     11  C   UNL     1       2.266  -1.773  -6.603  0.00  0.00    +0.150 C 
ATOM     12  H   UNL     1       0.409  -2.326  -3.111  0.00  0.00    +0.151 HD
BRANCH  10  13
ATOM     13  C   UNL     1       2.529  -2.501  -8.960  0.00  0.00    +0.241 C 
ATOM     14  O   UNL     1       3.166  -3.441  -9.389  0.00  0.00    -0.273 OA
ATOM     15  N   UNL     1       2.564  -1.316  -9.600  0.00  0.00    -0.327 N 
ATOM     16  H   UNL     1       2.055  -0.565  -9.257  0.00  0.00    +0.145 HD
ATOM     17  H   UNL     1       3.098  -1.214 -10.404  0.00  0.00    +0.145 HD
ENDBRANCH  10  13
ENDBRANCH   1   3
BRANCH   1  20
ATOM     18  C   UNL     1      -0.013   1.508   0.009  0.00  0.00    +0.066 C 
ATOM     19  C   UNL     1       0.011   0.001   0.003  0.00  0.00    +0.047 A 
ATOM     20  C   UNL     1       0.017  -0.793  -1.093  0.00  0.00    +0.013 A 
ATOM     21  C   UNL     1       0.042  -2.123  -0.661  0.00  0.00    +0.140 A 
ATOM     22  N   UNL     1       0.051  -2.129   0.648  0.00  0.00    -0.174 NA
ATOM     23  N   UNL     1       0.038  -0.800   1.092  0.00  0.00    -0.237 N 
BRANCH  23  24
ATOM     24  C   UNL     1       0.049  -0.376   2.428  0.00  0.00    +0.066 A 
ATOM     25  C   UNL     1       0.719   0.787   2.784  0.00  0.00    +0.030 A 
ATOM     26  C   UNL     1       0.728   1.202   4.101  0.00  0.00    +0.040 A 
ATOM     27  C   UNL     1       0.069   0.461   5.066  0.00  0.00    +0.124 A 
ATOM     28  C   UNL     1      -0.600  -0.699   4.714  0.00  0.00    +0.040 A 
ATOM     29  C   UNL     1      -0.617  -1.115   3.397  0.00  0.00    +0.030 A 
ATOM     30  F   UNL     1       0.080   0.869   6.354  0.00  0.00    -0.205 F 
ENDBRANCH  23  24
ENDBRANCH   1  20
TORSDOF 4
