REMARK  Name = ZINC36316843
REMARK  6 active torsions:
REMARK  status: ('A' for Active; 'I' for Inactive)
REMARK    1  A    between atoms: C_1  and  C_2
REMARK    2  A    between atoms: C_4  and  C_39
REMARK    3  A    between atoms: C_9  and  C_28
REMARK    4  A    between atoms: C_11  and  C_19
REMARK    5  A    between atoms: C_22  and  N_25
REMARK    6  A    between atoms: C_28  and  C_30
REMARK                            x       y       z     vdW  Elec       q    Type
REMARK                         _______ _______ _______ _____ _____    ______ ____
ROOT
ATOM      1  C   UNL     1       0.364   1.421   0.084  0.00  0.00    +0.044 C 
ATOM      2  C   UNL     1       0.315  -0.085   0.104  0.00  0.00    -0.050 A 
ATOM      3  C   UNL     1       0.323  -0.795  -1.083  0.00  0.00    +0.008 A 
ATOM      4  C   UNL     1       0.278  -2.174  -1.070  0.00  0.00    -0.029 A 
ATOM      5  C   UNL     1       0.224  -2.862   0.140  0.00  0.00    +0.042 A 
ATOM      6  C   UNL     1       0.217  -2.137   1.327  0.00  0.00    +0.004 A 
ATOM      7  C   UNL     1       0.268  -0.761   1.311  0.00  0.00    +0.011 A 
ATOM      8  C   UNL     1       0.158  -3.155   2.435  0.00  0.00    +0.137 C 
ATOM      9  C   UNL     1      -1.099  -2.962   3.289  0.00  0.00    +0.103 C 
ATOM     10  C   UNL     1      -0.604  -3.124   4.745  0.00  0.00    +0.050 C 
ATOM     11  C   UNL     1       0.873  -2.713   4.660  0.00  0.00    +0.077 C 
ATOM     12  N   UNL     1       1.339  -3.046   3.309  0.00  0.00    -0.271 NA
ATOM     13  C   UNL     1       2.065  -4.354   3.260  0.00  0.00    +0.155 C 
ATOM     14  S   UNL     1       2.948  -4.308   4.880  0.00  0.00    -0.144 S 
ATOM     15  C   UNL     1       1.688  -3.344   5.798  0.00  0.00    +0.090 C 
ATOM     16  C   UNL     1       0.131  -4.487   1.730  0.00  0.00    +0.243 C 
ATOM     17  O   UNL     1       0.083  -5.580   2.253  0.00  0.00    -0.273 OA
ATOM     18  N   UNL     1       0.171  -4.231   0.410  0.00  0.00    -0.283 N 
ATOM     19  C   UNL     1       0.286  -2.937  -2.370  0.00  0.00    +0.045 C 
ATOM     20  H   UNL     1       0.165  -4.918  -0.275  0.00  0.00    +0.155 HD
ENDROOT
BRANCH  10  21
ATOM     21  C   UNL     1      -0.736  -4.556   5.196  0.00  0.00    -0.042 A 
ATOM     22  C   UNL     1       0.342  -5.416   5.091  0.00  0.00    +0.006 A 
ATOM     23  C   UNL     1       0.221  -6.729   5.505  0.00  0.00    +0.033 A 
ATOM     24  C   UNL     1      -0.978  -7.183   6.024  0.00  0.00    +0.126 A 
ATOM     25  C   UNL     1      -2.055  -6.323   6.130  0.00  0.00    +0.033 A 
ATOM     26  C   UNL     1      -1.932  -5.008   5.720  0.00  0.00    +0.006 A 
BRANCH  24  27
ATOM     27  N   UNL     1      -1.108  -8.590   6.465  0.00  0.00    +0.056 N 
ATOM     28  O   UNL     1      -0.166  -9.342   6.372  0.00  0.00    -0.126 OA
ATOM     29  O   UNL     1      -2.156  -8.986   6.919  0.00  0.00    -0.126 OA
ENDBRANCH  24  27
ENDBRANCH  10  21
BRANCH   9  30
ATOM     30  C   UNL     1      -1.674  -1.585   3.076  0.00  0.00    +0.169 C 
ATOM     31  O   UNL     1      -1.379  -0.682   3.829  0.00  0.00    -0.292 OA
BRANCH  30  32
ATOM     32  C   UNL     1      -2.594  -1.338   1.954  0.00  0.00    +0.018 A 
ATOM     33  C   UNL     1      -2.941  -2.378   1.087  0.00  0.00    +0.011 A 
ATOM     34  C   UNL     1      -3.804  -2.139   0.038  0.00  0.00    +0.001 A 
ATOM     35  C   UNL     1      -4.326  -0.872  -0.157  0.00  0.00    +0.000 A 
ATOM     36  C   UNL     1      -3.987   0.164   0.697  0.00  0.00    +0.001 A 
ATOM     37  C   UNL     1      -3.130  -0.062   1.753  0.00  0.00    +0.011 A 
ENDBRANCH  30  32
ENDBRANCH   9  30
TORSDOF 4
