REMARK  Name = ZINC65143891
REMARK  8 active torsions:
REMARK  status: ('A' for Active; 'I' for Inactive)
REMARK    1  A    between atoms: C_1  and  C_2
REMARK    2  A    between atoms: C_2  and  C_3
REMARK    3  A    between atoms: C_2  and  C_4
REMARK    4  A    between atoms: C_4  and  C_5
REMARK    5  A    between atoms: C_5  and  N_6
REMARK    6  A    between atoms: N_9  and  N_10
REMARK    7  A    between atoms: C_11  and  C_13
REMARK    8  A    between atoms: C_15  and  C_23
REMARK                            x       y       z     vdW  Elec       q    Type
REMARK                         _______ _______ _______ _____ _____    ______ ____
ROOT
ATOM      1  N   UNL     1      -5.360  -3.463  -0.102  0.00  0.00    -0.229 N 
ATOM      2  C   UNL     1      -6.624  -3.930  -0.077  0.00  0.00    +0.261 C 
ATOM      3  O   UNL     1      -6.832  -5.125  -0.161  0.00  0.00    -0.269 OA
ATOM      4  H   UNL     1      -5.195  -2.509  -0.035  0.00  0.00    +0.173 HD
ENDROOT
BRANCH   2   5
ATOM      5  C   UNL     1      -7.758  -2.990   0.050  0.00  0.00    +0.049 A 
ATOM      6  C   UNL     1      -7.551  -1.636   0.264  0.00  0.00    +0.042 A 
ATOM      7  C   UNL     1      -8.659  -0.778   0.379  0.00  0.00    +0.079 A 
ATOM      8  N   UNL     1      -9.900  -1.216   0.291  0.00  0.00    -0.246 NA
ATOM      9  C   UNL     1     -10.189  -2.503   0.086  0.00  0.00    +0.072 A 
ATOM     10  C   UNL     1      -9.144  -3.451  -0.051  0.00  0.00    +0.013 A 
ATOM     11  C   UNL     1      -9.451  -4.798  -0.271  0.00  0.00    +0.011 A 
ATOM     12  C   UNL     1     -10.756  -5.185  -0.359  0.00  0.00    +0.001 A 
ATOM     13  C   UNL     1     -11.787  -4.257  -0.231  0.00  0.00    +0.002 A 
ATOM     14  C   UNL     1     -11.523  -2.941  -0.004  0.00  0.00    +0.028 A 
BRANCH   7  15
ATOM     15  C   UNL     1      -8.426   0.661   0.607  0.00  0.00    +0.038 A 
ATOM     16  C   UNL     1      -9.340   1.672   0.754  0.00  0.00    +0.017 A 
ATOM     17  C   UNL     1      -8.883   2.953   0.961  0.00  0.00    +0.008 A 
ATOM     18  C   UNL     1      -7.543   3.177   1.012  0.00  0.00    +0.046 A 
ATOM     19  S   UNL     1      -6.879   1.538   0.769  0.00  0.00    -0.095 S 
ENDBRANCH   7  15
ENDBRANCH   2   5
BRANCH   1  23
ATOM     20  N   UNL     1      -2.792  -2.561  -0.154  0.00  0.00    -0.298 N 
ATOM     21  C   UNL     1      -3.022  -3.886  -0.246  0.00  0.00    +0.316 C 
ATOM     22  O   UNL     1      -2.090  -4.659  -0.351  0.00  0.00    -0.251 OA
ATOM     23  N   UNL     1      -4.286  -4.354  -0.222  0.00  0.00    -0.218 N 
ATOM     24  H   UNL     1      -3.536  -1.944  -0.071  0.00  0.00    +0.150 HD
ATOM     25  H   UNL     1      -4.452  -5.307  -0.289  0.00  0.00    +0.174 HD
BRANCH  20  26
ATOM     26  C   UNL     1      -1.418  -2.053  -0.181  0.00  0.00    +0.106 C 
BRANCH  26  27
ATOM     27  C   UNL     1      -1.437  -0.527  -0.061  0.00  0.00    +0.022 C 
BRANCH  27  29
ATOM     28  C   UNL     1      -0.024   1.533  -0.095  0.00  0.00    +0.007 C 
ATOM     29  C   UNL     1      -0.002   0.003  -0.088  0.00  0.00    -0.016 C 
ATOM     30  C   UNL     1       0.749  -0.491   1.150  0.00  0.00    +0.007 C 
ENDBRANCH  27  29
ENDBRANCH  26  27
ENDBRANCH  20  26
ENDBRANCH   1  23
TORSDOF 6
