REMARK  Name = ZINC38971103
REMARK  16 active torsions:
REMARK  status: ('A' for Active; 'I' for Inactive)
REMARK    1  A    between atoms: C_1  and  C_2
REMARK    2  A    between atoms: C_2  and  O_3
REMARK    3  A    between atoms: O_3  and  C_4
REMARK    4  A    between atoms: C_6  and  C_16
REMARK    5  A    between atoms: C_8  and  O_13
REMARK    6  A    between atoms: C_9  and  O_10
REMARK    7  A    between atoms: O_10  and  C_11
REMARK    8  A    between atoms: C_11  and  C_12
REMARK    9  A    between atoms: O_13  and  C_14
REMARK   10  A    between atoms: C_14  and  C_15
REMARK   11  A    between atoms: C_16  and  N_18
REMARK   12  A    between atoms: C_22  and  C_25
REMARK   13  A    between atoms: C_28  and  C_31
REMARK   14  A    between atoms: C_31  and  C_32
REMARK   15  A    between atoms: C_31  and  C_33
REMARK   16  A    between atoms: C_31  and  C_34
REMARK                            x       y       z     vdW  Elec       q    Type
REMARK                         _______ _______ _______ _____ _____    ______ ____
ROOT
ATOM      1  C   UNL     1       0.628  -4.949  -0.019  0.00  0.00    +0.270 C 
ATOM      2  O   UNL     1       1.748  -4.469  -0.022  0.00  0.00    -0.268 OA
ENDROOT
BRANCH   1   3
ATOM      3  N   UNL     1       0.468  -6.283  -0.024  0.00  0.00    -0.149 NA
ATOM      4  C   UNL     1       1.526  -7.075  -0.033  0.00  0.00    +0.202 C 
ATOM      5  N   UNL     1       1.582  -8.451  -0.046  0.00  0.00    -0.153 NA
ATOM      6  N   UNL     1       2.605  -9.098  -0.054  0.00  0.00    -0.289 N 
ATOM      7  C   UNL     1       3.897  -8.373  -0.051  0.00  0.00    +0.193 C 
ATOM      8  S   UNL     1       3.264  -6.640  -0.040  0.00  0.00    -0.056 S 
ATOM      9  H   UNL     1       2.579 -10.067  -0.063  0.00  0.00    +0.184 HD
BRANCH   7  10
ATOM     10  C   UNL     1       4.692  -8.658  -1.299  0.00  0.00    -0.013 A 
ATOM     11  C   UNL     1       4.040  -8.939  -2.485  0.00  0.00    +0.007 A 
ATOM     12  C   UNL     1       4.769  -9.201  -3.630  0.00  0.00    +0.004 A 
ATOM     13  C   UNL     1       6.150  -9.180  -3.589  0.00  0.00    -0.042 A 
ATOM     14  C   UNL     1       6.803  -8.898  -2.404  0.00  0.00    +0.004 A 
ATOM     15  C   UNL     1       6.074  -8.632  -1.260  0.00  0.00    +0.007 A 
BRANCH  13  16
ATOM     16  C   UNL     1       6.945  -9.466  -4.837  0.00  0.00    -0.013 C 
ATOM     17  C   UNL     1       6.591  -8.438  -5.914  0.00  0.00    +0.015 C 
ATOM     18  C   UNL     1       8.440  -9.380  -4.521  0.00  0.00    +0.015 C 
ATOM     19  C   UNL     1       6.611 -10.871  -5.344  0.00  0.00    +0.015 C 
ENDBRANCH  13  16
ENDBRANCH   7  10
ENDBRANCH   1   3
BRANCH   1  22
ATOM     20  C   UNL     1      -1.498  -1.849   0.006  0.00  0.00    +0.166 A 
ATOM     21  C   UNL     1      -0.391  -2.676  -0.003  0.00  0.00    +0.062 A 
ATOM     22  C   UNL     1      -0.555  -4.063  -0.008  0.00  0.00    +0.046 A 
ATOM     23  C   UNL     1      -1.840  -4.611  -0.004  0.00  0.00    +0.062 A 
ATOM     24  C   UNL     1      -2.945  -3.781   0.005  0.00  0.00    +0.166 A 
ATOM     25  C   UNL     1      -2.778  -2.398   0.016  0.00  0.00    +0.204 A 
BRANCH  20  26
ATOM     26  O   UNL     1      -1.339  -0.499   0.012  0.00  0.00    -0.488 OA
BRANCH  26  28
ATOM     27  C   UNL     1      -0.019   1.526   0.010  0.00  0.00    +0.048 C 
ATOM     28  C   UNL     1       0.002  -0.004   0.002  0.00  0.00    +0.226 C 
ENDBRANCH  26  28
ENDBRANCH  20  26
BRANCH  25  29
ATOM     29  O   UNL     1      -3.866  -1.584   0.030  0.00  0.00    -0.485 OA
BRANCH  29  30
ATOM     30  C   UNL     1      -4.397  -1.188  -1.236  0.00  0.00    +0.226 C 
ATOM     31  C   UNL     1      -5.609  -0.280  -1.019  0.00  0.00    +0.048 C 
ENDBRANCH  29  30
ENDBRANCH  25  29
BRANCH  24  32
ATOM     32  O   UNL     1      -4.196  -4.314   0.008  0.00  0.00    -0.488 OA
BRANCH  32  33
ATOM     33  C   UNL     1      -4.293  -5.740   0.002  0.00  0.00    +0.226 C 
ATOM     34  C   UNL     1      -5.767  -6.151   0.007  0.00  0.00    +0.048 C 
ENDBRANCH  32  33
ENDBRANCH  24  32
ENDBRANCH   1  22
TORSDOF 10
