REMARK  Name = ZINC17097201
REMARK  6 active torsions:
REMARK  status: ('A' for Active; 'I' for Inactive)
REMARK    1  A    between atoms: C_1  and  C_2
REMARK    2  A    between atoms: C_5  and  C_9
REMARK    3  A    between atoms: C_12  and  C_14
REMARK    4  A    between atoms: C_15  and  C_16
REMARK    5  A    between atoms: N_18  and  C_19
REMARK    6  A    between atoms: C_24  and  C_25
REMARK                            x       y       z     vdW  Elec       q    Type
REMARK                         _______ _______ _______ _____ _____    ______ ____
ROOT
ATOM      1  C   UNL     1       0.114  -7.436  -1.622  0.00  0.00    +0.051 C 
ATOM      2  C   UNL     1       0.108  -7.245  -2.967  0.00  0.00    +0.071 C 
ENDROOT
BRANCH   1   6
ATOM      3  C   UNL     1       0.104  -4.249  -0.024  0.00  0.00    +0.136 A 
ATOM      4  C   UNL     1       0.112  -5.051   1.082  0.00  0.00    +0.050 A 
ATOM      5  C   UNL     1       0.117  -6.374   0.631  0.00  0.00    +0.050 A 
ATOM      6  C   UNL     1       0.112  -6.323  -0.751  0.00  0.00    +0.129 A 
ATOM      7  O   UNL     1       0.099  -5.026  -1.121  0.00  0.00    -0.455 OA
BRANCH   3  12
ATOM      8  C   UNL     1       0.070   1.505   0.008  0.00  0.00    +0.045 C 
ATOM      9  C   UNL     1       0.080  -0.002   0.000  0.00  0.00    -0.032 A 
ATOM     10  C   UNL     1       0.074  -0.685  -1.204  0.00  0.00    +0.005 A 
ATOM     11  C   UNL     1       0.082  -2.064  -1.219  0.00  0.00    +0.012 A 
ATOM     12  C   UNL     1       0.096  -2.773  -0.015  0.00  0.00    +0.019 A 
ATOM     13  C   UNL     1       0.102  -2.078   1.197  0.00  0.00    +0.031 A 
ATOM     14  C   UNL     1       0.099  -0.698   1.198  0.00  0.00    +0.045 A 
ATOM     15 CL   UNL     1       0.113   0.168   2.702  0.00  0.00    -0.083 Cl
ENDBRANCH   3  12
ENDBRANCH   1   6
BRANCH   2  16
ATOM     16  C   UNL     1       0.110  -8.359  -3.839  0.00  0.00    +0.241 C 
ATOM     17  O   UNL     1       0.117  -9.489  -3.384  0.00  0.00    -0.270 OA
ATOM     18  N   UNL     1       0.104  -8.169  -5.173  0.00  0.00    -0.282 N 
ATOM     19  H   UNL     1       0.017  -7.274  -5.536  0.00  0.00    +0.155 HD
BRANCH  18  20
ATOM     20  C   UNL     1       0.223  -9.264  -6.035  0.00  0.00    +0.037 A 
ATOM     21  C   UNL     1       0.843 -10.428  -5.601  0.00  0.00    +0.024 A 
ATOM     22  C   UNL     1       0.959 -11.508  -6.454  0.00  0.00    +0.017 A 
ATOM     23  C   UNL     1       0.457 -11.431  -7.741  0.00  0.00    +0.018 A 
ATOM     24  C   UNL     1      -0.162 -10.273  -8.177  0.00  0.00    +0.020 A 
ATOM     25  C   UNL     1      -0.285  -9.192  -7.326  0.00  0.00    -0.028 A 
ATOM     26  C   UNL     1      -0.965  -7.933  -7.800  0.00  0.00    +0.046 C 
ATOM     27 BR   UNL     1       0.617 -12.911  -8.907  0.00  0.00    -0.050 Br
ENDBRANCH  18  20
ENDBRANCH   2  16
TORSDOF 4
