REMARK  Name = ZINC16056841
REMARK  9 active torsions:
REMARK  status: ('A' for Active; 'I' for Inactive)
REMARK    1  A    between atoms: C_1  and  C_2
REMARK    2  A    between atoms: C_2  and  C_3
REMARK    3  A    between atoms: C_3  and  N_4
REMARK    4  A    between atoms: C_14  and  S_15
REMARK    5  A    between atoms: S_15  and  C_16
REMARK    6  A    between atoms: C_16  and  C_18
REMARK    7  A    between atoms: C_16  and  C_19
REMARK    8  A    between atoms: C_31  and  C_32
REMARK    9  A    between atoms: C_31  and  C_33
REMARK                            x       y       z     vdW  Elec       q    Type
REMARK                         _______ _______ _______ _____ _____    ______ ____
ROOT
ATOM      1  C   UNL     1       0.400   0.297  -0.687  0.00  0.00    +0.137 C 
ATOM      2  C   UNL     1      -0.789   0.914   0.053  0.00  0.00    +0.029 C 
ENDROOT
BRANCH   1   3
ATOM      3  C   UNL     1       1.622   1.153  -0.477  0.00  0.00    +0.234 C 
ATOM      4  O   UNL     1       1.774   2.164  -1.131  0.00  0.00    -0.274 OA
ATOM      5  N   UNL     1       2.546   0.796   0.436  0.00  0.00    -0.255 N 
ATOM      6  C   UNL     1       2.381  -0.355   1.222  0.00  0.00    +0.059 A 
ATOM      7  C   UNL     1       1.121  -0.817   1.558  0.00  0.00    +0.025 A 
ATOM      8  C   UNL     1       0.991  -1.952   2.338  0.00  0.00    +0.002 A 
ATOM      9  C   UNL     1       2.116  -2.623   2.781  0.00  0.00    +0.002 A 
ATOM     10  C   UNL     1       3.386  -2.172   2.440  0.00  0.00    +0.025 A 
ATOM     11  C   UNL     1       3.523  -1.034   1.661  0.00  0.00    +0.055 A 
ATOM     12  N   UNL     1       4.790  -0.554   1.311  0.00  0.00    -0.282 N 
ATOM     13  C   UNL     1       4.941   0.684   0.803  0.00  0.00    +0.241 C 
ATOM     14  O   UNL     1       6.043   1.063   0.466  0.00  0.00    -0.273 OA
ATOM     15  C   UNL     1       3.757   1.604   0.646  0.00  0.00    +0.113 C 
ATOM     16  C   UNL     1       3.977   2.520  -0.559  0.00  0.00    +0.042 C 
ATOM     17  C   UNL     1       3.595   2.449   1.911  0.00  0.00    +0.042 C 
ATOM     18  H   UNL     1       5.568  -1.119   1.437  0.00  0.00    +0.155 HD
ENDBRANCH   1   3
BRANCH   1  19
ATOM     19  S   UNL     1       0.026   0.202  -2.455  0.00  0.00    -0.075 S 
BRANCH  19  30
ATOM     20  N   UNL     1      -1.895  -1.297  -3.607  0.00  0.00    -0.287 N 
ATOM     21  C   UNL     1      -2.924  -2.176  -3.630  0.00  0.00    +0.262 A 
ATOM     22  O   UNL     1      -3.456  -2.499  -4.677  0.00  0.00    -0.267 OA
ATOM     23  C   UNL     1      -3.374  -2.727  -2.345  0.00  0.00    +0.065 A 
ATOM     24  C   UNL     1      -4.426  -3.639  -2.262  0.00  0.00    +0.015 A 
ATOM     25  C   UNL     1      -4.804  -4.121  -1.040  0.00  0.00    +0.001 A 
ATOM     26  C   UNL     1      -4.154  -3.711   0.118  0.00  0.00    +0.002 A 
ATOM     27  C   UNL     1      -3.121  -2.819   0.065  0.00  0.00    +0.028 A 
ATOM     28  C   UNL     1      -2.710  -2.308  -1.170  0.00  0.00    +0.079 A 
ATOM     29  N   UNL     1      -1.692  -1.429  -1.267  0.00  0.00    -0.223 NA
ATOM     30  C   UNL     1      -1.310  -0.947  -2.424  0.00  0.00    +0.173 A 
BRANCH  20  31
ATOM     31  C   UNL     1      -1.406  -0.718  -4.861  0.00  0.00    +0.127 C 
BRANCH  31  33
ATOM     32  C   UNL     1       0.210  -1.001  -6.745  0.00  0.00    +0.005 C 
ATOM     33  C   UNL     1      -0.301  -1.606  -5.436  0.00  0.00    +0.018 C 
ENDBRANCH  31  33
ENDBRANCH  20  31
ENDBRANCH  19  30
ENDBRANCH   1  19
TORSDOF 5
