REMARK  Name = ZINC34778650
REMARK  10 active torsions:
REMARK  status: ('A' for Active; 'I' for Inactive)
REMARK    1  A    between atoms: C_1  and  C_2
REMARK    2  A    between atoms: C_5  and  C_9
REMARK    3  A    between atoms: C_6  and  C_8
REMARK    4  A    between atoms: C_9  and  N_10
REMARK    5  A    between atoms: C_13  and  C_19
REMARK    6  A    between atoms: C_14  and  C_16
REMARK    7  A    between atoms: C_16  and  C_18
REMARK    8  A    between atoms: N_22  and  C_25
REMARK    9  A    between atoms: C_25  and  C_26
REMARK   10  A    between atoms: N_28  and  C_29
REMARK                            x       y       z     vdW  Elec       q    Type
REMARK                         _______ _______ _______ _____ _____    ______ ____
ROOT
ATOM      1  N   UNL     1      -1.181  -4.734   0.374  0.00  0.00    -0.283 N 
ATOM      2  C   UNL     1      -1.532  -4.868   1.687  0.00  0.00    +0.098 A 
ATOM      3  C   UNL     1      -2.790  -5.372   2.052  0.00  0.00    +0.074 A 
ATOM      4  C   UNL     1      -3.034  -5.465   3.425  0.00  0.00    -0.018 A 
ATOM      5  C   UNL     1      -2.021  -5.054   4.268  0.00  0.00    +0.060 A 
ATOM      6  S   UNL     1      -0.749  -4.547   3.128  0.00  0.00    -0.067 S 
ATOM      7  C   UNL     1      -4.342  -5.988   3.961  0.00  0.00    +0.046 C 
ATOM      8  C   UNL     1      -3.686  -5.738   0.927  0.00  0.00    +0.266 A 
ATOM      9  O   UNL     1      -4.798  -6.183   1.145  0.00  0.00    -0.267 OA
ATOM     10  N   UNL     1      -3.255  -5.570  -0.335  0.00  0.00    -0.251 N 
ATOM     11  C   UNL     1      -2.037  -5.076  -0.607  0.00  0.00    +0.334 A 
ATOM     12  O   UNL     1      -1.696  -4.940  -1.766  0.00  0.00    -0.246 OA
ENDROOT
BRANCH   5  13
ATOM     13  C   UNL     1      -1.998  -5.039   5.678  0.00  0.00    +0.167 C 
ATOM     14  O   UNL     1      -2.964  -5.424   6.305  0.00  0.00    -0.292 OA
ATOM     15  C   UNL     1      -0.775  -4.545   6.407  0.00  0.00    +0.092 C 
ENDBRANCH   5  13
BRANCH   1  16
ATOM     16  C   UNL     1       0.140  -4.203   0.028  0.00  0.00    +0.162 C 
BRANCH  16  21
ATOM     17  C   UNL     1      -0.041   1.573   0.032  0.00  0.00    +0.044 C 
ATOM     18  C   UNL     1       0.006   0.066   0.031  0.00  0.00    -0.050 A 
ATOM     19  C   UNL     1      -1.153  -0.662   0.227  0.00  0.00    +0.004 A 
ATOM     20  C   UNL     1      -1.109  -2.043   0.226  0.00  0.00    +0.006 A 
ATOM     21  C   UNL     1       0.093  -2.697   0.029  0.00  0.00    -0.025 A 
ATOM     22  C   UNL     1       1.251  -1.969  -0.168  0.00  0.00    -0.045 A 
ATOM     23  C   UNL     1       1.207  -0.587  -0.171  0.00  0.00    +0.007 A 
ATOM     24  C   UNL     1       2.562  -2.682  -0.382  0.00  0.00    +0.044 C 
ENDBRANCH  16  21
ENDBRANCH   1  16
BRANCH  10  25
ATOM     25  C   UNL     1      -4.141  -5.931  -1.444  0.00  0.00    +0.226 C 
BRANCH  25  26
ATOM     26  C   UNL     1      -4.975  -4.737  -1.831  0.00  0.00    +0.237 C 
ATOM     27  O   UNL     1      -4.842  -3.687  -1.238  0.00  0.00    -0.274 OA
ATOM     28  N   UNL     1      -5.868  -4.835  -2.835  0.00  0.00    -0.283 N 
ATOM     29  H   UNL     1      -5.929  -5.654  -3.352  0.00  0.00    +0.155 HD
BRANCH  28  30
ATOM     30  C   UNL     1      -6.706  -3.759  -3.132  0.00  0.00    +0.041 A 
ATOM     31  C   UNL     1      -6.252  -2.465  -2.992  0.00  0.00    +0.024 A 
ATOM     32  C   UNL     1      -7.080  -1.385  -3.285  0.00  0.00    +0.002 A 
ATOM     33  C   UNL     1      -8.357  -1.575  -3.717  0.00  0.00    +0.008 A 
ATOM     34  C   UNL     1      -8.859  -2.878  -3.872  0.00  0.00    -0.016 A 
ATOM     35  C   UNL     1      -8.024  -3.986  -3.582  0.00  0.00    +0.003 A 
ATOM     36  C   UNL     1      -8.525  -5.287  -3.742  0.00  0.00    +0.010 A 
ATOM     37  C   UNL     1      -9.802  -5.469  -4.179  0.00  0.00    +0.001 A 
ATOM     38  C   UNL     1     -10.622  -4.380  -4.470  0.00  0.00    +0.001 A 
ATOM     39  C   UNL     1     -10.173  -3.104  -4.316  0.00  0.00    +0.008 A 
ENDBRANCH  28  30
ENDBRANCH  25  26
ENDBRANCH  10  25
TORSDOF 6
