REMARK  Name = ZINC35851787
REMARK  2 active torsions:
REMARK  status: ('A' for Active; 'I' for Inactive)
REMARK    1  A    between atoms: C_1  and  C_2
REMARK    2  A    between atoms: N_25  and  C_28
REMARK                            x       y       z     vdW  Elec       q    Type
REMARK                         _______ _______ _______ _____ _____    ______ ____
ROOT
ATOM      1  C   UNL     1      -0.348   1.962  -0.661  0.00  0.00    +0.044 C 
ATOM      2  C   UNL     1      -0.411   0.465  -0.500  0.00  0.00    -0.049 A 
ATOM      3  C   UNL     1      -0.268  -0.358  -1.603  0.00  0.00    +0.011 A 
ATOM      4  C   UNL     1      -0.326  -1.725  -1.456  0.00  0.00    +0.005 A 
ATOM      5  C   UNL     1      -0.528  -2.295  -0.202  0.00  0.00    +0.057 A 
ATOM      6  C   UNL     1      -0.671  -1.460   0.904  0.00  0.00    +0.063 A 
ATOM      7  C   UNL     1      -0.607  -0.089   0.752  0.00  0.00    +0.025 A 
ATOM      8 CL   UNL     1      -0.924  -2.145   2.479  0.00  0.00    -0.082 Cl
ATOM      9  N   UNL     1      -0.550  -3.689  -0.303  0.00  0.00    -0.282 N 
ATOM     10  C   UNL     1      -0.373  -4.109  -1.571  0.00  0.00    +0.243 C 
ATOM     11  O   UNL     1      -0.349  -5.259  -1.955  0.00  0.00    -0.273 OA
ATOM     12  C   UNL     1      -0.212  -2.875  -2.417  0.00  0.00    +0.138 C 
ATOM     13  C   UNL     1       1.140  -2.869  -3.139  0.00  0.00    +0.123 C 
ATOM     14  C   UNL     1       0.847  -2.214  -4.517  0.00  0.00    +0.107 C 
ATOM     15  C   UNL     1      -0.662  -1.905  -4.504  0.00  0.00    +0.071 C 
ATOM     16  N   UNL     1      -1.242  -2.804  -3.467  0.00  0.00    -0.281 NA
ATOM     17  C   UNL     1      -1.354  -4.116  -4.150  0.00  0.00    +0.086 C 
ATOM     18  C   UNL     1      -1.764  -3.784  -5.599  0.00  0.00    +0.017 C 
ATOM     19  C   UNL     1      -1.280  -2.328  -5.849  0.00  0.00    +0.021 C 
ATOM     20  C   UNL     1       1.637  -0.926  -4.466  0.00  0.00    +0.232 C 
ATOM     21  O   UNL     1       1.684  -0.098  -5.351  0.00  0.00    -0.274 OA
ATOM     22  N   UNL     1       2.275  -0.842  -3.294  0.00  0.00    -0.210 N 
ATOM     23  C   UNL     1       2.075  -1.891  -2.463  0.00  0.00    +0.233 C 
ATOM     24  O   UNL     1       2.556  -2.030  -1.360  0.00  0.00    -0.274 OA
ATOM     25  H   UNL     1      -0.678  -4.284   0.452  0.00  0.00    +0.155 HD
ENDROOT
BRANCH  22  26
ATOM     26  C   UNL     1       3.094   0.244  -2.952  0.00  0.00    +0.045 A 
ATOM     27  C   UNL     1       2.538   1.504  -2.770  0.00  0.00    +0.025 A 
ATOM     28  C   UNL     1       3.346   2.572  -2.433  0.00  0.00    +0.023 A 
ATOM     29  C   UNL     1       4.709   2.389  -2.277  0.00  0.00    +0.059 A 
ATOM     30  C   UNL     1       5.266   1.134  -2.458  0.00  0.00    +0.061 A 
ATOM     31  C   UNL     1       4.460   0.061  -2.790  0.00  0.00    +0.045 A 
ATOM     32 CL   UNL     1       6.976   0.907  -2.260  0.00  0.00    -0.082 Cl
ATOM     33 CL   UNL     1       5.721   3.734  -1.854  0.00  0.00    -0.082 Cl
ENDBRANCH  22  26
TORSDOF 1
