REMARK  Name = ZINC20583728
REMARK  5 active torsions:
REMARK  status: ('A' for Active; 'I' for Inactive)
REMARK    1  A    between atoms: N_9  and  C_11
REMARK    2  A    between atoms: C_11  and  C_12
REMARK    3  A    between atoms: N_15  and  S_18
REMARK    4  A    between atoms: S_18  and  C_21
REMARK    5  A    between atoms: C_24  and  C_26
REMARK                            x       y       z     vdW  Elec       q    Type
REMARK                         _______ _______ _______ _____ _____    ______ ____
ROOT
ATOM      1  C   UNL     1      -7.737  -2.470   3.829  0.00  0.00    -0.025 C 
ATOM      2  C   UNL     1      -7.810  -1.206   2.969  0.00  0.00    +0.019 C 
ATOM      3  C   UNL     1      -6.433  -0.931   2.355  0.00  0.00    +0.109 C 
ATOM      4  N   UNL     1      -5.991  -2.130   1.630  0.00  0.00    -0.176 NA
ATOM      5  C   UNL     1      -5.976  -3.418   2.337  0.00  0.00    +0.109 C 
ATOM      6  C   UNL     1      -7.352  -3.664   2.952  0.00  0.00    +0.019 C 
ENDROOT
BRANCH   4   7
ATOM      7  S   UNL     1      -5.525  -2.033   0.044  0.00  0.00    +0.067 S 
ATOM      8  O   UNL     1      -6.157  -0.880  -0.495  0.00  0.00    -0.152 OA
ATOM      9  O   UNL     1      -5.701  -3.329  -0.511  0.00  0.00    -0.152 OA
BRANCH   7  10
ATOM     10  C   UNL     1      -3.792  -1.710   0.029  0.00  0.00    +0.143 A 
ATOM     11  C   UNL     1      -2.760  -2.592   0.015  0.00  0.00    +0.037 A 
ATOM     12  C   UNL     1      -1.468  -2.113  -0.001  0.00  0.00    +0.020 A 
ATOM     13  C   UNL     1      -1.269  -0.758   0.010  0.00  0.00    +0.041 A 
ATOM     14  S   UNL     1      -2.943  -0.140   0.029  0.00  0.00    -0.067 S 
BRANCH  13  15
ATOM     15  C   UNL     1       0.002  -0.004   0.002  0.00  0.00    +0.098 A 
ATOM     16  C   UNL     1      -0.017   1.412   0.010  0.00  0.00    +0.036 A 
ATOM     17  C   UNL     1       1.175   2.073   0.002  0.00  0.00    +0.073 A 
ATOM     18  C   UNL     1       2.359   1.303  -0.014  0.00  0.00    +0.265 A 
ATOM     19  O   UNL     1       3.449   1.852  -0.021  0.00  0.00    -0.266 OA
ATOM     20  N   UNL     1       2.277  -0.041  -0.020  0.00  0.00    -0.243 N 
ATOM     21  H   UNL     1       3.194  -0.648  -0.033  0.00  0.00    +0.192 HD
ATOM     22  N   UNL     1       1.147  -0.650  -0.013  0.00  0.00    -0.170 NA
ENDBRANCH  13  15
ENDBRANCH   7  10
ENDBRANCH   4   7
BRANCH   1  23
ATOM     23  C   UNL     1      -9.102  -2.728   4.471  0.00  0.00    -0.075 C 
BRANCH  23  32
ATOM     24  C   UNL     1      -8.021  -6.752   9.365  0.00  0.00    +0.000 A 
ATOM     25  C   UNL     1      -7.048  -5.770   9.372  0.00  0.00    +0.000 A 
ATOM     26  C   UNL     1      -7.098  -4.745   8.449  0.00  0.00    +0.002 A 
ATOM     27  C   UNL     1      -8.120  -4.694   7.513  0.00  0.00    -0.061 A 
ATOM     28  C   UNL     1      -9.089  -5.675   7.504  0.00  0.00    -0.048 A 
ATOM     29  C   UNL     1      -9.038  -6.703   8.433  0.00  0.00    +0.004 A 
ATOM     30  C   UNL     1     -10.213  -5.669   6.500  0.00  0.00    +0.017 C 
ATOM     31  C   UNL     1     -10.333  -4.285   5.861  0.00  0.00    -0.074 C 
ATOM     32  N   UNL     1      -9.003  -3.870   5.389  0.00  0.00    +0.383 N 
ATOM     33  C   UNL     1      -8.135  -3.554   6.529  0.00  0.00    -0.043 C 
ATOM     34  H   UNL     1      -8.552  -4.706   4.834  0.00  0.00    -0.081 HD
ENDBRANCH  23  32
ENDBRANCH   1  23
TORSDOF 5
