REMARK  Name = ZINC09076870
REMARK  8 active torsions:
REMARK  status: ('A' for Active; 'I' for Inactive)
REMARK    1  A    between atoms: C_1  and  C_2
REMARK    2  A    between atoms: C_2  and  C_3
REMARK    3  A    between atoms: C_2  and  C_4
REMARK    4  A    between atoms: C_4  and  C_6
REMARK    5  A    between atoms: C_4  and  N_16
REMARK    6  A    between atoms: C_17  and  C_19
REMARK    7  A    between atoms: C_19  and  N_66
REMARK    8  A    between atoms: C_22  and  N_25
REMARK                            x       y       z     vdW  Elec       q    Type
REMARK                         _______ _______ _______ _____ _____    ______ ____
ROOT
ATOM      1  C   UNL     1      -6.653  -0.158  -2.322  0.00  0.00    +0.019 C 
ENDROOT
BRANCH   1   7
ATOM      2  C   UNL     1      -8.537  -0.527  -3.796  0.00  0.00    -0.076 C 
ATOM      3  C   UNL     1      -9.558  -1.569  -4.258  0.00  0.00    +0.006 C 
ATOM      4  C   UNL     1      -8.828  -2.707  -4.978  0.00  0.00    +0.089 C 
ATOM      5  C   UNL     1      -7.788  -3.314  -4.033  0.00  0.00    +0.006 C 
ATOM      6  C   UNL     1      -6.819  -2.221  -3.578  0.00  0.00    -0.076 C 
ATOM      7  N   UNL     1      -7.580  -1.169  -2.871  0.00  0.00    +0.386 N 
ATOM      8  H   UNL     1      -8.101  -1.598  -2.097  0.00  0.00    -0.081 HD
BRANCH   4   9
ATOM      9  N   UNL     1      -9.793  -3.736  -5.372  0.00  0.00    -0.289 N 
ATOM     10  C   UNL     1     -10.043  -4.163  -6.675  0.00  0.00    +0.070 A 
ATOM     11  C   UNL     1      -9.527  -3.802  -7.910  0.00  0.00    +0.028 A 
ATOM     12  C   UNL     1      -9.988  -4.421  -9.055  0.00  0.00    +0.002 A 
ATOM     13  C   UNL     1     -10.963  -5.401  -8.975  0.00  0.00    +0.002 A 
ATOM     14  C   UNL     1     -11.483  -5.767  -7.749  0.00  0.00    +0.028 A 
ATOM     15  C   UNL     1     -11.027  -5.151  -6.593  0.00  0.00    +0.067 A 
ATOM     16  N   UNL     1     -11.343  -5.294  -5.245  0.00  0.00    -0.306 N 
ATOM     17  H   UNL     1     -11.997  -5.909  -4.877  0.00  0.00    +0.170 HD
ATOM     18  C   UNL     1     -10.584  -4.436  -4.537  0.00  0.00    +0.328 A 
ATOM     19  O   UNL     1     -10.610  -4.311  -3.327  0.00  0.00    -0.247 OA
ENDBRANCH   4   9
ENDBRANCH   1   7
BRANCH   1  21
ATOM     20  N   UNL     1      -4.852  -0.096  -0.627  0.00  0.00    -0.310 N 
ATOM     21  C   UNL     1      -5.847  -0.789  -1.216  0.00  0.00    +0.197 C 
ATOM     22  O   UNL     1      -6.094  -1.920  -0.855  0.00  0.00    -0.278 OA
ATOM     23  H   UNL     1      -4.655   0.809  -0.915  0.00  0.00    +0.149 HD
BRANCH  20  24
ATOM     24  C   UNL     1      -4.069  -0.709   0.449  0.00  0.00    +0.106 C 
BRANCH  24  25
ATOM     25  C   UNL     1      -2.712  -0.058   0.516  0.00  0.00    -0.023 A 
ATOM     26  C   UNL     1      -2.593   1.309   0.344  0.00  0.00    +0.009 A 
ATOM     27  C   UNL     1      -1.350   1.910   0.400  0.00  0.00    +0.050 A 
ATOM     28  C   UNL     1      -0.218   1.143   0.637  0.00  0.00    +0.162 A 
ATOM     29  C   UNL     1      -0.338  -0.230   0.813  0.00  0.00    +0.162 A 
ATOM     30  C   UNL     1      -1.588  -0.827   0.750  0.00  0.00    +0.055 A 
ATOM     31  O   UNL     1       0.760  -1.000   1.047  0.00  0.00    -0.485 OA
ATOM     32  C   UNL     1       2.031  -0.423   0.730  0.00  0.00    +0.270 C 
ATOM     33  C   UNL     1       2.063   1.004   1.293  0.00  0.00    +0.270 C 
ATOM     34  O   UNL     1       1.000   1.749   0.689  0.00  0.00    -0.485 OA
ENDBRANCH  24  25
BRANCH  24  36
ATOM     35  C   UNL     1      -6.172  -1.177   1.713  0.00  0.00    +0.009 C 
ATOM     36  C   UNL     1      -4.794  -0.516   1.782  0.00  0.00    +0.008 C 
ATOM     37  C   UNL     1      -3.977  -1.156   2.905  0.00  0.00    +0.009 C 
ENDBRANCH  24  36
ENDBRANCH  20  24
ENDBRANCH   1  21
TORSDOF 6
