REMARK  Name = ZINC35743779
REMARK  15 active torsions:
REMARK  status: ('A' for Active; 'I' for Inactive)
REMARK    1  A    between atoms: C_1  and  C_2
REMARK    2  A    between atoms: C_2  and  C_4
REMARK    3  A    between atoms: C_2  and  N_19
REMARK    4  A    between atoms: N_14  and  C_15
REMARK    5  A    between atoms: C_15  and  C_16
REMARK    6  A    between atoms: C_16  and  O_17
REMARK    7  A    between atoms: O_17  and  C_18
REMARK    8  A    between atoms: N_19  and  C_20
REMARK    9  A    between atoms: C_20  and  C_21
REMARK   10  A    between atoms: C_21  and  C_22
REMARK   11  A    between atoms: C_22  and  C_23
REMARK   12  A    between atoms: C_23  and  C_24
REMARK   13  A    between atoms: C_24  and  C_25
REMARK   14  A    between atoms: C_25  and  N_26
REMARK   15  A    between atoms: C_27  and  C_29
REMARK                            x       y       z     vdW  Elec       q    Type
REMARK                         _______ _______ _______ _____ _____    ______ ____
ROOT
ATOM      1  N   UNL     1      -0.391  -0.717   1.764  0.00  0.00    -0.288 N 
ATOM      2  C   UNL     1      -0.950   0.104   2.675  0.00  0.00    +0.248 C 
ATOM      3  O   UNL     1      -0.325   0.430   3.665  0.00  0.00    -0.270 OA
ENDROOT
BRANCH   2   4
ATOM      4  C   UNL     1      -2.325   0.607   2.470  0.00  0.00    +0.051 A 
ATOM      5  C   UNL     1      -2.837   0.742   1.179  0.00  0.00    +0.014 A 
ATOM      6  C   UNL     1      -4.121   1.211   0.995  0.00  0.00    +0.001 A 
ATOM      7  C   UNL     1      -4.901   1.550   2.087  0.00  0.00    +0.001 A 
ATOM      8  C   UNL     1      -4.400   1.420   3.370  0.00  0.00    +0.016 A 
ATOM      9  C   UNL     1      -3.119   0.945   3.569  0.00  0.00    +0.030 A 
ATOM     10 BR   UNL     1      -2.438   0.760   5.323  0.00  0.00    -0.050 Br
ENDBRANCH   2   4
BRANCH   1  12
ATOM     11  C   UNL     1      -0.636   1.007   0.046  0.00  0.00    +0.036 C 
ATOM     12  C   UNL     1      -0.628  -0.496   0.335  0.00  0.00    +0.139 C 
BRANCH  12  13
ATOM     13  C   UNL     1      -1.959  -1.089  -0.050  0.00  0.00    +0.133 A 
ATOM     14  N   UNL     1      -2.772  -1.445   0.897  0.00  0.00    -0.232 NA
ATOM     15  C   UNL     1      -3.986  -1.986   0.626  0.00  0.00    +0.078 A 
ATOM     16  C   UNL     1      -4.862  -2.369   1.645  0.00  0.00    +0.028 A 
ATOM     17  C   UNL     1      -6.085  -2.913   1.324  0.00  0.00    +0.002 A 
ATOM     18  C   UNL     1      -6.461  -3.086  -0.002  0.00  0.00    +0.001 A 
ATOM     19  C   UNL     1      -5.614  -2.716  -1.024  0.00  0.00    +0.015 A 
ATOM     20  C   UNL     1      -4.372  -2.163  -0.721  0.00  0.00    +0.065 A 
ATOM     21  C   UNL     1      -3.428  -1.749  -1.769  0.00  0.00    +0.262 A 
ATOM     22  O   UNL     1      -3.699  -1.875  -2.950  0.00  0.00    -0.267 OA
ATOM     23  N   UNL     1      -2.249  -1.218  -1.371  0.00  0.00    -0.292 N 
BRANCH  23  24
ATOM     24  C   UNL     1      -1.273  -0.783  -2.374  0.00  0.00    +0.154 C 
BRANCH  24  25
ATOM     25  C   UNL     1      -0.409  -1.973  -2.794  0.00  0.00    +0.181 C 
BRANCH  25  26
ATOM     26  O   UNL     1      -1.223  -2.943  -3.455  0.00  0.00    -0.381 OA
ATOM     27  C   UNL     1      -0.509  -4.102  -3.891  0.00  0.00    +0.194 C 
ENDBRANCH  25  26
ENDBRANCH  24  25
ENDBRANCH  23  24
ENDBRANCH  12  13
ENDBRANCH   1  12
BRANCH   1  28
ATOM     28  C   UNL     1       0.455  -1.830   2.202  0.00  0.00    +0.109 C 
BRANCH  28  29
ATOM     29  C   UNL     1       1.909  -1.360   2.295  0.00  0.00    +0.019 C 
BRANCH  29  30
ATOM     30  C   UNL     1       2.792  -2.522   2.752  0.00  0.00    +0.001 C 
BRANCH  30  31
ATOM     31  C   UNL     1       4.245  -2.053   2.845  0.00  0.00    -0.002 C 
BRANCH  31  32
ATOM     32  C   UNL     1       5.129  -3.215   3.303  0.00  0.00    -0.020 C 
BRANCH  32  33
ATOM     33  C   UNL     1       6.582  -2.745   3.395  0.00  0.00    -0.086 C 
BRANCH  33  34
ATOM     34  N   UNL     1       7.430  -3.861   3.834  0.00  0.00    +0.378 N 
ATOM     35  H   UNL     1       7.122  -4.181   4.740  0.00  0.00    -0.090 HD
ATOM     36  H   UNL     1       7.363  -4.617   3.170  0.00  0.00    -0.090 HD
ATOM     37  H   UNL     1       8.389  -3.551   3.895  0.00  0.00    -0.090 HD
ENDBRANCH  33  34
ENDBRANCH  32  33
ENDBRANCH  31  32
ENDBRANCH  30  31
ENDBRANCH  29  30
ENDBRANCH  28  29
ENDBRANCH   1  28
TORSDOF 13
