REMARK  Name = ZINC44935372
REMARK  9 active torsions:
REMARK  status: ('A' for Active; 'I' for Inactive)
REMARK    1  A    between atoms: C_1  and  C_2
REMARK    2  A    between atoms: C_2  and  C_4
REMARK    3  A    between atoms: C_2  and  N_9
REMARK    4  A    between atoms: N_12  and  CA_13
REMARK    5  A    between atoms: CA_13  and  C_15
REMARK    6  A    between atoms: CA_13  and  C_18
REMARK    7  A    between atoms: C_18  and  C_19
REMARK    8  A    between atoms: C_18  and  C_20
REMARK    9  A    between atoms: C_18  and  C_21
REMARK                            x       y       z     vdW  Elec       q    Type
REMARK                         _______ _______ _______ _____ _____    ______ ____
ROOT
ATOM      1  N   UNL     1       0.688  -0.476  -1.203  0.00  0.00    -0.290 N 
ATOM      2  C   UNL     1       0.006  -0.608  -2.358  0.00  0.00    +0.301 C 
ATOM      3  O   UNL     1      -1.178  -0.335  -2.400  0.00  0.00    -0.253 OA
ATOM      4  N   UNL     1       0.637  -1.043  -3.467  0.00  0.00    -0.286 N 
ATOM      5  H   UNL     1       1.632  -0.695  -1.170  0.00  0.00    +0.151 HD
ATOM      6  H   UNL     1       1.582  -1.261  -3.434  0.00  0.00    +0.151 HD
ENDROOT
BRANCH   1   8
ATOM      7  C   UNL     1      -0.019   1.526   0.010  0.00  0.00    +0.036 C 
ATOM      8  C   UNL     1       0.002  -0.004   0.002  0.00  0.00    +0.143 C 
BRANCH   8   9
ATOM      9  C   UNL     1       0.731  -0.503   1.223  0.00  0.00    +0.197 A 
ATOM     10  N   UNL     1       0.185  -1.040   2.305  0.00  0.00    -0.109 NA
ATOM     11  N   UNL     1       1.141  -1.335   3.118  0.00  0.00    -0.021 NA
ATOM     12  N   UNL     1       2.264  -1.003   2.583  0.00  0.00    -0.021 NA
ATOM     13  N   UNL     1       2.041  -0.496   1.419  0.00  0.00    -0.109 NA
ENDBRANCH   8   9
ENDBRANCH   1   8
BRANCH   4  14
ATOM     14  CA  UNL     1      -0.104  -1.186  -4.723  0.00  0.00    +0.193 C 
BRANCH  14  15
ATOM     15  C   UNL     1       0.589  -2.224  -5.608  0.00  0.00    -0.009 C 
ATOM     16  C   UNL     1       0.626  -3.570  -4.882  0.00  0.00    +0.013 C 
ATOM     17  C   UNL     1      -0.185  -2.373  -6.920  0.00  0.00    +0.013 C 
ATOM     18  C   UNL     1       2.017  -1.767  -5.909  0.00  0.00    +0.013 C 
ENDBRANCH  14  15
BRANCH  14  19
ATOM     19  C   UNL     1      -0.141   0.140  -5.439  0.00  0.00    +0.376 C 
ATOM     20  O   UNL     1       0.775   0.933  -5.301  0.00  0.00    -0.244 OA
ATOM     21  OXT UNL     1      -1.086   0.420  -6.155  0.00  0.00    -0.244 OA
ENDBRANCH  14  19
ENDBRANCH   4  14
TORSDOF 5
