REMARK  Name = ZINC63785269
REMARK  3 active torsions:
REMARK  status: ('A' for Active; 'I' for Inactive)
REMARK    1  A    between atoms: C_6  and  N_7
REMARK    2  A    between atoms: N_13  and  C_16
REMARK    3  A    between atoms: C_16  and  C_17
REMARK                            x       y       z     vdW  Elec       q    Type
REMARK                         _______ _______ _______ _____ _____    ______ ____
ROOT
ATOM      1  N   UNL     1      -1.186  -0.736   0.011  0.00  0.00    -0.269 N 
ATOM      2  C   UNL     1      -1.151  -2.079  -0.100  0.00  0.00    +0.307 C 
ATOM      3  O   UNL     1      -0.083  -2.660  -0.115  0.00  0.00    -0.252 OA
ATOM      4  N   UNL     1      -2.299  -2.778  -0.194  0.00  0.00    -0.283 N 
ATOM      5  C   UNL     1      -3.595  -2.090  -0.296  0.00  0.00    +0.124 C 
ATOM      6  C   UNL     1      -4.358  -2.663  -1.494  0.00  0.00    +0.104 C 
ATOM      7  N   UNL     1      -4.439  -4.124  -1.366  0.00  0.00    -0.295 NA
ATOM      8  C   UNL     1      -3.104  -4.737  -1.401  0.00  0.00    +0.104 C 
ATOM      9  C   UNL     1      -2.289  -4.248  -0.204  0.00  0.00    +0.124 C 
ATOM     10  H   UNL     1      -2.037  -0.279   0.099  0.00  0.00    +0.156 HD
ENDROOT
BRANCH   1  16
ATOM     11  C   UNL     1       0.056   1.261  -0.585  0.00  0.00    +0.043 A 
ATOM     12  C   UNL     1       1.250   1.953  -0.575  0.00  0.00    +0.112 A 
ATOM     13  N   UNL     1       2.329   1.431  -0.024  0.00  0.00    -0.263 NA
ATOM     14  C   UNL     1       2.318   0.238   0.539  0.00  0.00    +0.112 A 
ATOM     15  C   UNL     1       1.165  -0.518   0.571  0.00  0.00    +0.043 A 
ATOM     16  C   UNL     1       0.002  -0.004  -0.001  0.00  0.00    +0.038 A 
ENDBRANCH   1  16
BRANCH   7  17
ATOM     17  C   UNL     1      -5.308  -4.697  -2.402  0.00  0.00    +0.128 C 
BRANCH  17  18
ATOM     18  C   UNL     1      -5.565  -6.150  -2.097  0.00  0.00    +0.018 A 
ATOM     19  C   UNL     1      -6.562  -6.706  -1.364  0.00  0.00    +0.029 A 
ATOM     20  C   UNL     1      -6.599  -8.080  -1.216  0.00  0.00    +0.023 A 
ATOM     21  C   UNL     1      -5.637  -8.831  -1.808  0.00  0.00    +0.046 A 
ATOM     22  S   UNL     1      -4.639  -7.588  -2.611  0.00  0.00    -0.099 S 
ATOM     23 BR   UNL     1      -7.881  -5.617  -0.557  0.00  0.00    -0.049 Br
ENDBRANCH  17  18
ENDBRANCH   7  17
TORSDOF 3
