REMARK  Name = ZINC36642024
REMARK  15 active torsions:
REMARK  status: ('A' for Active; 'I' for Inactive)
REMARK    1  A    between atoms: C_1  and  N_2
REMARK    2  A    between atoms: N_2  and  C_3
REMARK    3  A    between atoms: N_2  and  C_4
REMARK    4  A    between atoms: C_4  and  C_5
REMARK    5  A    between atoms: C_5  and  N_6
REMARK    6  A    between atoms: C_10  and  O_18
REMARK    7  A    between atoms: C_13  and  O_16
REMARK    8  A    between atoms: O_16  and  C_17
REMARK    9  A    between atoms: O_18  and  C_19
REMARK   10  A    between atoms: C_20  and  C_22
REMARK   11  A    between atoms: C_24  and  O_33
REMARK   12  A    between atoms: C_25  and  O_31
REMARK   13  A    between atoms: C_27  and  N_28
REMARK   14  A    between atoms: O_31  and  C_32
REMARK   15  A    between atoms: O_33  and  C_34
REMARK                            x       y       z     vdW  Elec       q    Type
REMARK                         _______ _______ _______ _____ _____    ______ ____
ROOT
ATOM      1  N   UNL     1      -2.802  -2.991   0.042  0.00  0.00    -0.248 N 
ATOM      2  C   UNL     1      -3.352  -3.307  -1.189  0.00  0.00    +0.169 A 
ATOM      3  N   UNL     1      -2.865  -3.088  -2.389  0.00  0.00    -0.221 NA
ATOM      4  C   UNL     1      -3.517  -3.454  -3.514  0.00  0.00    +0.125 A 
ATOM      5  C   UNL     1      -3.105  -3.278  -4.861  0.00  0.00    +0.147 A 
ATOM      6  C   UNL     1      -3.894  -3.712  -5.899  0.00  0.00    +0.051 A 
ATOM      7  C   UNL     1      -5.114  -4.333  -5.671  0.00  0.00    +0.050 A 
ATOM      8  C   UNL     1      -5.547  -4.521  -4.368  0.00  0.00    +0.136 A 
ATOM      9  C   UNL     1      -4.762  -4.090  -3.321  0.00  0.00    +0.086 A 
ATOM     10  S   UNL     1      -4.901  -4.122  -1.550  0.00  0.00    -0.048 S 
ATOM     11  C   UNL     1      -3.461  -3.306   1.175  0.00  0.00    +0.255 C 
ATOM     12  O   UNL     1      -4.492  -3.948   1.120  0.00  0.00    -0.270 OA
ENDROOT
BRANCH  11  13
ATOM     13  C   UNL     1      -2.930  -2.873   2.482  0.00  0.00    +0.071 A 
ATOM     14  C   UNL     1      -1.688  -3.340   2.924  0.00  0.00    +0.064 A 
ATOM     15  C   UNL     1      -1.196  -2.932   4.147  0.00  0.00    +0.162 A 
ATOM     16  C   UNL     1      -1.937  -2.055   4.939  0.00  0.00    +0.164 A 
ATOM     17  C   UNL     1      -3.169  -1.592   4.501  0.00  0.00    +0.082 A 
ATOM     18  C   UNL     1      -3.664  -1.991   3.278  0.00  0.00    +0.142 A 
BRANCH  18  19
ATOM     19  N   UNL     1      -4.976  -1.490   2.811  0.00  0.00    +0.057 N 
ATOM     20  O   UNL     1      -5.599  -0.705   3.488  0.00  0.00    -0.126 OA
ATOM     21  O   UNL     1      -5.425  -1.865   1.753  0.00  0.00    -0.126 OA
ENDBRANCH  18  19
BRANCH  16  22
ATOM     22  O   UNL     1      -1.451  -1.655   6.143  0.00  0.00    -0.491 OA
ATOM     23  C   UNL     1      -2.262  -0.756   6.903  0.00  0.00    +0.277 C 
ENDBRANCH  16  22
BRANCH  15  24
ATOM     24  O   UNL     1       0.011  -3.385   4.580  0.00  0.00    -0.491 OA
ATOM     25  C   UNL     1       0.764  -4.193   3.673  0.00  0.00    +0.277 C 
ENDBRANCH  15  24
ENDBRANCH  11  13
BRANCH   8  26
ATOM     26  O   UNL     1      -6.740  -5.128  -4.123  0.00  0.00    -0.494 OA
ATOM     27  C   UNL     1      -7.498  -5.549  -5.259  0.00  0.00    +0.277 C 
ENDBRANCH   8  26
BRANCH   5  28
ATOM     28  O   UNL     1      -1.916  -2.673  -5.127  0.00  0.00    -0.493 OA
ATOM     29  C   UNL     1      -1.557  -2.525  -6.502  0.00  0.00    +0.277 C 
ENDBRANCH   5  28
BRANCH   1  30
ATOM     30  C   UNL     1      -1.505  -2.313   0.114  0.00  0.00    +0.097 C 
BRANCH  30  31
ATOM     31  C   UNL     1      -1.715  -0.800   0.031  0.00  0.00    -0.060 C 
BRANCH  31  33
ATOM     32  C   UNL     1      -0.607   1.310  -0.244  0.00  0.00    -0.097 C 
ATOM     33  N   UNL     1      -0.410  -0.126  -0.004  0.00  0.00    +0.377 N 
ATOM     34  C   UNL     1       0.275  -0.319   1.281  0.00  0.00    -0.097 C 
ATOM     35  H   UNL     1       0.151  -0.517  -0.746  0.00  0.00    -0.083 HD
ENDBRANCH  31  33
ENDBRANCH  30  31
ENDBRANCH   1  30
TORSDOF 9
