REMARK  Name = ZINC11096305
REMARK  16 active torsions:
REMARK  status: ('A' for Active; 'I' for Inactive)
REMARK    1  A    between atoms: C_1  and  C_2
REMARK    2  A    between atoms: C_3  and  N_15
REMARK    3  A    between atoms: N_6  and  C_9
REMARK    4  A    between atoms: N_7  and  C_8
REMARK    5  A    between atoms: C_16  and  C_18
REMARK    6  A    between atoms: C_18  and  C_20
REMARK    7  A    between atoms: C_18  and  N_71
REMARK    8  A    between atoms: C_21  and  C_23
REMARK    9  A    between atoms: C_21  and  C_33
REMARK   10  A    between atoms: C_21  and  N_71
REMARK   11  A    between atoms: C_26  and  C_29
REMARK   12  A    between atoms: C_29  and  C_30
REMARK   13  A    between atoms: C_29  and  C_31
REMARK   14  A    between atoms: C_29  and  C_32
REMARK   15  A    between atoms: C_33  and  C_34
REMARK   16  A    between atoms: C_33  and  C_35
REMARK                            x       y       z     vdW  Elec       q    Type
REMARK                         _______ _______ _______ _____ _____    ______ ____
ROOT
ATOM      1  C   UNL     1      -1.360  -1.334   0.615  0.00  0.00    +0.014 C 
ATOM      2  C   UNL     1      -2.358  -0.590  -0.274  0.00  0.00    -0.004 C 
ENDROOT
BRANCH   1   4
ATOM      3  N   UNL     1       0.382   0.411   0.424  0.00  0.00    -0.281 N 
ATOM      4  C   UNL     1       0.040  -0.885   0.284  0.00  0.00    +0.203 C 
ATOM      5  O   UNL     1       0.858  -1.690  -0.108  0.00  0.00    -0.277 OA
ATOM      6  H   UNL     1      -0.291   1.067   0.664  0.00  0.00    +0.155 HD
BRANCH   3   9
ATOM      7  C   UNL     1       1.276   2.486  -1.652  0.00  0.00    +0.067 C 
ATOM      8  C   UNL     1       2.147   1.723  -0.688  0.00  0.00    +0.059 A 
ATOM      9  C   UNL     1       1.716   0.814   0.215  0.00  0.00    +0.121 A 
ATOM     10  C   UNL     1       2.892   0.331   0.940  0.00  0.00    +0.293 A 
ATOM     11  O   UNL     1       2.903  -0.494   1.836  0.00  0.00    -0.264 OA
ATOM     12  N   UNL     1       3.962   0.970   0.423  0.00  0.00    -0.216 N 
ATOM     13  N   UNL     1       3.508   1.834  -0.580  0.00  0.00    -0.282 N 
ATOM     14  C   UNL     1       4.355   2.717  -1.387  0.00  0.00    +0.171 C 
BRANCH  12  15
ATOM     15  C   UNL     1       5.291   0.803   0.824  0.00  0.00    +0.067 A 
ATOM     16  C   UNL     1       6.284   0.599  -0.125  0.00  0.00    +0.028 A 
ATOM     17  C   UNL     1       7.597   0.439   0.274  0.00  0.00    +0.002 A 
ATOM     18  C   UNL     1       7.921   0.472   1.618  0.00  0.00    +0.000 A 
ATOM     19  C   UNL     1       6.934   0.670   2.566  0.00  0.00    +0.002 A 
ATOM     20  C   UNL     1       5.620   0.836   2.173  0.00  0.00    +0.028 A 
ENDBRANCH  12  15
ENDBRANCH   3   9
ENDBRANCH   1   4
BRANCH   1  21
ATOM     21  N   UNL     1      -1.473  -2.785   0.375  0.00  0.00    +0.391 N 
ATOM     22  H   UNL     1      -0.581  -3.237   0.608  0.00  0.00    -0.084 HD
ATOM     23  H   UNL     1      -1.691  -2.949  -0.615  0.00  0.00    -0.084 HD
BRANCH  21  24
ATOM     24  C   UNL     1      -2.543  -3.362   1.210  0.00  0.00    -0.037 C 
BRANCH  24  25
ATOM     25  C   UNL     1      -3.857  -3.268   0.479  0.00  0.00    -0.061 A 
ATOM     26  C   UNL     1      -3.909  -3.503  -0.882  0.00  0.00    +0.002 A 
ATOM     27  C   UNL     1      -5.115  -3.422  -1.552  0.00  0.00    +0.004 A 
ATOM     28  C   UNL     1      -6.268  -3.096  -0.862  0.00  0.00    -0.042 A 
ATOM     29  C   UNL     1      -6.216  -2.856   0.498  0.00  0.00    +0.004 A 
ATOM     30  C   UNL     1      -5.010  -2.942   1.169  0.00  0.00    +0.002 A 
BRANCH  28  31
ATOM     31  C   UNL     1      -7.583  -3.002  -1.594  0.00  0.00    -0.013 C 
ATOM     32  C   UNL     1      -8.149  -1.589  -1.446  0.00  0.00    +0.015 C 
ATOM     33  C   UNL     1      -7.365  -3.312  -3.076  0.00  0.00    +0.015 C 
ATOM     34  C   UNL     1      -8.569  -4.012  -1.002  0.00  0.00    +0.015 C 
ENDBRANCH  28  31
ENDBRANCH  24  25
BRANCH  24  35
ATOM     35  C   UNL     1      -2.221  -4.830   1.496  0.00  0.00    -0.027 C 
ATOM     36  C   UNL     1      -0.929  -4.920   2.310  0.00  0.00    +0.006 C 
ATOM     37  C   UNL     1      -3.369  -5.458   2.289  0.00  0.00    +0.006 C 
ENDBRANCH  24  35
ENDBRANCH  21  24
ENDBRANCH   1  21
TORSDOF 8
