REMARK  Name = ZINC40004968
REMARK  14 active torsions:
REMARK  status: ('A' for Active; 'I' for Inactive)
REMARK    1  A    between atoms: C_1  and  C_2
REMARK    2  A    between atoms: C_2  and  C_3
REMARK    3  A    between atoms: C_2  and  N_4
REMARK    4  A    between atoms: N_4  and  S_5
REMARK    5  A    between atoms: S_5  and  C_8
REMARK    6  A    between atoms: C_11  and  N_17
REMARK    7  A    between atoms: C_12  and  N_14
REMARK    8  A    between atoms: N_17  and  C_18
REMARK    9  A    between atoms: N_17  and  C_19
REMARK   10  A    between atoms: C_19  and  C_20
REMARK   11  A    between atoms: C_20  and  C_21
REMARK   12  A    between atoms: C_21  and  C_22
REMARK   13  A    between atoms: C_23  and  C_29
REMARK   14  A    between atoms: C_24  and  N_28
REMARK                            x       y       z     vdW  Elec       q    Type
REMARK                         _______ _______ _______ _____ _____    ______ ____
ROOT
ATOM      1  C   UNL     1      -1.242  -2.272  -2.098  0.00  0.00    +0.108 A 
ATOM      2  C   UNL     1      -0.176  -2.049  -2.950  0.00  0.00    +0.030 A 
ATOM      3  C   UNL     1       0.514  -3.116  -3.490  0.00  0.00    +0.027 A 
ATOM      4  C   UNL     1       0.136  -4.416  -3.175  0.00  0.00    +0.060 A 
ATOM      5  C   UNL     1      -0.934  -4.637  -2.319  0.00  0.00    +0.149 A 
ATOM      6  C   UNL     1      -1.617  -3.564  -1.779  0.00  0.00    +0.063 A 
ENDROOT
BRANCH   1   7
ATOM      7  S   UNL     1      -2.119  -0.907  -1.411  0.00  0.00    +0.059 S 
ATOM      8  O   UNL     1      -3.414  -1.386  -1.071  0.00  0.00    -0.153 OA
ATOM      9  O   UNL     1      -1.920   0.189  -2.293  0.00  0.00    -0.153 OA
BRANCH   7  10
ATOM     10  N   UNL     1      -1.372  -0.511   0.012  0.00  0.00    -0.187 NA
ATOM     11  H   UNL     1      -1.845  -0.615   0.853  0.00  0.00    +0.148 HD
BRANCH  10  13
ATOM     12  C   UNL     1      -0.019   1.526   0.010  0.00  0.00    +0.025 C 
ATOM     13  C   UNL     1       0.002  -0.004   0.002  0.00  0.00    +0.070 C 
ATOM     14  C   UNL     1       0.742  -0.511   1.242  0.00  0.00    +0.025 C 
ENDBRANCH  10  13
ENDBRANCH   7  10
ENDBRANCH   1   7
BRANCH   5  15
ATOM     15  N   UNL     1      -1.341  -6.019  -1.982  0.00  0.00    +0.058 N 
ATOM     16  O   UNL     1      -2.273  -6.211  -1.236  0.00  0.00    -0.126 OA
ATOM     17  O   UNL     1      -0.740  -6.957  -2.452  0.00  0.00    -0.126 OA
ENDBRANCH   5  15
BRANCH   4  18
ATOM     18  N   UNL     1       0.832  -5.498  -3.720  0.00  0.00    -0.331 N 
ATOM     19  C   UNL     1       1.988  -6.056  -3.014  0.00  0.00    +0.129 C 
BRANCH  18  20
ATOM     20  C   UNL     1       0.405  -6.075  -4.997  0.00  0.00    +0.105 C 
BRANCH  20  21
ATOM     21  C   UNL     1       1.126  -5.364  -6.144  0.00  0.00    +0.025 C 
BRANCH  21  22
ATOM     22  C   UNL     1       0.680  -5.968  -7.478  0.00  0.00    +0.060 C 
BRANCH  22  23
ATOM     23  C   UNL     1       1.390  -5.267  -8.608  0.00  0.00    +0.082 A 
ATOM     24  C   UNL     1       0.932  -4.115  -9.287  0.00  0.00    +0.113 A 
ATOM     25  C   UNL     1       1.886  -3.804 -10.252  0.00  0.00    +0.129 A 
ATOM     26  N   UNL     1       2.865  -4.728 -10.153  0.00  0.00    -0.263 N 
ATOM     27  H   UNL     1       3.666  -4.766 -10.700  0.00  0.00    +0.190 HD
ATOM     28  N   UNL     1       2.535  -5.616  -9.124  0.00  0.00    -0.176 NA
BRANCH  25  29
ATOM     29  N   UNL     1       1.839  -2.750 -11.144  0.00  0.00    -0.342 N 
ATOM     30  H   UNL     1       1.085  -2.139 -11.133  0.00  0.00    +0.144 HD
ATOM     31  H   UNL     1       2.559  -2.621 -11.780  0.00  0.00    +0.144 HD
ENDBRANCH  25  29
BRANCH  24  32
ATOM     32  C   UNL     1      -0.284  -3.402  -9.031  0.00  0.00    +0.104 C 
ATOM     33  N   UNL     1      -1.248  -2.837  -8.828  0.00  0.00    -0.191 NA
ENDBRANCH  24  32
ENDBRANCH  22  23
ENDBRANCH  21  22
ENDBRANCH  20  21
ENDBRANCH  18  20
ENDBRANCH   4  18
TORSDOF 11
