REMARK  Name = ZINC13065159
REMARK  16 active torsions:
REMARK  status: ('A' for Active; 'I' for Inactive)
REMARK    1  A    between atoms: C_1  and  C_2
REMARK    2  A    between atoms: C_2  and  C_3
REMARK    3  A    between atoms: C_3  and  C_5
REMARK    4  A    between atoms: C_3  and  N_72
REMARK    5  A    between atoms: N_9  and  C_10
REMARK    6  A    between atoms: C_10  and  C_11
REMARK    7  A    between atoms: C_10  and  C_12
REMARK    8  A    between atoms: C_10  and  C_13
REMARK    9  A    between atoms: C_14  and  C_15
REMARK   10  A    between atoms: C_14  and  N_72
REMARK   11  A    between atoms: C_18  and  O_21
REMARK   12  A    between atoms: O_21  and  C_22
REMARK   13  A    between atoms: C_23  and  C_24
REMARK   14  A    between atoms: C_23  and  N_72
REMARK   15  A    between atoms: C_27  and  C_37
REMARK   16  A    between atoms: C_30  and  C_36
REMARK                            x       y       z     vdW  Elec       q    Type
REMARK                         _______ _______ _______ _____ _____    ______ ____
ROOT
ATOM      1  N   UNL     1      -1.123   2.852   0.786  0.00  0.00    +0.392 N 
ATOM      2  H   UNL     1      -0.338   3.471   0.550  0.00  0.00    -0.080 HD
ENDROOT
BRANCH   1   3
ATOM      3  C   UNL     1      -1.448   2.018  -0.390  0.00  0.00    +0.003 C 
BRANCH   3   4
ATOM      4  C   UNL     1      -1.089   2.786  -1.636  0.00  0.00    +0.139 A 
ATOM      5  N   UNL     1      -1.227   4.075  -1.828  0.00  0.00    -0.115 NA
ATOM      6  N   UNL     1      -0.815   4.347  -3.018  0.00  0.00    -0.023 NA
ATOM      7  N   UNL     1      -0.417   3.265  -3.590  0.00  0.00    -0.043 NA
ATOM      8  N   UNL     1      -0.571   2.280  -2.771  0.00  0.00    -0.226 N 
BRANCH   8   9
ATOM      9  C   UNL     1      -0.242   0.876  -3.027  0.00  0.00    +0.059 C 
ATOM     10  C   UNL     1      -1.466   0.005  -2.739  0.00  0.00    +0.036 C 
ATOM     11  C   UNL     1       0.172   0.707  -4.490  0.00  0.00    +0.036 C 
ATOM     12  C   UNL     1       0.913   0.449  -2.118  0.00  0.00    +0.036 C 
ENDBRANCH   8   9
ENDBRANCH   3   4
BRANCH   3  14
ATOM     13  C   UNL     1      -3.286   0.823   0.808  0.00  0.00    +0.002 C 
ATOM     14  C   UNL     1      -2.940   1.682  -0.410  0.00  0.00    -0.011 C 
ENDBRANCH   3  14
ENDBRANCH   1   3
BRANCH   1  15
ATOM     15  C   UNL     1      -0.732   1.992   1.923  0.00  0.00    -0.042 C 
BRANCH  15  16
ATOM     16  C   UNL     1       0.689   1.536   1.716  0.00  0.00    -0.064 A 
ATOM     17  C   UNL     1       0.942   0.292   1.168  0.00  0.00    +0.005 A 
ATOM     18  C   UNL     1       2.244  -0.126   0.972  0.00  0.00    +0.046 A 
ATOM     19  C   UNL     1       3.298   0.699   1.336  0.00  0.00    +0.120 A 
ATOM     20  C   UNL     1       3.042   1.944   1.891  0.00  0.00    +0.046 A 
ATOM     21  C   UNL     1       1.738   2.360   2.079  0.00  0.00    +0.005 A 
BRANCH  19  22
ATOM     22  O   UNL     1       4.580   0.287   1.149  0.00  0.00    -0.495 OA
ATOM     23  C   UNL     1       4.769  -1.007   0.573  0.00  0.00    +0.277 C 
ENDBRANCH  19  22
ENDBRANCH  15  16
ENDBRANCH   1  15
BRANCH   1  24
ATOM     24  C   UNL     1      -2.291   3.679   1.156  0.00  0.00    -0.036 C 
BRANCH  24  25
ATOM     25  C   UNL     1      -2.367   4.855   0.217  0.00  0.00    +0.001 A 
ATOM     26  C   UNL     1      -3.316   4.886  -0.751  0.00  0.00    +0.017 A 
ATOM     27  C   UNL     1      -3.366   6.045  -1.644  0.00  0.00    +0.002 A 
ATOM     28  C   UNL     1      -4.326   6.137  -2.657  0.00  0.00    -0.041 A 
ATOM     29  C   UNL     1      -4.343   7.230  -3.477  0.00  0.00    +0.004 A 
ATOM     30  C   UNL     1      -3.417   8.251  -3.313  0.00  0.00    +0.005 A 
ATOM     31  C   UNL     1      -2.462   8.181  -2.321  0.00  0.00    -0.026 A 
ATOM     32  C   UNL     1      -2.425   7.078  -1.474  0.00  0.00    +0.052 A 
ATOM     33  N   UNL     1      -1.482   6.984  -0.473  0.00  0.00    -0.322 N 
ATOM     34  H   UNL     1      -0.834   7.697  -0.358  0.00  0.00    +0.169 HD
ATOM     35  C   UNL     1      -1.447   5.918   0.345  0.00  0.00    +0.251 A 
ATOM     36  O   UNL     1      -0.598   5.867   1.218  0.00  0.00    -0.268 OA
ATOM     37  C   UNL     1      -1.463   9.297  -2.155  0.00  0.00    +0.046 C 
ATOM     38  C   UNL     1      -5.337   5.035  -2.844  0.00  0.00    +0.044 C 
ENDBRANCH  24  25
ENDBRANCH   1  24
TORSDOF 9
