REMARK  Name = ZINC05130268
REMARK  7 active torsions:
REMARK  status: ('A' for Active; 'I' for Inactive)
REMARK    1  A    between atoms: C_1  and  C_2
REMARK    2  A    between atoms: C_2  and  C_4
REMARK    3  A    between atoms: C_2  and  N_17
REMARK    4  A    between atoms: N_6  and  N_7
REMARK    5  A    between atoms: C_8  and  C_9
REMARK    6  A    between atoms: C_14  and  O_15
REMARK    7  A    between atoms: N_17  and  C_18
REMARK                            x       y       z     vdW  Elec       q    Type
REMARK                         _______ _______ _______ _____ _____    ______ ____
ROOT
ATOM      1  C   UNL     1       0.000   1.080   2.488  0.00  0.00    +0.252 C 
ATOM      2  O   UNL     1       0.458   1.870   3.286  0.00  0.00    -0.272 OA
ATOM      3  N   UNL     1       0.143  -0.244   2.692  0.00  0.00    -0.205 N 
ATOM      4  H   UNL     1      -0.223  -0.876   2.054  0.00  0.00    +0.177 HD
ENDROOT
BRANCH   1   6
ATOM      5  C   UNL     1      -0.013   1.086   0.008  0.00  0.00    +0.038 C 
ATOM      6  C   UNL     1      -0.729   1.579   1.267  0.00  0.00    +0.155 C 
BRANCH   6   7
ATOM      7  N   UNL     1      -0.749   3.044   1.275  0.00  0.00    -0.333 N 
ATOM      8  H   UNL     1      -0.063   3.536   1.753  0.00  0.00    +0.147 HD
BRANCH   7   9
ATOM      9  C   UNL     1      -1.756   3.733   0.594  0.00  0.00    +0.028 A 
ATOM     10  C   UNL     1      -2.736   3.030  -0.096  0.00  0.00    +0.024 A 
ATOM     11  C   UNL     1      -3.733   3.714  -0.763  0.00  0.00    +0.017 A 
ATOM     12  C   UNL     1      -3.750   5.097  -0.755  0.00  0.00    +0.018 A 
ATOM     13  C   UNL     1      -2.772   5.800  -0.073  0.00  0.00    +0.017 A 
ATOM     14  C   UNL     1      -1.776   5.122   0.601  0.00  0.00    +0.024 A 
ATOM     15 BR   UNL     1      -5.113   6.029  -1.676  0.00  0.00    -0.050 Br
ENDBRANCH   7   9
ENDBRANCH   6   7
ENDBRANCH   1   6
BRANCH   3  16
ATOM     16  N   UNL     1       0.821  -0.709   3.828  0.00  0.00    -0.188 NA
ATOM     17  C   UNL     1       0.959  -1.984   4.025  0.00  0.00    +0.142 C 
BRANCH  17  18
ATOM     18  C   UNL     1       1.671  -2.472   5.219  0.00  0.00    +0.037 A 
ATOM     19  C   UNL     1       1.817  -3.844   5.438  0.00  0.00    +0.033 A 
ATOM     20  C   UNL     1       2.489  -4.294   6.556  0.00  0.00    +0.042 A 
ATOM     21  C   UNL     1       3.012  -3.391   7.467  0.00  0.00    +0.023 A 
ATOM     22  C   UNL     1       2.870  -2.031   7.263  0.00  0.00    +0.047 A 
ATOM     23  C   UNL     1       2.202  -1.563   6.144  0.00  0.00    +0.126 A 
ATOM     24 CL   UNL     1       2.675  -5.999   6.824  0.00  0.00    -0.084 Cl
BRANCH  23  25
ATOM     25  O   UNL     1       2.061  -0.227   5.943  0.00  0.00    -0.506 OA
ATOM     26  H   UNL     1       1.260   0.147   6.334  0.00  0.00    +0.292 HD
ENDBRANCH  23  25
ENDBRANCH  17  18
ENDBRANCH   3  16
TORSDOF 6
