REMARK  Name = ZINC03525580
REMARK  10 active torsions:
REMARK  status: ('A' for Active; 'I' for Inactive)
REMARK    1  A    between atoms: C_1  and  C_2
REMARK    2  A    between atoms: C_4  and  C_12
REMARK    3  A    between atoms: C_5  and  C_11
REMARK    4  A    between atoms: N_6  and  C_7
REMARK    5  A    between atoms: C_7  and  C_8
REMARK    6  A    between atoms: C_8  and  C_9
REMARK    7  A    between atoms: C_8  and  C_10
REMARK    8  A    between atoms: N_13  and  N_14
REMARK    9  A    between atoms: C_15  and  C_17
REMARK   10  A    between atoms: C_20  and  N_23
REMARK                            x       y       z     vdW  Elec       q    Type
REMARK                         _______ _______ _______ _____ _____    ______ ____
ROOT
ATOM      1  C   UNL     1      -3.134   1.298   3.908  0.00  0.00    +0.140 C 
ATOM      2  N   UNL     1      -3.796   0.188   3.791  0.00  0.00    -0.187 NA
ENDROOT
BRANCH   1   6
ATOM      3  C   UNL     1       0.617   3.734   1.448  0.00  0.00    +0.063 C 
ATOM      4  C   UNL     1      -0.427   2.728   1.858  0.00  0.00    +0.016 A 
ATOM      5  C   UNL     1      -1.248   2.841   2.920  0.00  0.00    +0.032 A 
ATOM      6  C   UNL     1      -2.083   1.637   2.931  0.00  0.00    +0.015 A 
ATOM      7  C   UNL     1      -1.693   0.892   1.855  0.00  0.00    +0.024 A 
ATOM      8  N   UNL     1      -0.698   1.558   1.213  0.00  0.00    -0.347 N 
ATOM      9  C   UNL     1      -2.268  -0.441   1.449  0.00  0.00    +0.064 C 
BRANCH   8  10
ATOM     10  C   UNL     1      -0.013   1.086   0.008  0.00  0.00    +0.124 C 
BRANCH  10  11
ATOM     11  C   UNL     1      -0.753   1.593  -1.232  0.00  0.00    +0.003 C 
ATOM     12  C   UNL     1       0.031   1.205  -2.487  0.00  0.00    +0.009 C 
ATOM     13  C   UNL     1      -2.147   0.964  -1.286  0.00  0.00    +0.009 C 
ENDBRANCH  10  11
ENDBRANCH   8  10
ENDBRANCH   1   6
BRANCH   2  14
ATOM     14  N   UNL     1      -4.794  -0.135   4.719  0.00  0.00    -0.203 N 
ATOM     15  C   UNL     1      -5.481  -1.288   4.597  0.00  0.00    +0.263 C 
ATOM     16  O   UNL     1      -5.235  -2.048   3.681  0.00  0.00    -0.268 OA
ATOM     17  H   UNL     1      -4.990   0.472   5.450  0.00  0.00    +0.178 HD
BRANCH  15  18
ATOM     18  C   UNL     1      -6.532  -1.627   5.575  0.00  0.00    +0.038 A 
ATOM     19  C   UNL     1      -6.812  -0.756   6.633  0.00  0.00    +0.015 A 
ATOM     20  C   UNL     1      -7.798  -1.073   7.540  0.00  0.00    +0.023 A 
ATOM     21  C   UNL     1      -8.506  -2.264   7.412  0.00  0.00    +0.025 A 
ATOM     22  C   UNL     1      -8.226  -3.136   6.364  0.00  0.00    +0.023 A 
ATOM     23  C   UNL     1      -7.246  -2.822   5.450  0.00  0.00    +0.015 A 
BRANCH  21  24
ATOM     24  N   UNL     1      -9.497  -2.584   8.334  0.00  0.00    -0.358 N 
ATOM     25  H   UNL     1      -9.992  -3.414   8.246  0.00  0.00    +0.142 HD
ATOM     26  H   UNL     1      -9.694  -1.977   9.065  0.00  0.00    +0.142 HD
ENDBRANCH  21  24
ENDBRANCH  15  18
ENDBRANCH   2  14
TORSDOF 6
