REMARK  Name = ZINC20737671
REMARK  9 active torsions:
REMARK  status: ('A' for Active; 'I' for Inactive)
REMARK    1  A    between atoms: C_1  and  C_2
REMARK    2  A    between atoms: C_2  and  N_3
REMARK    3  A    between atoms: C_7  and  C_9
REMARK    4  A    between atoms: C_9  and  N_10
REMARK    5  A    between atoms: C_11  and  C_13
REMARK    6  A    between atoms: N_19  and  C_31
REMARK    7  A    between atoms: C_23  and  C_24
REMARK    8  A    between atoms: C_31  and  C_32
REMARK    9  A    between atoms: C_36  and  C_38
REMARK                            x       y       z     vdW  Elec       q    Type
REMARK                         _______ _______ _______ _____ _____    ______ ____
ROOT
ATOM      1  C   UNL     1      -0.688   1.085   0.944  0.00  0.00    +0.039 A 
ATOM      2  C   UNL     1       0.307   0.273   1.496  0.00  0.00    +0.014 A 
ATOM      3  C   UNL     1       0.187  -1.097   1.421  0.00  0.00    +0.017 A 
ATOM      4  C   UNL     1      -0.916  -1.668   0.799  0.00  0.00    +0.034 A 
ATOM      5  C   UNL     1      -1.922  -0.870   0.242  0.00  0.00    +0.051 A 
ATOM      6  C   UNL     1      -1.797   0.512   0.321  0.00  0.00    +0.037 A 
ATOM      7  N   UNL     1      -3.044  -1.397  -0.385  0.00  0.00    -0.262 N 
ATOM      8  C   UNL     1      -3.534  -2.631  -0.237  0.00  0.00    +0.258 C 
ATOM      9  O   UNL     1      -4.578  -2.935  -0.782  0.00  0.00    -0.269 OA
ATOM     10  C   UNL     1      -2.816  -3.632   0.583  0.00  0.00    +0.076 C 
ATOM     11  C   UNL     1      -3.464  -4.646   1.206  0.00  0.00    +0.028 C 
ATOM     12  S   UNL     1      -1.058  -3.428   0.705  0.00  0.00    -0.082 S 
ENDROOT
BRANCH  11  13
ATOM     13  C   UNL     1      -2.698  -5.711   1.870  0.00  0.00    -0.024 A 
ATOM     14  C   UNL     1      -1.473  -6.130   1.340  0.00  0.00    +0.008 A 
ATOM     15  C   UNL     1      -0.758  -7.127   1.971  0.00  0.00    +0.001 A 
ATOM     16  C   UNL     1      -1.254  -7.718   3.120  0.00  0.00    +0.000 A 
ATOM     17  C   UNL     1      -2.468  -7.312   3.648  0.00  0.00    +0.001 A 
ATOM     18  C   UNL     1      -3.192  -6.314   3.032  0.00  0.00    +0.008 A 
ENDBRANCH  11  13
BRANCH   1  20
ATOM     19  N   UNL     1       0.505   3.109   1.622  0.00  0.00    -0.313 N 
ATOM     20  C   UNL     1      -0.565   2.553   1.020  0.00  0.00    +0.244 C 
ATOM     21  O   UNL     1      -1.429   3.262   0.541  0.00  0.00    -0.270 OA
ATOM     22  H   UNL     1       1.287   2.468   2.055  0.00  0.00    +0.149 HD
BRANCH  19  23
ATOM     23  C   UNL     1       0.627   4.567   1.698  0.00  0.00    +0.089 C 
BRANCH  23  28
ATOM     24  N   UNL     1       2.152   6.398   2.308  0.00  0.00    +0.382 N 
ATOM     25  C   UNL     1       2.280   6.863   3.706  0.00  0.00    -0.078 C 
ATOM     26  C   UNL     1       2.791   5.628   4.488  0.00  0.00    -0.020 C 
ATOM     27  C   UNL     1       2.028   4.471   3.785  0.00  0.00    -0.016 C 
ATOM     28  C   UNL     1       1.979   4.934   2.314  0.00  0.00    -0.051 C 
ATOM     29  H   UNL     1       3.059   6.661   1.743  0.00  0.00    -0.081 HD
BRANCH  24  31
ATOM     30  C   UNL     1       1.196   8.576   1.725  0.00  0.00    -0.017 C 
ATOM     31  C   UNL     1       1.026   7.059   1.634  0.00  0.00    -0.082 C 
ENDBRANCH  24  31
ENDBRANCH  23  28
ENDBRANCH  19  23
ENDBRANCH   1  20
BRANCH   7  32
ATOM     32  C   UNL     1      -3.763  -0.510  -1.302  0.00  0.00    +0.149 C 
BRANCH  32  33
ATOM     33  C   UNL     1      -3.102  -0.545  -2.656  0.00  0.00    -0.029 A 
ATOM     34  C   UNL     1      -3.509  -1.470  -3.600  0.00  0.00    +0.005 A 
ATOM     35  C   UNL     1      -2.903  -1.502  -4.842  0.00  0.00    +0.001 A 
ATOM     36  C   UNL     1      -1.891  -0.609  -5.141  0.00  0.00    +0.003 A 
ATOM     37  C   UNL     1      -1.485   0.316  -4.197  0.00  0.00    -0.050 A 
ATOM     38  C   UNL     1      -2.093   0.351  -2.957  0.00  0.00    +0.008 A 
ATOM     39  C   UNL     1      -0.382   1.290  -4.523  0.00  0.00    +0.044 C 
ENDBRANCH  32  33
ENDBRANCH   7  32
TORSDOF 7
