REMARK  Name = ZINC09936319
REMARK  7 active torsions:
REMARK  status: ('A' for Active; 'I' for Inactive)
REMARK    1  A    between atoms: C_1  and  C_2
REMARK    2  A    between atoms: C_7  and  N_8
REMARK    3  A    between atoms: C_9  and  C_11
REMARK    4  A    between atoms: C_11  and  N_12
REMARK    5  A    between atoms: N_15  and  C_16
REMARK    6  A    between atoms: C_16  and  C_18
REMARK    7  A    between atoms: C_16  and  C_24
REMARK                            x       y       z     vdW  Elec       q    Type
REMARK                         _______ _______ _______ _____ _____    ______ ____
ROOT
ATOM      1  N   UNL     1       1.143   1.901  -0.015  0.00  0.00    -0.291 N 
ATOM      2  C   UNL     1      -0.015   1.211  -0.018  0.00  0.00    +0.300 C 
ATOM      3  O   UNL     1       0.002  -0.005  -0.032  0.00  0.00    -0.253 OA
ATOM      4  N   UNL     1      -1.191   1.869  -0.010  0.00  0.00    -0.292 N 
ATOM      5  H   UNL     1       1.130   2.870  -0.004  0.00  0.00    +0.151 HD
ATOM      6  H   UNL     1      -1.204   2.838   0.002  0.00  0.00    +0.151 HD
ENDROOT
BRANCH   1   7
ATOM      7  C   UNL     1       2.422   1.186  -0.030  0.00  0.00    +0.202 C 
BRANCH   7   9
ATOM      8  N   UNL     1       4.831   1.749  -0.035  0.00  0.00    -0.284 N 
ATOM      9  C   UNL     1       3.554   2.181  -0.023  0.00  0.00    +0.234 C 
ATOM     10  O   UNL     1       3.316   3.370  -0.008  0.00  0.00    -0.274 OA
ATOM     11  H   UNL     1       5.022   0.801   0.034  0.00  0.00    +0.155 HD
BRANCH   8  18
ATOM     12  C   UNL     1       7.377   1.015   1.001  0.00  0.00    +0.046 C 
ATOM     13  C   UNL     1       7.138   2.352   0.347  0.00  0.00    -0.028 A 
ATOM     14  C   UNL     1       8.173   3.259   0.232  0.00  0.00    +0.020 A 
ATOM     15  C   UNL     1       7.953   4.489  -0.363  0.00  0.00    +0.018 A 
ATOM     16  C   UNL     1       6.698   4.810  -0.850  0.00  0.00    +0.017 A 
ATOM     17  C   UNL     1       5.662   3.904  -0.743  0.00  0.00    +0.024 A 
ATOM     18  C   UNL     1       5.879   2.669  -0.145  0.00  0.00    +0.036 A 
ATOM     19 BR   UNL     1       9.370   5.732  -0.512  0.00  0.00    -0.050 Br
ENDBRANCH   8  18
ENDBRANCH   7   9
ENDBRANCH   1   7
BRANCH   4  20
ATOM     20  C   UNL     1      -2.449   1.119  -0.019  0.00  0.00    +0.108 C 
BRANCH  20  21
ATOM     21  C   UNL     1      -3.540   1.961   0.592  0.00  0.00    -0.027 A 
ATOM     22  C   UNL     1      -3.602   3.314   0.320  0.00  0.00    +0.005 A 
ATOM     23  C   UNL     1      -4.605   4.086   0.876  0.00  0.00    +0.000 A 
ATOM     24  C   UNL     1      -5.540   3.505   1.712  0.00  0.00    +0.000 A 
ATOM     25  C   UNL     1      -5.475   2.152   1.988  0.00  0.00    +0.000 A 
ATOM     26  C   UNL     1      -4.475   1.380   1.428  0.00  0.00    +0.005 A 
ENDBRANCH  20  21
BRANCH  20  27
ATOM     27  C   UNL     1      -2.823   0.767  -1.460  0.00  0.00    +0.014 C 
ATOM     28  C   UNL     1      -3.154  -0.695  -1.768  0.00  0.00    +0.006 C 
ATOM     29  C   UNL     1      -1.837  -0.089  -2.257  0.00  0.00    +0.006 C 
ENDBRANCH  20  27
ENDBRANCH   4  20
TORSDOF 6
