REMARK  Name = ZINC09155775
REMARK  11 active torsions:
REMARK  status: ('A' for Active; 'I' for Inactive)
REMARK    1  A    between atoms: C_1  and  C_2
REMARK    2  A    between atoms: C_5  and  S_8
REMARK    3  A    between atoms: S_8  and  N_11
REMARK    4  A    between atoms: N_11  and  C_12
REMARK    5  A    between atoms: C_12  and  C_14
REMARK    6  A    between atoms: C_12  and  C_18
REMARK    7  A    between atoms: C_14  and  C_15
REMARK    8  A    between atoms: C_15  and  C_16
REMARK    9  A    between atoms: C_15  and  C_17
REMARK   10  A    between atoms: N_20  and  C_21
REMARK   11  A    between atoms: C_30  and  C_33
REMARK                            x       y       z     vdW  Elec       q    Type
REMARK                         _______ _______ _______ _____ _____    ______ ____
ROOT
ATOM      1  C   UNL     1      -3.516   6.387   0.294  0.00  0.00    +0.163 C 
ENDROOT
BRANCH   1   2
ATOM      2  C   UNL     1      -2.376   5.647   0.946  0.00  0.00    +0.236 C 
ATOM      3  O   UNL     1      -1.365   6.242   1.254  0.00  0.00    -0.274 OA
ATOM      4  N   UNL     1      -2.481   4.325   1.186  0.00  0.00    -0.284 N 
ATOM      5  H   UNL     1      -3.259   3.836   0.875  0.00  0.00    +0.155 HD
BRANCH   4   6
ATOM      6  C   UNL     1      -1.466   3.658   1.883  0.00  0.00    +0.035 A 
ATOM      7  C   UNL     1      -0.757   4.319   2.878  0.00  0.00    +0.027 A 
ATOM      8  C   UNL     1       0.246   3.664   3.569  0.00  0.00    +0.049 A 
ATOM      9  C   UNL     1       0.546   2.347   3.269  0.00  0.00    +0.143 A 
ATOM     10  C   UNL     1      -0.164   1.680   2.271  0.00  0.00    +0.077 A 
ATOM     11  C   UNL     1      -1.165   2.337   1.576  0.00  0.00    +0.050 A 
ATOM     12  N   UNL     1       0.153   0.346   1.979  0.00  0.00    -0.279 N 
ATOM     13  C   UNL     1       0.899  -0.357   2.858  0.00  0.00    +0.258 C 
ATOM     14  O   UNL     1       1.210  -1.504   2.612  0.00  0.00    -0.271 OA
ATOM     15  C   UNL     1       1.344   0.288   4.146  0.00  0.00    +0.256 C 
ATOM     16  O   UNL     1       1.530   1.690   3.941  0.00  0.00    -0.478 OA
ATOM     17  C   UNL     1       2.662  -0.341   4.602  0.00  0.00    +0.062 C 
ATOM     18  H   UNL     1      -0.160  -0.066   1.158  0.00  0.00    +0.155 HD
ENDBRANCH   4   6
ENDBRANCH   1   2
BRANCH   1  19
ATOM     19  N   UNL     1      -3.159   7.800   0.144  0.00  0.00    -0.178 NA
ATOM     20  H   UNL     1      -2.342   8.047  -0.316  0.00  0.00    +0.149 HD
BRANCH  19  21
ATOM     21  S   UNL     1      -4.151   8.975   0.759  0.00  0.00    +0.059 S 
ATOM     22  O   UNL     1      -3.523  10.220   0.487  0.00  0.00    -0.153 OA
ATOM     23  O   UNL     1      -5.466   8.671   0.313  0.00  0.00    -0.153 OA
BRANCH  21  28
ATOM     24  C   UNL     1      -4.173   8.331   6.758  0.00  0.00    +0.044 C 
ATOM     25  C   UNL     1      -4.168   8.492   5.260  0.00  0.00    -0.050 A 
ATOM     26  C   UNL     1      -3.231   9.310   4.656  0.00  0.00    +0.005 A 
ATOM     27  C   UNL     1      -3.226   9.457   3.282  0.00  0.00    +0.029 A 
ATOM     28  C   UNL     1      -4.157   8.787   2.511  0.00  0.00    +0.105 A 
ATOM     29  C   UNL     1      -5.097   7.972   3.115  0.00  0.00    +0.029 A 
ATOM     30  C   UNL     1      -5.099   7.821   4.489  0.00  0.00    +0.005 A 
ENDBRANCH  21  28
ENDBRANCH  19  21
ENDBRANCH   1  19
BRANCH   1  31
ATOM     31  C   UNL     1      -3.796   5.782  -1.083  0.00  0.00    +0.032 C 
BRANCH  31  32
ATOM     32  C   UNL     1      -5.034   6.446  -1.690  0.00  0.00    -0.015 C 
ATOM     33  C   UNL     1      -5.223   5.955  -3.126  0.00  0.00    +0.007 C 
ATOM     34  C   UNL     1      -6.266   6.082  -0.859  0.00  0.00    +0.007 C 
ENDBRANCH  31  32
ENDBRANCH   1  31
TORSDOF 7
