REMARK  Name = ZINC39702272
REMARK  13 active torsions:
REMARK  status: ('A' for Active; 'I' for Inactive)
REMARK    1  A    between atoms: C_1  and  C_2
REMARK    2  A    between atoms: C_2  and  C_3
REMARK    3  A    between atoms: C_4  and  C_38
REMARK    4  A    between atoms: N_7  and  C_10
REMARK    5  A    between atoms: C_10  and  C_12
REMARK    6  A    between atoms: C_10  and  C_13
REMARK    7  A    between atoms: N_15  and  C_16
REMARK    8  A    between atoms: C_17  and  C_26
REMARK    9  A    between atoms: C_26  and  O_28
REMARK   10  A    between atoms: O_28  and  C_29
REMARK   11  A    between atoms: C_29  and  C_30
REMARK   12  A    between atoms: C_32  and  C_37
REMARK   13  A    between atoms: C_34  and  C_36
REMARK                            x       y       z     vdW  Elec       q    Type
REMARK                         _______ _______ _______ _____ _____    ______ ____
ROOT
ATOM      1  C   UNL     1      -4.616  -0.416   2.006  0.00  0.00    +0.176 C 
ATOM      2  C   UNL     1      -4.104  -0.874   3.373  0.00  0.00    +0.041 C 
ENDROOT
BRANCH   1   7
ATOM      3  C   UNL     1      -1.489  -0.356  -0.019  0.00  0.00    +0.038 A 
ATOM      4  C   UNL     1      -1.795  -1.312  -0.942  0.00  0.00    +0.050 A 
ATOM      5  N   UNL     1      -2.970  -1.937  -0.891  0.00  0.00    -0.217 NA
ATOM      6  C   UNL     1      -3.857  -1.655   0.037  0.00  0.00    +0.236 A 
ATOM      7  N   UNL     1      -3.610  -0.712   0.984  0.00  0.00    -0.265 N 
ATOM      8  C   UNL     1      -2.432  -0.052   0.982  0.00  0.00    +0.259 A 
ATOM      9  O   UNL     1      -2.192   0.794   1.827  0.00  0.00    -0.267 OA
ATOM     10  N   UNL     1      -5.065  -2.330   0.050  0.00  0.00    -0.204 N 
ATOM     11  C   UNL     1      -5.708  -2.845  -1.034  0.00  0.00    +0.045 A 
ATOM     12  C   UNL     1      -6.849  -3.423  -0.596  0.00  0.00    +0.048 A 
ATOM     13  C   UNL     1      -6.910  -3.259   0.795  0.00  0.00    +0.061 A 
ATOM     14  N   UNL     1      -5.842  -2.611   1.181  0.00  0.00    -0.169 NA
ATOM     15  C   UNL     1      -8.015  -3.752   1.692  0.00  0.00    +0.067 C 
ATOM     16  C   UNL     1      -5.234  -2.782  -2.463  0.00  0.00    +0.066 C 
ATOM     17  C   UNL     1      -0.802  -1.661  -2.020  0.00  0.00    +0.066 C 
BRANCH   3  19
ATOM     18  C   UNL     1      -0.319   1.676  -0.826  0.00  0.00    +0.009 C 
ATOM     19  C   UNL     1      -0.163   0.358  -0.065  0.00  0.00    +0.039 C 
ENDBRANCH   3  19
ENDBRANCH   1   7
BRANCH   1  20
ATOM     20  C   UNL     1      -4.878   1.067   2.039  0.00  0.00    +0.240 C 
ATOM     21  O   UNL     1      -4.283   1.805   1.283  0.00  0.00    -0.273 OA
ATOM     22  N   UNL     1      -5.774   1.575   2.909  0.00  0.00    -0.278 N 
ATOM     23  H   UNL     1      -6.250   0.985   3.514  0.00  0.00    +0.155 HD
BRANCH  22  24
ATOM     24  C   UNL     1      -6.014   2.939   2.940  0.00  0.00    +0.086 A 
ATOM     25  C   UNL     1      -6.887   3.633   3.763  0.00  0.00    +0.091 A 
ATOM     26  C   UNL     1      -6.958   5.078   3.597  0.00  0.00    -0.021 A 
ATOM     27  C   UNL     1      -6.145   5.558   2.633  0.00  0.00    -0.004 A 
ATOM     28  S   UNL     1      -5.311   4.133   1.993  0.00  0.00    -0.077 S 
ATOM     29  C   UNL     1      -5.987   6.981   2.195  0.00  0.00    +0.043 C 
ATOM     30  C   UNL     1      -5.793   7.870   3.430  0.00  0.00    +0.005 C 
ATOM     31  C   UNL     1      -7.163   8.324   3.924  0.00  0.00    +0.001 C 
ATOM     32  C   UNL     1      -8.204   7.237   3.666  0.00  0.00    +0.005 C 
ATOM     33  C   UNL     1      -7.856   5.970   4.442  0.00  0.00    +0.037 C 
BRANCH  25  34
ATOM     34  C   UNL     1      -7.706   2.940   4.760  0.00  0.00    +0.342 C 
ATOM     35  O   UNL     1      -7.280   2.772   5.886  0.00  0.00    -0.245 OA
BRANCH  34  36
ATOM     36  O   UNL     1      -8.933   2.488   4.428  0.00  0.00    -0.461 OA
BRANCH  36  37
ATOM     37  C   UNL     1      -9.677   1.822   5.450  0.00  0.00    +0.229 C 
ATOM     38  C   UNL     1     -11.033   1.385   4.892  0.00  0.00    +0.048 C 
ENDBRANCH  36  37
ENDBRANCH  34  36
ENDBRANCH  25  34
ENDBRANCH  22  24
ENDBRANCH   1  20
TORSDOF 7
