REMARK  Name = ZINC35664165
REMARK  11 active torsions:
REMARK  status: ('A' for Active; 'I' for Inactive)
REMARK    1  A    between atoms: C_1  and  C_2
REMARK    2  A    between atoms: C_2  and  N_3
REMARK    3  A    between atoms: C_4  and  C_23
REMARK    4  A    between atoms: C_5  and  C_18
REMARK    5  A    between atoms: C_6  and  C_11
REMARK    6  A    between atoms: C_16  and  C_17
REMARK    7  A    between atoms: C_18  and  O_20
REMARK    8  A    between atoms: O_20  and  C_21
REMARK    9  A    between atoms: C_21  and  C_22
REMARK   10  A    between atoms: C_23  and  N_24
REMARK   11  A    between atoms: C_31  and  C_33
REMARK                            x       y       z     vdW  Elec       q    Type
REMARK                         _______ _______ _______ _____ _____    ______ ____
ROOT
ATOM      1  N   UNL     1       0.035  -0.235  -1.550  0.00  0.00    -0.261 N 
ATOM      2  C   UNL     1      -0.510  -1.060  -2.491  0.00  0.00    +0.010 C 
ATOM      3  C   UNL     1       0.271  -1.763  -3.339  0.00  0.00    +0.076 C 
ATOM      4  C   UNL     1       1.772  -1.606  -3.209  0.00  0.00    +0.144 C 
ATOM      5  N   UNL     1       2.259  -0.692  -2.162  0.00  0.00    -0.288 N 
ATOM      6  C   UNL     1       1.353  -0.054  -1.395  0.00  0.00    +0.307 C 
ATOM      7  O   UNL     1       1.745   0.705  -0.530  0.00  0.00    -0.252 OA
ATOM      8  H   UNL     1       3.210  -0.549  -2.030  0.00  0.00    +0.151 HD
ENDROOT
BRANCH   4   9
ATOM      9  C   UNL     1       2.305  -1.120  -4.533  0.00  0.00    -0.020 A 
ATOM     10  C   UNL     1       1.454  -0.518  -5.441  0.00  0.00    +0.006 A 
ATOM     11  C   UNL     1       1.942  -0.073  -6.655  0.00  0.00    +0.000 A 
ATOM     12  C   UNL     1       3.281  -0.230  -6.961  0.00  0.00    +0.000 A 
ATOM     13  C   UNL     1       4.132  -0.831  -6.053  0.00  0.00    +0.004 A 
ATOM     14  C   UNL     1       3.644  -1.272  -4.837  0.00  0.00    -0.045 A 
ATOM     15  C   UNL     1       4.573  -1.923  -3.844  0.00  0.00    +0.044 C 
ENDBRANCH   4   9
BRANCH   1  17
ATOM     16  C   UNL     1      -1.170   1.874  -1.264  0.00  0.00    +0.025 C 
ATOM     17  C   UNL     1      -0.872   0.498  -0.663  0.00  0.00    +0.111 C 
ENDBRANCH   1  17
BRANCH   3  18
ATOM     18  C   UNL     1      -0.293  -2.619  -4.314  0.00  0.00    +0.339 C 
ATOM     19  O   UNL     1      -1.501  -2.665  -4.457  0.00  0.00    -0.245 OA
BRANCH  18  20
ATOM     20  O   UNL     1       0.508  -3.383  -5.086  0.00  0.00    -0.462 OA
BRANCH  20  21
ATOM     21  C   UNL     1      -0.120  -4.139  -6.123  0.00  0.00    +0.229 C 
ATOM     22  C   UNL     1       0.920  -5.031  -6.805  0.00  0.00    +0.048 C 
ENDBRANCH  20  21
ENDBRANCH  18  20
ENDBRANCH   3  18
BRANCH   2  23
ATOM     23  C   UNL     1      -2.009  -1.187  -2.586  0.00  0.00    -0.026 C 
BRANCH  23  24
ATOM     24  N   UNL     1      -2.439  -2.423  -1.918  0.00  0.00    +0.384 N 
ATOM     25  C   UNL     1      -3.846  -2.653  -2.237  0.00  0.00    -0.077 C 
ATOM     26  C   UNL     1      -4.124  -4.140  -2.221  0.00  0.00    +0.000 C 
ATOM     27  C   UNL     1      -4.633  -4.552  -0.828  0.00  0.00    +0.106 C 
ATOM     28  N   UNL     1      -3.896  -3.843   0.238  0.00  0.00    -0.299 N 
ATOM     29  C   UNL     1      -2.464  -3.637   0.184  0.00  0.00    +0.089 C 
ATOM     30  C   UNL     1      -2.151  -2.308  -0.540  0.00  0.00    -0.059 C 
ATOM     31  C   UNL     1      -4.582  -3.370   1.298  0.00  0.00    +0.247 C 
ATOM     32  O   UNL     1      -4.017  -2.690   2.132  0.00  0.00    -0.270 OA
ATOM     33  H   UNL     1      -1.900  -3.189  -2.293  0.00  0.00    -0.081 HD
BRANCH  31  34
ATOM     34  C   UNL     1      -6.020  -3.679   1.446  0.00  0.00    +0.040 A 
ATOM     35  C   UNL     1      -6.513  -4.926   1.057  0.00  0.00    +0.013 A 
ATOM     36  C   UNL     1      -7.855  -5.210   1.197  0.00  0.00    +0.004 A 
ATOM     37  C   UNL     1      -8.715  -4.261   1.722  0.00  0.00    +0.038 A 
ATOM     38  C   UNL     1      -8.234  -3.021   2.110  0.00  0.00    +0.124 A 
ATOM     39  C   UNL     1      -6.889  -2.728   1.980  0.00  0.00    +0.051 A 
ATOM     40  F   UNL     1      -9.079  -2.099   2.621  0.00  0.00    -0.205 F 
ENDBRANCH  31  34
ENDBRANCH  23  24
ENDBRANCH   2  23
TORSDOF 8
