REMARK  Name = ZINC53146372
REMARK  2 active torsions:
REMARK  status: ('A' for Active; 'I' for Inactive)
REMARK    1  A    between atoms: C_6  and  C_11
REMARK    2  A    between atoms: C_9  and  N_10
REMARK                            x       y       z     vdW  Elec       q    Type
REMARK                         _______ _______ _______ _____ _____    ______ ____
ROOT
ATOM      1  C   UNL     1      -0.017   1.406   0.010  0.00  0.00    +0.028 A 
ATOM      2  C   UNL     1       1.154   2.096   0.002  0.00  0.00    +0.050 A 
ATOM      3  C   UNL     1       2.372   1.391  -0.013  0.00  0.00    +0.161 A 
ATOM      4  N   UNL     1       3.641   1.771  -0.024  0.00  0.00    -0.129 NA
ATOM      5  N   UNL     1       4.406   0.737  -0.037  0.00  0.00    -0.128 NA
ATOM      6  C   UNL     1       3.679  -0.365  -0.036  0.00  0.00    +0.175 A 
ATOM      7  N   UNL     1       2.364   0.017  -0.020  0.00  0.00    -0.280 N 
ATOM      8  C   UNL     1       1.183  -0.670  -0.013  0.00  0.00    +0.117 A 
ATOM      9  C   UNL     1       0.002  -0.004   0.002  0.00  0.00    +0.041 A 
ENDROOT
BRANCH   6  10
ATOM     10  C   UNL     1       4.186  -1.746  -0.048  0.00  0.00    +0.057 A 
ATOM     11  C   UNL     1       5.449  -2.204   0.218  0.00  0.00    +0.023 A 
ATOM     12  C   UNL     1       5.717  -3.567   0.148  0.00  0.00    -0.036 A 
ATOM     13  C   UNL     1       4.676  -4.379  -0.190  0.00  0.00    -0.006 A 
ATOM     14  S   UNL     1       3.314  -3.264  -0.406  0.00  0.00    -0.090 S 
ATOM     15  C   UNL     1       4.692  -5.866  -0.337  0.00  0.00    +0.043 C 
ATOM     16  C   UNL     1       6.156  -6.328  -0.406  0.00  0.00    +0.005 C 
ATOM     17  C   UNL     1       6.939  -5.652   0.723  0.00  0.00    +0.005 C 
ATOM     18  C   UNL     1       7.095  -4.159   0.430  0.00  0.00    +0.036 C 
ENDBRANCH   6  10
BRANCH   9  19
ATOM     19  N   UNL     1      -1.203  -0.719   0.010  0.00  0.00    -0.357 N 
ATOM     20  H   UNL     1      -2.048  -0.244   0.020  0.00  0.00    +0.142 HD
ATOM     21  H   UNL     1      -1.191  -1.689   0.004  0.00  0.00    +0.142 HD
ENDBRANCH   9  19
TORSDOF 2
