REMARK  Name = ZINC34945781
REMARK  10 active torsions:
REMARK  status: ('A' for Active; 'I' for Inactive)
REMARK    1  A    between atoms: C_1  and  C_2
REMARK    2  A    between atoms: C_2  and  C_4
REMARK    3  A    between atoms: C_2  and  N_10
REMARK    4  A    between atoms: C_11  and  C_13
REMARK    5  A    between atoms: C_13  and  C_14
REMARK    6  A    between atoms: C_14  and  N_15
REMARK    7  A    between atoms: N_15  and  C_16
REMARK    8  A    between atoms: C_16  and  C_18
REMARK    9  A    between atoms: C_16  and  C_19
REMARK   10  A    between atoms: N_27  and  C_28
REMARK                            x       y       z     vdW  Elec       q    Type
REMARK                         _______ _______ _______ _____ _____    ______ ____
ROOT
ATOM      1  N   UNL     1       5.163  -1.464   3.271  0.00  0.00    -0.278 N 
ATOM      2  C   UNL     1       5.165  -0.651   4.346  0.00  0.00    +0.307 C 
ATOM      3  O   UNL     1       5.131   0.555   4.197  0.00  0.00    -0.252 OA
ATOM      4  N   UNL     1       5.203  -1.176   5.587  0.00  0.00    -0.269 N 
ATOM      5  H   UNL     1       5.308  -2.133   5.706  0.00  0.00    +0.156 HD
ENDROOT
BRANCH   4   6
ATOM      6  C   UNL     1       5.092  -0.343   6.702  0.00  0.00    +0.042 A 
ATOM      7  C   UNL     1       4.518   0.905   6.582  0.00  0.00    +0.024 A 
ATOM      8  C   UNL     1       4.403   1.744   7.687  0.00  0.00    +0.002 A 
ATOM      9  C   UNL     1       4.852   1.357   8.913  0.00  0.00    +0.008 A 
ATOM     10  C   UNL     1       5.442   0.093   9.077  0.00  0.00    -0.016 A 
ATOM     11  C   UNL     1       5.560  -0.772   7.961  0.00  0.00    +0.003 A 
ATOM     12  C   UNL     1       6.146  -2.037   8.128  0.00  0.00    +0.010 A 
ATOM     13  C   UNL     1       6.586  -2.418   9.359  0.00  0.00    +0.001 A 
ATOM     14  C   UNL     1       6.465  -1.571  10.458  0.00  0.00    +0.001 A 
ATOM     15  C   UNL     1       5.915  -0.333  10.331  0.00  0.00    +0.008 A 
ENDBRANCH   4   6
BRANCH   1  16
ATOM     16  C   UNL     1       5.317  -2.910   3.445  0.00  0.00    +0.105 C 
ATOM     17  C   UNL     1       5.336  -3.589   2.074  0.00  0.00    +0.033 C 
BRANCH  16  18
ATOM     18  C   UNL     1       4.164  -3.444   4.254  0.00  0.00    -0.027 A 
ATOM     19  C   UNL     1       2.880  -2.994   4.010  0.00  0.00    +0.005 A 
ATOM     20  C   UNL     1       1.823  -3.484   4.753  0.00  0.00    +0.000 A 
ATOM     21  C   UNL     1       2.049  -4.425   5.739  0.00  0.00    +0.000 A 
ATOM     22  C   UNL     1       3.332  -4.876   5.984  0.00  0.00    +0.000 A 
ATOM     23  C   UNL     1       4.389  -4.389   5.238  0.00  0.00    +0.005 A 
ENDBRANCH  16  18
ENDBRANCH   1  16
BRANCH   1  24
ATOM     24  C   UNL     1       5.007  -0.900   1.927  0.00  0.00    +0.119 C 
BRANCH  24  25
ATOM     25  C   UNL     1       3.518  -0.747   1.609  0.00  0.00    +0.115 C 
BRANCH  25  27
ATOM     26  N   UNL     1       2.125   0.125  -0.241  0.00  0.00    -0.309 N 
ATOM     27  C   UNL     1       3.358  -0.110   0.253  0.00  0.00    +0.215 C 
ATOM     28  O   UNL     1       4.338   0.193  -0.395  0.00  0.00    -0.276 OA
ATOM     29  H   UNL     1       1.342  -0.117   0.277  0.00  0.00    +0.149 HD
BRANCH  26  31
ATOM     30  C   UNL     1       2.043   2.266  -1.419  0.00  0.00    +0.033 C 
ATOM     31  C   UNL     1       1.970   0.744  -1.559  0.00  0.00    +0.100 C 
BRANCH  31  32
ATOM     32  C   UNL     1       0.634   0.357  -2.141  0.00  0.00    -0.027 A 
ATOM     33  C   UNL     1      -0.485   0.308  -1.331  0.00  0.00    +0.005 A 
ATOM     34  C   UNL     1      -1.709  -0.048  -1.865  0.00  0.00    +0.000 A 
ATOM     35  C   UNL     1      -1.815  -0.352  -3.210  0.00  0.00    +0.000 A 
ATOM     36  C   UNL     1      -0.696  -0.302  -4.020  0.00  0.00    +0.000 A 
ATOM     37  C   UNL     1       0.528   0.057  -3.486  0.00  0.00    +0.005 A 
ENDBRANCH  31  32
ENDBRANCH  26  31
ENDBRANCH  25  27
ENDBRANCH  24  25
ENDBRANCH   1  24
TORSDOF 8
