REMARK  Name = ZINC35933285
REMARK  6 active torsions:
REMARK  status: ('A' for Active; 'I' for Inactive)
REMARK    1  A    between atoms: C_4  and  C_7
REMARK    2  A    between atoms: N_16  and  C_17
REMARK    3  A    between atoms: C_17  and  C_18
REMARK    4  A    between atoms: C_27  and  C_29
REMARK    5  A    between atoms: C_29  and  S_30
REMARK    6  A    between atoms: S_30  and  C_31
REMARK                            x       y       z     vdW  Elec       q    Type
REMARK                         _______ _______ _______ _____ _____    ______ ____
ROOT
ATOM      1  C   UNL     1       3.228  -2.633   3.116  0.00  0.00    +0.199 C 
ATOM      2  O   UNL     1       3.243  -3.749   2.642  0.00  0.00    -0.278 OA
ATOM      3  N   UNL     1       3.028  -2.464   4.438  0.00  0.00    -0.301 N 
ATOM      4  C   UNL     1       2.836  -3.573   5.307  0.00  0.00    +0.109 C 
ATOM      5  C   UNL     1       1.367  -4.106   5.367  0.00  0.00    +0.038 C 
ATOM      6  C   UNL     1       0.419  -2.865   5.308  0.00  0.00    +0.109 C 
ATOM      7  N   UNL     1       0.885  -1.729   6.024  0.00  0.00    -0.299 N 
ATOM      8  C   UNL     1       1.614  -0.693   5.249  0.00  0.00    +0.126 C 
ATOM      9  C   UNL     1       3.003  -1.112   5.053  0.00  0.00    +0.126 C 
ATOM     10  C   UNL     1       0.673  -1.598   7.349  0.00  0.00    +0.226 C 
ATOM     11  O   UNL     1       0.074  -2.460   7.956  0.00  0.00    -0.275 OA
ENDROOT
BRANCH   1  12
ATOM     12  C   UNL     1       3.435  -1.434   2.227  0.00  0.00    +0.020 C 
BRANCH  12  21
ATOM     13  C   UNL     1       3.711  -0.707  -0.038  0.00  0.00    -0.005 C 
ATOM     14  C   UNL     1       4.017  -1.174  -1.457  0.00  0.00    -0.047 A 
ATOM     15  C   UNL     1       3.786  -0.408  -2.597  0.00  0.00    +0.010 A 
ATOM     16  C   UNL     1       4.087  -0.905  -3.819  0.00  0.00    +0.045 A 
ATOM     17  S   UNL     1       4.729  -2.522  -3.412  0.00  0.00    -0.101 S 
ATOM     18  C   UNL     1       4.550  -2.413  -1.655  0.00  0.00    -0.010 A 
ATOM     19  C   UNL     1       4.891  -3.411  -0.597  0.00  0.00    +0.024 C 
ATOM     20  C   UNL     1       4.860  -2.681   0.756  0.00  0.00    -0.072 C 
ATOM     21  N   UNL     1       3.631  -1.880   0.841  0.00  0.00    +0.393 N 
ATOM     22  H   UNL     1       2.846  -2.450   0.562  0.00  0.00    -0.080 HD
BRANCH  13  26
ATOM     23  C   UNL     1      -0.017   1.378   0.010  0.00  0.00    +0.000 A 
ATOM     24  C   UNL     1       1.171   2.086   0.002  0.00  0.00    +0.000 A 
ATOM     25  C   UNL     1       2.377   1.411  -0.013  0.00  0.00    +0.002 A 
ATOM     26  C   UNL     1       2.396   0.029  -0.020  0.00  0.00    -0.057 A 
ATOM     27  C   UNL     1       1.208  -0.679  -0.012  0.00  0.00    +0.002 A 
ATOM     28  C   UNL     1       0.002  -0.004   0.002  0.00  0.00    +0.000 A 
ENDBRANCH  13  26
ENDBRANCH  12  21
ENDBRANCH   1  12
BRANCH  10  29
ATOM     29  C   UNL     1       1.182  -0.380   8.076  0.00  0.00    +0.170 C 
BRANCH  29  30
ATOM     30  S   UNL     1       0.743  -0.496   9.832  0.00  0.00    -0.116 S 
BRANCH  30  31
ATOM     31  C   UNL     1       1.397   0.981  10.535  0.00  0.00    +0.008 A 
ATOM     32  C   UNL     1       2.063   1.899   9.731  0.00  0.00    +0.015 A 
ATOM     33  C   UNL     1       2.575   3.055  10.285  0.00  0.00    +0.001 A 
ATOM     34  C   UNL     1       2.426   3.301  11.638  0.00  0.00    +0.000 A 
ATOM     35  C   UNL     1       1.765   2.389  12.441  0.00  0.00    +0.001 A 
ATOM     36  C   UNL     1       1.245   1.234  11.893  0.00  0.00    +0.015 A 
ENDBRANCH  30  31
ENDBRANCH  29  30
ENDBRANCH  10  29
TORSDOF 6
