REMARK  Name = ZINC35931420
REMARK  13 active torsions:
REMARK  status: ('A' for Active; 'I' for Inactive)
REMARK    1  A    between atoms: C_1  and  C_2
REMARK    2  A    between atoms: C_2  and  N_3
REMARK    3  A    between atoms: N_3  and  C_4
REMARK    4  A    between atoms: N_3  and  C_29
REMARK    5  A    between atoms: C_4  and  C_5
REMARK    6  A    between atoms: N_8  and  C_10
REMARK    7  A    between atoms: N_19  and  C_21
REMARK    8  A    between atoms: C_21  and  C_22
REMARK    9  A    between atoms: C_29  and  C_30
REMARK   10  A    between atoms: C_30  and  C_32
REMARK   11  A    between atoms: C_30  and  O_36
REMARK   12  A    between atoms: C_32  and  C_33
REMARK   13  A    between atoms: C_33  and  C_34
REMARK                            x       y       z     vdW  Elec       q    Type
REMARK                         _______ _______ _______ _____ _____    ______ ____
ROOT
ATOM      1  C   UNL     1      -1.003  -1.967   1.650  0.00  0.00    +0.052 A 
ATOM      2  C   UNL     1       0.363  -1.823   1.872  0.00  0.00    +0.009 A 
ATOM      3  C   UNL     1       0.607  -2.104   3.180  0.00  0.00    +0.051 A 
ATOM      4  N   UNL     1      -0.564  -2.413   3.761  0.00  0.00    -0.236 N 
ATOM      5  N   UNL     1      -1.566  -2.316   2.783  0.00  0.00    -0.173 NA
ATOM      6  C   UNL     1       1.986  -2.058   3.790  0.00  0.00    +0.071 C 
ATOM      7  C   UNL     1       3.007  -2.050   2.644  0.00  0.00    +0.091 C 
ATOM      8  N   UNL     1       2.634  -1.028   1.657  0.00  0.00    -0.293 NA
ATOM      9  C   UNL     1       1.439  -1.427   0.893  0.00  0.00    +0.123 C 
ENDROOT
BRANCH   4  10
ATOM     10  C   UNL     1      -0.752  -2.763   5.106  0.00  0.00    +0.066 A 
ATOM     11  C   UNL     1      -0.086  -2.067   6.105  0.00  0.00    +0.029 A 
ATOM     12  C   UNL     1      -0.273  -2.413   7.429  0.00  0.00    +0.022 A 
ATOM     13  C   UNL     1      -1.124  -3.453   7.760  0.00  0.00    +0.041 A 
ATOM     14  C   UNL     1      -1.789  -4.148   6.765  0.00  0.00    +0.022 A 
ATOM     15  C   UNL     1      -1.610  -3.802   5.440  0.00  0.00    +0.029 A 
ATOM     16 CL   UNL     1      -1.356  -3.887   9.424  0.00  0.00    -0.084 Cl
ENDBRANCH   4  10
BRANCH   1  17
ATOM     17  C   UNL     1      -1.714  -1.754   0.338  0.00  0.00    -0.020 C 
BRANCH  17  18
ATOM     18  N   UNL     1      -2.253  -0.388   0.290  0.00  0.00    +0.385 N 
ATOM     19  H   UNL     1      -2.808  -0.216   1.116  0.00  0.00    -0.081 HD
BRANCH  18  21
ATOM     20  C   UNL     1      -0.394   0.413  -1.087  0.00  0.00    -0.017 C 
ATOM     21  C   UNL     1      -1.145   0.575   0.236  0.00  0.00    -0.082 C 
ENDBRANCH  18  21
BRANCH  18  22
ATOM     22  C   UNL     1      -3.094  -0.235  -0.905  0.00  0.00    -0.047 C 
BRANCH  22  23
ATOM     23  C   UNL     1      -3.769   1.137  -0.881  0.00  0.00    +0.098 C 
BRANCH  23  24
ATOM     24  O   UNL     1      -4.594   1.242   0.281  0.00  0.00    -0.394 OA
ATOM     25  H   UNL     1      -5.296   0.578   0.327  0.00  0.00    +0.210 HD
ENDBRANCH  23  24
BRANCH  23  26
ATOM     26  C   UNL     1      -4.631   1.303  -2.134  0.00  0.00    +0.033 C 
BRANCH  26  27
ATOM     27  C   UNL     1      -5.207   2.720  -2.173  0.00  0.00    +0.029 C 
BRANCH  27  28
ATOM     28  C   UNL     1      -6.055   2.884  -3.408  0.00  0.00    -0.034 C 
ATOM     29  C   UNL     1      -7.300   3.279  -3.300  0.00  0.00    +0.004 C 
ENDBRANCH  27  28
ENDBRANCH  26  27
ENDBRANCH  23  26
ENDBRANCH  22  23
ENDBRANCH  18  22
ENDBRANCH  17  18
ENDBRANCH   1  17
BRANCH   8  30
ATOM     30  C   UNL     1       3.757  -0.727   0.759  0.00  0.00    +0.122 C 
BRANCH  30  31
ATOM     31  C   UNL     1       4.863  -0.068   1.542  0.00  0.00    +0.002 A 
ATOM     32  C   UNL     1       5.992  -0.789   1.884  0.00  0.00    +0.008 A 
ATOM     33  C   UNL     1       7.007  -0.184   2.602  0.00  0.00    +0.000 A 
ATOM     34  C   UNL     1       6.894   1.141   2.978  0.00  0.00    +0.003 A 
ATOM     35  C   UNL     1       5.767   1.863   2.637  0.00  0.00    +0.038 A 
ATOM     36  C   UNL     1       4.752   1.261   1.913  0.00  0.00    +0.128 A 
ATOM     37  F   UNL     1       3.651   1.967   1.575  0.00  0.00    -0.205 F 
ENDBRANCH  30  31
ENDBRANCH   8  30
TORSDOF 12
