REMARK  Name = ZINC40052333
REMARK  19 active torsions:
REMARK  status: ('A' for Active; 'I' for Inactive)
REMARK    1  A    between atoms: C_1  and  C_2
REMARK    2  A    between atoms: C_2  and  C_3
REMARK    3  A    between atoms: C_3  and  C_4
REMARK    4  A    between atoms: C_4  and  O_5
REMARK    5  A    between atoms: O_5  and  C_6
REMARK    6  A    between atoms: C_9  and  C_13
REMARK    7  A    between atoms: C_11  and  C_12
REMARK    8  A    between atoms: C_13  and  C_15
REMARK    9  A    between atoms: N_19  and  C_34
REMARK   10  A    between atoms: C_20  and  C_22
REMARK   11  A    between atoms: C_25  and  O_31
REMARK   12  A    between atoms: C_26  and  O_28
REMARK   13  A    between atoms: O_28  and  C_29
REMARK   14  A    between atoms: C_29  and  C_30
REMARK   15  A    between atoms: O_31  and  C_32
REMARK   16  A    between atoms: C_32  and  C_33
REMARK   17  A    between atoms: C_34  and  C_35
REMARK   18  A    between atoms: C_35  and  C_36
REMARK   19  A    between atoms: C_36  and  O_37
REMARK                            x       y       z     vdW  Elec       q    Type
REMARK                         _______ _______ _______ _____ _____    ______ ____
ROOT
ATOM      1  C   UNL     1       1.414  -9.120   2.190  0.00  0.00    +0.076 C 
ATOM      2  C   UNL     1       1.283 -10.466   2.170  0.00  0.00    +0.249 C 
ATOM      3  C   UNL     1       0.646 -10.873   0.900  0.00  0.00    +0.288 C 
ATOM      4  O   UNL     1       0.392 -12.018   0.583  0.00  0.00    -0.266 OA
ATOM      5  N   UNL     1       0.388  -9.789   0.147  0.00  0.00    -0.283 N 
ATOM      6  C   UNL     1       0.839  -8.606   0.890  0.00  0.00    +0.145 C 
ATOM      7  O   UNL     1       1.673 -11.307   3.156  0.00  0.00    -0.282 OA
ENDROOT
BRANCH   6   8
ATOM      8  C   UNL     1       1.900  -7.878   0.106  0.00  0.00    -0.019 A 
ATOM      9  C   UNL     1       2.799  -8.592  -0.666  0.00  0.00    +0.009 A 
ATOM     10  C   UNL     1       3.774  -7.929  -1.387  0.00  0.00    +0.050 A 
ATOM     11  C   UNL     1       3.852  -6.546  -1.339  0.00  0.00    +0.162 A 
ATOM     12  C   UNL     1       2.947  -5.828  -0.563  0.00  0.00    +0.162 A 
ATOM     13  C   UNL     1       1.969  -6.499   0.154  0.00  0.00    +0.055 A 
BRANCH  12  14
ATOM     14  O   UNL     1       3.020  -4.471  -0.512  0.00  0.00    -0.489 OA
BRANCH  14  15
ATOM     15  C   UNL     1       2.126  -3.807   0.384  0.00  0.00    +0.226 C 
ATOM     16  C   UNL     1       2.278  -2.292   0.226  0.00  0.00    +0.048 C 
ENDBRANCH  14  15
ENDBRANCH  12  14
BRANCH  11  17
ATOM     17  O   UNL     1       4.811  -5.893  -2.048  0.00  0.00    -0.489 OA
BRANCH  17  18
ATOM     18  C   UNL     1       5.705  -6.695  -2.822  0.00  0.00    +0.226 C 
ATOM     19  C   UNL     1       6.706  -5.790  -3.544  0.00  0.00    +0.048 C 
ENDBRANCH  17  18
ENDBRANCH  11  17
ENDBRANCH   6   8
BRANCH   1  20
ATOM     20  C   UNL     1       1.996  -8.313   3.267  0.00  0.00    +0.195 C 
ATOM     21  O   UNL     1       3.182  -8.410   3.527  0.00  0.00    -0.287 OA
BRANCH  20  25
ATOM     22  C   UNL     1      -0.452  -5.643   5.483  0.00  0.00    +0.123 A 
ATOM     23  C   UNL     1      -1.027  -6.497   4.548  0.00  0.00    +0.046 A 
ATOM     24  C   UNL     1      -0.237  -7.364   3.827  0.00  0.00    +0.015 A 
ATOM     25  C   UNL     1       1.145  -7.385   4.037  0.00  0.00    +0.023 A 
ATOM     26  C   UNL     1       1.719  -6.525   4.978  0.00  0.00    +0.018 A 
ATOM     27  C   UNL     1       0.922  -5.657   5.691  0.00  0.00    -0.008 A 
ATOM     28  C   UNL     1       1.540  -4.726   6.701  0.00  0.00    +0.047 C 
BRANCH  22  29
ATOM     29  O   UNL     1      -1.235  -4.789   6.190  0.00  0.00    -0.492 OA
BRANCH  29  30
ATOM     30  C   UNL     1      -2.620  -4.740   5.843  0.00  0.00    +0.229 C 
BRANCH  30  31
ATOM     31  C   UNL     1      -3.311  -3.644   6.657  0.00  0.00    +0.041 C 
BRANCH  31  33
ATOM     32  C   UNL     1      -5.521  -2.661   7.282  0.00  0.00    +0.004 C 
ATOM     33  C   UNL     1      -4.815  -3.672   6.377  0.00  0.00    -0.000 C 
ENDBRANCH  31  33
ENDBRANCH  30  31
ENDBRANCH  29  30
ENDBRANCH  22  29
ENDBRANCH  20  25
ENDBRANCH   1  20
BRANCH   5  34
ATOM     34  C   UNL     1      -0.238  -9.787  -1.177  0.00  0.00    +0.111 C 
BRANCH  34  35
ATOM     35  C   UNL     1      -1.756  -9.668  -1.024  0.00  0.00    +0.047 C 
BRANCH  35  36
ATOM     36  C   UNL     1      -2.410  -9.667  -2.408  0.00  0.00    +0.157 C 
BRANCH  36  37
ATOM     37  O   UNL     1      -3.827  -9.556  -2.264  0.00  0.00    -0.395 OA
ATOM     38  H   UNL     1      -4.308  -9.549  -3.103  0.00  0.00    +0.209 HD
ENDBRANCH  36  37
ENDBRANCH  35  36
ENDBRANCH  34  35
ENDBRANCH   5  34
TORSDOF 15
