REMARK  Name = ZINC25538451
REMARK  8 active torsions:
REMARK  status: ('A' for Active; 'I' for Inactive)
REMARK    1  A    between atoms: C_1  and  O_2
REMARK    2  A    between atoms: O_2  and  C_3
REMARK    3  A    between atoms: C_3  and  C_5
REMARK    4  A    between atoms: C_6  and  C_22
REMARK    5  A    between atoms: N_7  and  C_19
REMARK    6  A    between atoms: C_11  and  C_13
REMARK    7  A    between atoms: C_22  and  S_23
REMARK    8  A    between atoms: S_23  and  C_24
REMARK                            x       y       z     vdW  Elec       q    Type
REMARK                         _______ _______ _______ _____ _____    ______ ____
ROOT
ATOM      1  C   UNL     1       0.073   1.633   0.114  0.00  0.00    +0.079 C 
ATOM      2  C   UNL     1       1.319   2.093   0.362  0.00  0.00    +0.037 C 
ATOM      3  N   UNL     1       2.408   1.278   0.247  0.00  0.00    -0.255 N 
ATOM      4  C   UNL     1       2.336  -0.011  -0.110  0.00  0.00    +0.307 C 
ATOM      5  O   UNL     1       3.362  -0.658  -0.185  0.00  0.00    -0.252 OA
ATOM      6  N   UNL     1       1.163  -0.614  -0.389  0.00  0.00    -0.288 N 
ATOM      7  C   UNL     1      -0.073   0.181  -0.295  0.00  0.00    +0.144 C 
ATOM      8  H   UNL     1       1.115  -1.673  -0.682  0.00  0.00    +0.151 HD
ENDROOT
BRANCH   7   9
ATOM      9  C   UNL     1      -0.983  -0.492   0.699  0.00  0.00    -0.023 A 
ATOM     10  C   UNL     1      -0.486  -0.908   1.920  0.00  0.00    +0.006 A 
ATOM     11  C   UNL     1      -1.322  -1.522   2.834  0.00  0.00    +0.000 A 
ATOM     12  C   UNL     1      -2.653  -1.728   2.524  0.00  0.00    +0.000 A 
ATOM     13  C   UNL     1      -3.149  -1.317   1.301  0.00  0.00    +0.000 A 
ATOM     14  C   UNL     1      -2.314  -0.699   0.388  0.00  0.00    +0.006 A 
ENDBRANCH   7   9
BRANCH   3  15
ATOM     15  C   UNL     1       3.729   1.844   0.530  0.00  0.00    +0.083 C 
ATOM     16  C   UNL     1       4.675   1.024   1.409  0.00  0.00    +0.025 C 
ATOM     17  C   UNL     1       4.014   2.287   1.967  0.00  0.00    +0.025 C 
ENDBRANCH   3  15
BRANCH   1  18
ATOM     18  C   UNL     1      -1.055   2.478   0.227  0.00  0.00    +0.339 C 
ATOM     19  O   UNL     1      -0.906   3.668   0.433  0.00  0.00    -0.245 OA
BRANCH  18  21
ATOM     20  C   UNL     1      -3.391   2.877   0.230  0.00  0.00    +0.280 C 
ATOM     21  O   UNL     1      -2.297   1.965   0.105  0.00  0.00    -0.465 OA
ENDBRANCH  18  21
ENDBRANCH   1  18
BRANCH   2  22
ATOM     22  C   UNL     1       1.509   3.531   0.771  0.00  0.00    +0.129 C 
BRANCH  22  23
ATOM     23  S   UNL     1       1.963   4.516  -0.678  0.00  0.00    -0.080 S 
BRANCH  23  24
ATOM     24  C   UNL     1       2.119   6.104   0.067  0.00  0.00    +0.192 A 
ATOM     25  N   UNL     1       1.936   6.396   1.336  0.00  0.00    -0.122 NA
ATOM     26  N   UNL     1       2.140   7.651   1.531  0.00  0.00    -0.134 NA
ATOM     27  C   UNL     1       2.466   8.226   0.412  0.00  0.00    +0.134 A 
ATOM     28  N   UNL     1       2.457   7.264  -0.558  0.00  0.00    -0.306 N 
ATOM     29  C   UNL     1       2.727   7.462  -1.982  0.00  0.00    +0.125 C 
ATOM     30  C   UNL     1       3.677   8.651  -2.155  0.00  0.00    +0.022 C 
ATOM     31  C   UNL     1       2.870   9.941  -2.288  0.00  0.00    +0.002 C 
ATOM     32  C   UNL     1       2.045  10.193  -1.030  0.00  0.00    +0.008 C 
ATOM     33  C   UNL     1       2.806   9.678   0.196  0.00  0.00    +0.076 C 
ENDBRANCH  23  24
ENDBRANCH  22  23
ENDBRANCH   2  22
TORSDOF 7
