REMARK  Name = ZINC38959318
REMARK  15 active torsions:
REMARK  status: ('A' for Active; 'I' for Inactive)
REMARK    1  A    between atoms: C_1  and  C_2
REMARK    2  A    between atoms: C_2  and  O_3
REMARK    3  A    between atoms: O_3  and  C_4
REMARK    4  A    between atoms: C_6  and  C_16
REMARK    5  A    between atoms: C_8  and  O_13
REMARK    6  A    between atoms: C_9  and  O_10
REMARK    7  A    between atoms: O_10  and  C_11
REMARK    8  A    between atoms: C_11  and  C_12
REMARK    9  A    between atoms: O_13  and  C_14
REMARK   10  A    between atoms: C_14  and  C_15
REMARK   11  A    between atoms: N_18  and  C_19
REMARK   12  A    between atoms: N_18  and  C_34
REMARK   13  A    between atoms: C_19  and  C_20
REMARK   14  A    between atoms: C_25  and  O_32
REMARK   15  A    between atoms: O_32  and  C_33
REMARK                            x       y       z     vdW  Elec       q    Type
REMARK                         _______ _______ _______ _____ _____    ______ ____
ROOT
ATOM      1  C   UNL     1      -0.171  -5.028   0.622  0.00  0.00    +0.251 C 
ATOM      2  O   UNL     1       0.107  -4.239  -0.261  0.00  0.00    -0.270 OA
ATOM      3  N   UNL     1       0.031  -6.347   0.435  0.00  0.00    -0.266 N 
ENDROOT
BRANCH   1   6
ATOM      4  C   UNL     1      -0.701  -4.504   4.304  0.00  0.00    +0.166 A 
ATOM      5  C   UNL     1      -0.177  -4.963   3.110  0.00  0.00    +0.062 A 
ATOM      6  C   UNL     1      -0.729  -4.541   1.898  0.00  0.00    +0.044 A 
ATOM      7  C   UNL     1      -1.811  -3.656   1.896  0.00  0.00    +0.062 A 
ATOM      8  C   UNL     1      -2.331  -3.201   3.093  0.00  0.00    +0.166 A 
ATOM      9  C   UNL     1      -1.782  -3.627   4.300  0.00  0.00    +0.204 A 
BRANCH   4  10
ATOM     10  O   UNL     1      -0.164  -4.915   5.484  0.00  0.00    -0.488 OA
BRANCH  10  12
ATOM     11  C   UNL     1       1.408  -6.163   6.830  0.00  0.00    +0.048 C 
ATOM     12  C   UNL     1       0.943  -5.816   5.414  0.00  0.00    +0.226 C 
ENDBRANCH  10  12
ENDBRANCH   4  10
BRANCH   9  13
ATOM     13  O   UNL     1      -2.300  -3.182   5.475  0.00  0.00    -0.485 OA
BRANCH  13  14
ATOM     14  C   UNL     1      -1.744  -1.981   6.015  0.00  0.00    +0.226 C 
ATOM     15  C   UNL     1      -2.447  -1.640   7.330  0.00  0.00    +0.048 C 
ENDBRANCH  13  14
ENDBRANCH   9  13
BRANCH   8  16
ATOM     16  O   UNL     1      -3.384  -2.339   3.092  0.00  0.00    -0.488 OA
BRANCH  16  17
ATOM     17  C   UNL     1      -3.970  -2.033   1.826  0.00  0.00    +0.226 C 
ATOM     18  C   UNL     1      -5.052  -0.966   2.009  0.00  0.00    +0.048 C 
ENDBRANCH  16  17
ENDBRANCH   8  16
ENDBRANCH   1   6
BRANCH   3  19
ATOM     19  C   UNL     1       0.536  -6.812  -0.784  0.00  0.00    +0.037 A 
ATOM     20  C   UNL     1       0.596  -8.176  -1.038  0.00  0.00    +0.023 A 
ATOM     21  C   UNL     1       1.095  -8.631  -2.243  0.00  0.00    +0.002 A 
ATOM     22  C   UNL     1       1.535  -7.730  -3.196  0.00  0.00    +0.000 A 
ATOM     23  C   UNL     1       1.476  -6.371  -2.946  0.00  0.00    +0.002 A 
ATOM     24  C   UNL     1       0.973  -5.909  -1.745  0.00  0.00    +0.023 A 
ENDBRANCH   3  19
BRANCH   3  25
ATOM     25  C   UNL     1      -0.278  -7.295   1.508  0.00  0.00    +0.131 C 
BRANCH  25  26
ATOM     26  C   UNL     1      -1.656  -7.912   1.263  0.00  0.00    +0.116 C 
ATOM     27  C   UNL     1      -1.847  -9.038   2.260  0.00  0.00    -0.003 C 
ATOM     28  C   UNL     1      -2.922  -8.958   3.095  0.00  0.00    -0.004 A 
ATOM     29  C   UNL     1      -3.179 -10.003   4.087  0.00  0.00    +0.055 A 
ATOM     30  C   UNL     1      -4.266  -9.882   4.899  0.00  0.00    +0.121 A 
ATOM     31  C   UNL     1      -5.130  -8.785   4.799  0.00  0.00    +0.047 A 
ATOM     32  C   UNL     1      -4.942  -7.786   3.899  0.00  0.00    +0.027 A 
ATOM     33  C   UNL     1      -3.849  -7.816   3.014  0.00  0.00    +0.041 A 
ATOM     34  N   UNL     1      -3.677  -6.828   2.135  0.00  0.00    -0.284 N 
ATOM     35  C   UNL     1      -2.674  -6.793   1.275  0.00  0.00    +0.226 C 
ATOM     36  O   UNL     1      -2.570  -5.864   0.497  0.00  0.00    -0.275 OA
ATOM     37  H   UNL     1      -4.319  -6.101   2.127  0.00  0.00    +0.155 HD
BRANCH  30  38
ATOM     38  O   UNL     1      -4.516 -10.846   5.825  0.00  0.00    -0.495 OA
ATOM     39  C   UNL     1      -5.669 -10.668   6.650  0.00  0.00    +0.277 C 
ENDBRANCH  30  38
ENDBRANCH  25  26
ENDBRANCH   3  25
TORSDOF 11
