REMARK  Name = ZINC57312223
REMARK  8 active torsions:
REMARK  status: ('A' for Active; 'I' for Inactive)
REMARK    1  A    between atoms: C_1  and  C_2
REMARK    2  A    between atoms: C_7  and  C_9
REMARK    3  A    between atoms: C_7  and  C_10
REMARK    4  A    between atoms: N_11  and  C_13
REMARK    5  A    between atoms: C_13  and  C_14
REMARK    6  A    between atoms: C_15  and  O_36
REMARK    7  A    between atoms: C_21  and  C_32
REMARK    8  A    between atoms: C_22  and  C_25
REMARK                            x       y       z     vdW  Elec       q    Type
REMARK                         _______ _______ _______ _____ _____    ______ ____
ROOT
ATOM      1  C   UNL     1       1.214  -1.892  -3.586  0.00  0.00    +0.020 A 
ATOM      2  C   UNL     1       0.754  -2.116  -4.873  0.00  0.00    +0.122 A 
ATOM      3  C   UNL     1       1.629  -2.080  -5.956  0.00  0.00    +0.046 A 
ATOM      4  C   UNL     1       2.956  -1.818  -5.762  0.00  0.00    +0.019 A 
ATOM      5  C   UNL     1       3.433  -1.587  -4.472  0.00  0.00    +0.065 A 
ATOM      6  C   UNL     1       2.559  -1.622  -3.370  0.00  0.00    +0.144 A 
ATOM      7  O   UNL     1       3.026  -1.409  -2.125  0.00  0.00    -0.450 OA
ATOM      8  C   UNL     1       4.225  -0.865  -1.907  0.00  0.00    +0.219 A 
ATOM      9  C   UNL     1       5.176  -0.772  -2.873  0.00  0.00    +0.076 A 
ATOM     10  C   UNL     1       4.856  -1.293  -4.218  0.00  0.00    +0.201 A 
ATOM     11  O   UNL     1       5.712  -1.456  -5.071  0.00  0.00    -0.286 OA
ENDROOT
BRANCH   9  12
ATOM     12  C   UNL     1       6.502  -0.174  -2.581  0.00  0.00    -0.011 A 
ATOM     13  C   UNL     1       7.453  -0.899  -1.864  0.00  0.00    +0.011 A 
ATOM     14  C   UNL     1       8.685  -0.340  -1.596  0.00  0.00    +0.039 A 
ATOM     15  C   UNL     1       8.978   0.940  -2.037  0.00  0.00    +0.123 A 
ATOM     16  C   UNL     1       8.036   1.665  -2.750  0.00  0.00    +0.039 A 
ATOM     17  C   UNL     1       6.803   1.111  -3.028  0.00  0.00    +0.011 A 
ATOM     18  F   UNL     1      10.186   1.484  -1.772  0.00  0.00    -0.205 F 
ENDBRANCH   9  12
BRANCH   8  19
ATOM     19  C   UNL     1       4.537  -0.332  -0.532  0.00  0.00    +0.451 C 
ATOM     20  F   UNL     1       5.768   0.332  -0.558  0.00  0.00    -0.163 F 
ATOM     21  F   UNL     1       3.534   0.562  -0.140  0.00  0.00    -0.163 F 
ATOM     22  F   UNL     1       4.598  -1.393   0.377  0.00  0.00    -0.163 F 
ENDBRANCH   8  19
BRANCH   2  23
ATOM     23  O   UNL     1      -0.562  -2.375  -5.080  0.00  0.00    -0.506 OA
ATOM     24  H   UNL     1      -1.098  -1.586  -5.236  0.00  0.00    +0.292 HD
ENDBRANCH   2  23
BRANCH   1  25
ATOM     25  C   UNL     1       0.257  -1.935  -2.423  0.00  0.00    -0.035 C 
BRANCH  25  35
ATOM     26  C   UNL     1       0.449   2.724  -0.870  0.00  0.00    +0.009 C 
ATOM     27  C   UNL     1       0.127   1.233  -0.688  0.00  0.00    -0.048 C 
ATOM     28  C   UNL     1      -1.395   0.940  -0.787  0.00  0.00    -0.011 C 
ATOM     29  C   UNL     1      -1.338  -0.569  -1.153  0.00  0.00    -0.067 C 
ATOM     30  C   UNL     1      -0.933  -1.333   0.092  0.00  0.00    -0.009 C 
ATOM     31  C   UNL     1       0.171  -0.740   0.939  0.00  0.00    -0.036 C 
ATOM     32  C   UNL     1       0.588   0.691   0.665  0.00  0.00    +0.011 C 
ATOM     33  C   UNL     1       1.414  -1.647   0.862  0.00  0.00    +0.011 C 
ATOM     34  C   UNL     1      -0.307  -0.797   2.414  0.00  0.00    +0.011 C 
ATOM     35  N   UNL     1      -0.298  -0.605  -2.201  0.00  0.00    +0.385 N 
ATOM     36  C   UNL     1       0.746   0.358  -1.802  0.00  0.00    -0.071 C 
ATOM     37  H   UNL     1      -0.712  -0.275  -3.075  0.00  0.00    -0.081 HD
ENDBRANCH  25  35
ENDBRANCH   1  25
TORSDOF 5
