REMARK  Name = ZINC59677867
REMARK  14 active torsions:
REMARK  status: ('A' for Active; 'I' for Inactive)
REMARK    1  A    between atoms: C_1  and  C_2
REMARK    2  A    between atoms: C_2  and  O_3
REMARK    3  A    between atoms: O_3  and  C_4
REMARK    4  A    between atoms: C_4  and  C_6
REMARK    5  A    between atoms: C_7  and  C_38
REMARK    6  A    between atoms: C_14  and  C_15
REMARK    7  A    between atoms: C_18  and  O_24
REMARK    8  A    between atoms: C_19  and  C_21
REMARK    9  A    between atoms: C_21  and  C_22
REMARK   10  A    between atoms: O_24  and  C_25
REMARK   11  A    between atoms: C_27  and  C_29
REMARK   12  A    between atoms: C_32  and  C_35
REMARK   13  A    between atoms: C_35  and  C_36
REMARK   14  A    between atoms: C_35  and  C_37
REMARK                            x       y       z     vdW  Elec       q    Type
REMARK                         _______ _______ _______ _____ _____    ______ ____
ROOT
ATOM      1  C   UNL     1       0.199  -2.647  -3.470  0.00  0.00    +0.085 C 
ATOM      2  C   UNL     1       0.720  -3.907  -3.377  0.00  0.00    +0.053 C 
ATOM      3  N   UNL     1       1.754  -4.266  -4.127  0.00  0.00    -0.228 NA
ATOM      4  C   UNL     1       2.356  -3.490  -4.992  0.00  0.00    +0.178 A 
ATOM      5  N   UNL     1       1.991  -2.187  -5.241  0.00  0.00    -0.275 N 
ATOM      6  C   UNL     1       2.683  -1.488  -6.152  0.00  0.00    +0.268 A 
ATOM      7  O   UNL     1       2.397  -0.333  -6.405  0.00  0.00    -0.266 OA
ATOM      8  C   UNL     1       3.797  -2.160  -6.835  0.00  0.00    +0.081 A 
ATOM      9  C   UNL     1       4.642  -1.680  -7.784  0.00  0.00    +0.028 C 
ATOM     10  S   UNL     1       3.739  -3.777  -6.079  0.00  0.00    -0.046 S 
ATOM     11  C   UNL     1       0.831  -1.686  -4.451  0.00  0.00    +0.162 C 
ATOM     12  C   UNL     1       0.115  -4.897  -2.415  0.00  0.00    +0.066 C 
ENDROOT
BRANCH   9  13
ATOM     13  C   UNL     1       4.621  -0.255  -8.133  0.00  0.00    -0.023 A 
ATOM     14  C   UNL     1       4.422   0.710  -7.137  0.00  0.00    +0.011 A 
ATOM     15  C   UNL     1       4.403   2.046  -7.470  0.00  0.00    +0.046 A 
ATOM     16  C   UNL     1       4.580   2.438  -8.793  0.00  0.00    +0.124 A 
ATOM     17  C   UNL     1       4.778   1.484  -9.785  0.00  0.00    -0.001 A 
ATOM     18  C   UNL     1       4.805   0.146  -9.462  0.00  0.00    +0.015 A 
BRANCH  16  19
ATOM     19  O   UNL     1       4.561   3.756  -9.116  0.00  0.00    -0.495 OA
ATOM     20  C   UNL     1       4.353   4.683  -8.048  0.00  0.00    +0.277 C 
ENDBRANCH  16  19
BRANCH  17  21
ATOM     21  C   UNL     1       4.969   1.917 -11.216  0.00  0.00    +0.065 C 
BRANCH  21  22
ATOM     22  C   UNL     1       6.419   2.252 -11.450  0.00  0.00    -0.030 C 
ATOM     23  C   UNL     1       7.080   1.664 -12.416  0.00  0.00    +0.004 C 
ENDBRANCH  21  22
ENDBRANCH  17  21
ENDBRANCH   9  13
BRANCH  11  24
ATOM     24  C   UNL     1      -0.236  -1.241  -5.417  0.00  0.00    -0.020 A 
ATOM     25  C   UNL     1      -0.601  -2.060  -6.469  0.00  0.00    +0.006 A 
ATOM     26  C   UNL     1      -1.581  -1.652  -7.355  0.00  0.00    +0.004 A 
ATOM     27  C   UNL     1      -2.195  -0.424  -7.189  0.00  0.00    -0.045 A 
ATOM     28  C   UNL     1      -1.830   0.394  -6.136  0.00  0.00    +0.004 A 
ATOM     29  C   UNL     1      -0.854  -0.016  -5.248  0.00  0.00    +0.006 A 
BRANCH  27  30
ATOM     30  C   UNL     1      -3.262   0.021  -8.156  0.00  0.00    +0.013 C 
ATOM     31  C   UNL     1      -4.571   0.255  -7.399  0.00  0.00    +0.012 C 
ATOM     32  C   UNL     1      -2.825   1.322  -8.833  0.00  0.00    +0.012 C 
ENDBRANCH  27  30
ENDBRANCH  11  24
BRANCH   1  33
ATOM     33  C   UNL     1      -0.895  -2.257  -2.681  0.00  0.00    +0.339 C 
ATOM     34  O   UNL     1      -1.485  -3.083  -2.008  0.00  0.00    -0.245 OA
BRANCH  33  35
ATOM     35  O   UNL     1      -1.294  -0.967  -2.668  0.00  0.00    -0.462 OA
BRANCH  35  37
ATOM     36  C   UNL     1      -2.715   0.854  -1.957  0.00  0.00    +0.048 C 
ATOM     37  C   UNL     1      -2.414  -0.642  -1.843  0.00  0.00    +0.229 C 
ENDBRANCH  35  37
ENDBRANCH  33  35
ENDBRANCH   1  33
TORSDOF 9
