REMARK  Name = ZINC63374945
REMARK  12 active torsions:
REMARK  status: ('A' for Active; 'I' for Inactive)
REMARK    1  A    between atoms: C_1  and  C_2
REMARK    2  A    between atoms: C_2  and  C_3
REMARK    3  A    between atoms: C_2  and  C_4
REMARK    4  A    between atoms: C_4  and  N_5
REMARK    5  A    between atoms: C_11  and  C_27
REMARK    6  A    between atoms: C_23  and  C_26
REMARK    7  A    between atoms: C_30  and  O_35
REMARK    8  A    between atoms: C_31  and  O_33
REMARK    9  A    between atoms: O_33  and  C_34
REMARK   10  A    between atoms: O_35  and  C_36
REMARK   11  A    between atoms: C_36  and  C_37
REMARK   12  A    between atoms: C_36  and  C_38
REMARK                            x       y       z     vdW  Elec       q    Type
REMARK                         _______ _______ _______ _____ _____    ______ ____
ROOT
ATOM      1  N   UNL     1      -1.893  -2.244  -0.864  0.00  0.00    -0.291 N 
ATOM      2  C   UNL     1      -1.817  -3.004  -2.100  0.00  0.00    +0.203 C 
ATOM      3  C   UNL     1      -1.666  -4.468  -1.854  0.00  0.00    +0.234 C 
ATOM      4  O   UNL     1      -1.596  -5.196  -2.822  0.00  0.00    -0.274 OA
ATOM      5  N   UNL     1      -1.603  -5.037  -0.645  0.00  0.00    -0.283 N 
ATOM      6  C   UNL     1      -1.492  -6.507  -0.574  0.00  0.00    +0.121 C 
ATOM      7  C   UNL     1      -0.206  -6.884   0.184  0.00  0.00    +0.065 C 
ATOM      8  C   UNL     1      -0.166  -6.024   1.422  0.00  0.00    -0.027 C 
ATOM      9  C   UNL     1      -0.009  -6.330   2.703  0.00  0.00    -0.000 A 
ATOM     10  C   UNL     1       0.300  -7.603   3.376  0.00  0.00    +0.010 A 
ATOM     11  C   UNL     1       0.369  -7.562   4.733  0.00  0.00    +0.001 A 
ATOM     12  C   UNL     1       0.165  -6.397   5.479  0.00  0.00    +0.002 A 
ATOM     13  C   UNL     1      -0.115  -5.183   4.943  0.00  0.00    +0.026 A 
ATOM     14  C   UNL     1      -0.204  -5.096   3.524  0.00  0.00    +0.043 A 
ATOM     15  N   UNL     1      -0.430  -4.071   2.756  0.00  0.00    -0.375 N 
ATOM     16  C   UNL     1      -0.343  -4.511   1.363  0.00  0.00    +0.139 C 
ATOM     17  C   UNL     1      -1.644  -4.258   0.594  0.00  0.00    +0.135 C 
ATOM     18  C   UNL     1      -1.812  -2.796   0.345  0.00  0.00    +0.242 C 
ATOM     19  O   UNL     1      -1.882  -2.062   1.308  0.00  0.00    -0.273 OA
ATOM     20  C   UNL     1      -2.822  -4.742   1.443  0.00  0.00    +0.044 C 
ATOM     21  H   UNL     1      -0.624  -3.169   3.055  0.00  0.00    +0.160 HD
ENDROOT
BRANCH   7  22
ATOM     22  C   UNL     1       1.000  -6.609  -0.677  0.00  0.00    -0.035 A 
ATOM     23  C   UNL     1       1.252  -5.324  -1.120  0.00  0.00    +0.008 A 
ATOM     24  C   UNL     1       2.357  -5.066  -1.910  0.00  0.00    +0.050 A 
ATOM     25  C   UNL     1       3.215  -6.097  -2.259  0.00  0.00    +0.162 A 
ATOM     26  C   UNL     1       2.961  -7.390  -1.813  0.00  0.00    +0.162 A 
ATOM     27  C   UNL     1       1.854  -7.641  -1.017  0.00  0.00    +0.053 A 
BRANCH  26  28
ATOM     28  O   UNL     1       3.799  -8.405  -2.153  0.00  0.00    -0.491 OA
ATOM     29  C   UNL     1       3.477  -9.707  -1.659  0.00  0.00    +0.277 C 
ENDBRANCH  26  28
BRANCH  25  30
ATOM     30  O   UNL     1       4.302  -5.845  -3.037  0.00  0.00    -0.486 OA
BRANCH  30  31
ATOM     31  C   UNL     1       4.567  -4.478  -3.358  0.00  0.00    +0.167 C 
ATOM     32  C   UNL     1       6.056  -4.306  -3.662  0.00  0.00    +0.051 C 
ATOM     33  C   UNL     1       3.746  -4.074  -4.585  0.00  0.00    +0.051 C 
ENDBRANCH  30  31
ENDBRANCH  25  30
ENDBRANCH   7  22
BRANCH   1  34
ATOM     34  C   UNL     1      -2.064  -0.792  -0.952  0.00  0.00    +0.111 C 
BRANCH  34  36
ATOM     35  C   UNL     1      -0.867   1.385  -1.221  0.00  0.00    +0.009 C 
ATOM     36  C   UNL     1      -0.690  -0.119  -1.004  0.00  0.00    +0.000 C 
ATOM     37  C   UNL     1       0.046  -0.361   0.316  0.00  0.00    +0.009 C 
ENDBRANCH  34  36
ENDBRANCH   1  34
TORSDOF 6
