REMARK  Name = ZINC06904939
REMARK  14 active torsions:
REMARK  status: ('A' for Active; 'I' for Inactive)
REMARK    1  A    between atoms: C_1  and  O_2
REMARK    2  A    between atoms: O_2  and  C_3
REMARK    3  A    between atoms: C_3  and  C_4
REMARK    4  A    between atoms: C_4  and  N_5
REMARK    5  A    between atoms: C_6  and  C_8
REMARK    6  A    between atoms: C_8  and  C_10
REMARK    7  A    between atoms: C_8  and  N_17
REMARK    8  A    between atoms: N_17  and  C_18
REMARK    9  A    between atoms: C_18  and  C_19
REMARK   10  A    between atoms: C_24  and  O_25
REMARK   11  A    between atoms: O_25  and  C_26
REMARK   12  A    between atoms: C_27  and  C_29
REMARK   13  A    between atoms: C_30  and  N_37
REMARK   14  A    between atoms: C_31  and  C_34
REMARK                            x       y       z     vdW  Elec       q    Type
REMARK                         _______ _______ _______ _____ _____    ______ ____
ROOT
ATOM      1  N   UNL     1      -3.141   1.307   0.965  0.00  0.00    -0.277 N 
ATOM      2  C   UNL     1      -4.347   1.352   0.366  0.00  0.00    +0.258 C 
ATOM      3  O   UNL     1      -4.628   0.541  -0.497  0.00  0.00    -0.269 OA
ENDROOT
BRANCH   2   4
ATOM      4  C   UNL     1      -5.320   2.376   0.753  0.00  0.00    +0.115 A 
ATOM      5  C   UNL     1      -6.706   2.388   0.584  0.00  0.00    +0.076 A 
ATOM      6  C   UNL     1      -7.294   3.548   1.087  0.00  0.00    +0.155 A 
ATOM      7  N   UNL     1      -6.534   4.468   1.641  0.00  0.00    -0.203 NA
ATOM      8  S   UNL     1      -5.053   3.934   1.571  0.00  0.00    +0.019 S 
BRANCH   6   9
ATOM      9  C   UNL     1      -8.753   3.742   1.000  0.00  0.00    +0.262 C 
ATOM     10  O   UNL     1      -9.450   2.888   0.486  0.00  0.00    -0.269 OA
ATOM     11  N   UNL     1      -9.315   4.866   1.488  0.00  0.00    -0.324 N 
ATOM     12  H   UNL     1      -8.759   5.547   1.898  0.00  0.00    +0.145 HD
ATOM     13  H   UNL     1     -10.274   4.993   1.430  0.00  0.00    +0.145 HD
ENDBRANCH   6   9
BRANCH   5  14
ATOM     14  N   UNL     1      -7.419   1.360  -0.018  0.00  0.00    -0.355 N 
ATOM     15  H   UNL     1      -6.953   0.577  -0.350  0.00  0.00    +0.142 HD
ATOM     16  H   UNL     1      -8.383   1.426  -0.107  0.00  0.00    +0.142 HD
ENDBRANCH   5  14
ENDBRANCH   2   4
BRANCH   1  17
ATOM     17  C   UNL     1      -2.172   0.276   0.586  0.00  0.00    +0.193 C 
BRANCH  17  18
ATOM     18  C   UNL     1      -2.415  -0.966   1.403  0.00  0.00    -0.018 A 
ATOM     19  C   UNL     1      -3.328  -0.943   2.441  0.00  0.00    +0.009 A 
ATOM     20  C   UNL     1      -3.556  -2.083   3.188  0.00  0.00    +0.038 A 
ATOM     21  C   UNL     1      -2.861  -3.246   2.903  0.00  0.00    +0.123 A 
ATOM     22  C   UNL     1      -1.943  -3.267   1.867  0.00  0.00    +0.038 A 
ATOM     23  C   UNL     1      -1.721  -2.127   1.118  0.00  0.00    +0.009 A 
ATOM     24  F   UNL     1      -3.078  -4.360   3.637  0.00  0.00    -0.205 F 
ENDBRANCH  17  18
BRANCH  17  26
ATOM     25  N   UNL     1       0.240   0.387   0.047  0.00  0.00    -0.311 N 
ATOM     26  C   UNL     1      -0.775   0.781   0.842  0.00  0.00    +0.238 C 
ATOM     27  O   UNL     1      -0.564   1.540   1.763  0.00  0.00    -0.273 OA
ATOM     28  H   UNL     1       0.052  -0.022  -0.812  0.00  0.00    +0.149 HD
BRANCH  25  29
ATOM     29  C   UNL     1       1.626   0.585   0.477  0.00  0.00    +0.132 C 
BRANCH  29  30
ATOM     30  C   UNL     1       2.567  -0.151  -0.479  0.00  0.00    +0.178 C 
BRANCH  30  32
ATOM     31  C   UNL     1       3.330  -0.174  -2.751  0.00  0.00    +0.194 C 
ATOM     32  O   UNL     1       2.486   0.442  -1.777  0.00  0.00    -0.381 OA
ENDBRANCH  30  32
ENDBRANCH  29  30
ENDBRANCH  25  29
ENDBRANCH  17  26
ENDBRANCH   1  17
BRANCH   1  33
ATOM     33  C   UNL     1      -2.798   2.291   1.996  0.00  0.00    +0.148 C 
BRANCH  33  34
ATOM     34  C   UNL     1      -3.100   1.718   3.356  0.00  0.00    +0.012 A 
ATOM     35  C   UNL     1      -4.244   2.102   4.030  0.00  0.00    +0.009 A 
ATOM     36  C   UNL     1      -4.524   1.573   5.276  0.00  0.00    +0.001 A 
ATOM     37  C   UNL     1      -3.656   0.667   5.856  0.00  0.00    +0.004 A 
ATOM     38  C   UNL     1      -2.509   0.284   5.189  0.00  0.00    +0.046 A 
ATOM     39  C   UNL     1      -2.228   0.809   3.936  0.00  0.00    +0.125 A 
BRANCH  39  40
ATOM     40  O   UNL     1      -1.099   0.434   3.278  0.00  0.00    -0.495 OA
ATOM     41  C   UNL     1      -0.370  -0.669   3.819  0.00  0.00    +0.277 C 
ENDBRANCH  39  40
ENDBRANCH  33  34
ENDBRANCH   1  33
TORSDOF 12
