REMARK  Name = ZINC09001433
REMARK  14 active torsions:
REMARK  status: ('A' for Active; 'I' for Inactive)
REMARK    1  A    between atoms: C_1  and  C_2
REMARK    2  A    between atoms: C_2  and  C_3
REMARK    3  A    between atoms: C_3  and  N_4
REMARK    4  A    between atoms: N_4  and  C_5
REMARK    5  A    between atoms: N_4  and  S_8
REMARK    6  A    between atoms: C_5  and  C_6
REMARK    7  A    between atoms: C_6  and  C_7
REMARK    8  A    between atoms: S_8  and  C_11
REMARK    9  A    between atoms: C_14  and  C_17
REMARK   10  A    between atoms: C_17  and  N_19
REMARK   11  A    between atoms: N_21  and  C_33
REMARK   12  A    between atoms: C_25  and  N_29
REMARK   13  A    between atoms: C_30  and  C_32
REMARK   14  A    between atoms: C_33  and  C_34
REMARK                            x       y       z     vdW  Elec       q    Type
REMARK                         _______ _______ _______ _____ _____    ______ ____
ROOT
ATOM      1  C   UNL     1      -8.258   2.065   0.340  0.00  0.00    +0.269 C 
ATOM      2  O   UNL     1      -7.917   0.896   0.408  0.00  0.00    -0.268 OA
ENDROOT
BRANCH   1   3
ATOM      3  N   UNL     1      -7.336   3.024   0.223  0.00  0.00    -0.152 NA
ATOM      4  C   UNL     1      -6.046   2.705   0.181  0.00  0.00    +0.168 A 
ATOM      5  N   UNL     1      -4.976   3.535   0.067  0.00  0.00    -0.310 N 
ATOM      6  C   UNL     1      -3.694   3.014   0.041  0.00  0.00    +0.059 A 
ATOM      7  C   UNL     1      -2.476   3.705  -0.071  0.00  0.00    +0.029 A 
ATOM      8  C   UNL     1      -1.280   3.028  -0.075  0.00  0.00    +0.025 A 
ATOM      9  C   UNL     1      -1.238   1.641   0.019  0.00  0.00    +0.035 A 
ATOM     10  C   UNL     1      -2.430   0.935   0.130  0.00  0.00    +0.040 A 
ATOM     11  C   UNL     1      -3.623   1.617   0.140  0.00  0.00    +0.041 A 
ATOM     12  S   UNL     1      -5.326   1.130   0.261  0.00  0.00    -0.052 S 
BRANCH   9  13
ATOM     13  N   UNL     1      -0.011   0.966   0.007  0.00  0.00    -0.286 N 
ATOM     14  C   UNL     1       0.087  -0.243  -0.581  0.00  0.00    +0.214 C 
ATOM     15  O   UNL     1      -0.902  -0.781  -1.030  0.00  0.00    -0.276 OA
ATOM     16  C   UNL     1       1.427  -0.925  -0.681  0.00  0.00    +0.109 C 
ATOM     17  H   UNL     1       0.767   1.366   0.426  0.00  0.00    +0.155 HD
ENDBRANCH   9  13
BRANCH   5  18
ATOM     18  C   UNL     1      -5.179   4.983  -0.030  0.00  0.00    +0.212 C 
BRANCH  18  19
ATOM     19  C   UNL     1      -5.316   5.366  -1.444  0.00  0.00    -0.084 C 
ATOM     20  C   UNL     1      -5.425   5.672  -2.572  0.00  0.00    +0.005 C 
ENDBRANCH  18  19
ENDBRANCH   5  18
ENDBRANCH   1   3
BRANCH   1  24
ATOM     21  C   UNL     1     -12.382   3.086   0.472  0.00  0.00    +0.106 A 
ATOM     22  C   UNL     1     -11.998   1.759   0.550  0.00  0.00    +0.029 A 
ATOM     23  C   UNL     1     -10.661   1.421   0.508  0.00  0.00    +0.015 A 
ATOM     24  C   UNL     1      -9.695   2.420   0.386  0.00  0.00    +0.039 A 
ATOM     25  C   UNL     1     -10.089   3.757   0.313  0.00  0.00    +0.015 A 
ATOM     26  C   UNL     1     -11.429   4.082   0.351  0.00  0.00    +0.029 A 
BRANCH  21  27
ATOM     27  S   UNL     1     -14.091   3.509   0.528  0.00  0.00    +0.061 S 
ATOM     28  O   UNL     1     -14.218   4.772  -0.111  0.00  0.00    -0.153 OA
ATOM     29  O   UNL     1     -14.809   2.361   0.096  0.00  0.00    -0.153 OA
BRANCH  27  30
ATOM     30  N   UNL     1     -14.486   3.742   2.119  0.00  0.00    -0.177 NA
BRANCH  30  31
ATOM     31  C   UNL     1     -14.360   5.074   2.718  0.00  0.00    +0.109 C 
BRANCH  31  33
ATOM     32  C   UNL     1     -15.579   7.181   3.282  0.00  0.00    +0.005 C 
ATOM     33  C   UNL     1     -15.710   5.790   2.657  0.00  0.00    +0.014 C 
ENDBRANCH  31  33
ENDBRANCH  30  31
BRANCH  30  34
ATOM     34  C   UNL     1     -14.962   2.617   2.929  0.00  0.00    +0.109 C 
BRANCH  34  35
ATOM     35  C   UNL     1     -13.785   2.003   3.689  0.00  0.00    +0.014 C 
ATOM     36  C   UNL     1     -14.281   0.828   4.535  0.00  0.00    +0.005 C 
ENDBRANCH  34  35
ENDBRANCH  30  34
ENDBRANCH  27  30
ENDBRANCH  21  27
ENDBRANCH   1  24
TORSDOF 11
