REMARK  Name = ZINC16569970
REMARK  6 active torsions:
REMARK  status: ('A' for Active; 'I' for Inactive)
REMARK    1  A    between atoms: C_12  and  C_33
REMARK    2  A    between atoms: C_15  and  C_17
REMARK    3  A    between atoms: C_17  and  N_18
REMARK    4  A    between atoms: N_18  and  C_19
REMARK    5  A    between atoms: N_24  and  C_25
REMARK    6  A    between atoms: C_28  and  C_31
REMARK                            x       y       z     vdW  Elec       q    Type
REMARK                         _______ _______ _______ _____ _____    ______ ____
ROOT
ATOM      1  C   UNL     1       0.181   4.502  -1.335  0.00  0.00    +0.002 A 
ATOM      2  C   UNL     1       0.437   3.266  -1.901  0.00  0.00    +0.002 A 
ATOM      3  C   UNL     1      -0.309   2.161  -1.538  0.00  0.00    +0.025 A 
ATOM      4  C   UNL     1      -1.322   2.288  -0.601  0.00  0.00    +0.061 A 
ATOM      5  C   UNL     1      -1.584   3.542  -0.037  0.00  0.00    +0.068 A 
ATOM      6  C   UNL     1      -0.831   4.641  -0.402  0.00  0.00    +0.028 A 
ATOM      7  N   UNL     1      -2.635   3.638   0.886  0.00  0.00    -0.316 N 
ATOM      8  C   UNL     1      -2.958   4.638   1.741  0.00  0.00    +0.092 A 
ATOM      9  C   UNL     1      -4.056   4.261   2.435  0.00  0.00    +0.020 A 
ATOM     10  C   UNL     1      -4.423   2.974   1.984  0.00  0.00    +0.025 A 
ATOM     11  C   UNL     1      -3.546   2.615   1.041  0.00  0.00    +0.049 A 
ATOM     12  C   UNL     1      -3.477   1.346   0.220  0.00  0.00    +0.159 C 
ATOM     13  N   UNL     1      -2.080   1.174  -0.215  0.00  0.00    -0.255 N 
ATOM     14  C   UNL     1      -1.532  -0.057  -0.248  0.00  0.00    +0.238 C 
ATOM     15  O   UNL     1      -0.409  -0.209  -0.679  0.00  0.00    -0.273 OA
ENDROOT
BRANCH  12  16
ATOM     16  C   UNL     1      -4.376   1.462  -0.983  0.00  0.00    -0.021 A 
ATOM     17  C   UNL     1      -3.969   2.195  -2.082  0.00  0.00    +0.008 A 
ATOM     18  C   UNL     1      -4.791   2.296  -3.188  0.00  0.00    +0.038 A 
ATOM     19  C   UNL     1      -6.028   1.673  -3.191  0.00  0.00    +0.123 A 
ATOM     20  C   UNL     1      -6.437   0.944  -2.088  0.00  0.00    +0.038 A 
ATOM     21  C   UNL     1      -5.611   0.839  -0.985  0.00  0.00    +0.008 A 
ATOM     22  F   UNL     1      -6.835   1.778  -4.270  0.00  0.00    -0.205 F 
ENDBRANCH  12  16
BRANCH  14  23
ATOM     23  C   UNL     1      -2.316  -1.244   0.251  0.00  0.00    +0.205 C 
BRANCH  23  24
ATOM     24  N   UNL     1      -1.461  -2.433   0.237  0.00  0.00    -0.274 N 
ATOM     25  C   UNL     1      -1.409  -3.213  -0.861  0.00  0.00    +0.307 C 
ATOM     26  O   UNL     1      -2.145  -2.987  -1.802  0.00  0.00    -0.252 OA
ATOM     27  N   UNL     1      -0.543  -4.245  -0.915  0.00  0.00    -0.269 N 
ATOM     28  H   UNL     1      -0.037  -4.495  -0.126  0.00  0.00    +0.156 HD
BRANCH  27  29
ATOM     29  C   UNL     1      -0.375  -4.953  -2.105  0.00  0.00    +0.035 A 
ATOM     30  C   UNL     1      -0.493  -4.296  -3.326  0.00  0.00    +0.024 A 
ATOM     31  C   UNL     1      -0.322  -4.990  -4.503  0.00  0.00    +0.020 A 
ATOM     32  C   UNL     1      -0.041  -6.359  -4.470  0.00  0.00    +0.052 A 
ATOM     33  C   UNL     1       0.071  -7.017  -3.241  0.00  0.00    +0.020 A 
ATOM     34  C   UNL     1      -0.095  -6.315  -2.069  0.00  0.00    +0.024 A 
BRANCH  32  35
ATOM     35  C   UNL     1       0.132  -7.086  -5.691  0.00  0.00    +0.099 C 
ATOM     36  N   UNL     1       0.269  -7.662  -6.661  0.00  0.00    -0.191 NA
ENDBRANCH  32  35
ENDBRANCH  27  29
BRANCH  24  37
ATOM     37  C   UNL     1      -0.661  -2.775   1.416  0.00  0.00    +0.078 C 
ATOM     38  C   UNL     1      -0.975  -2.038   2.720  0.00  0.00    +0.024 C 
ATOM     39  C   UNL     1       0.305  -1.713   1.946  0.00  0.00    +0.024 C 
ENDBRANCH  24  37
ENDBRANCH  23  24
ENDBRANCH  14  23
TORSDOF 6
