REMARK  Name = ZINC35844066
REMARK  3 active torsions:
REMARK  status: ('A' for Active; 'I' for Inactive)
REMARK    1  A    between atoms: C_1  and  C_2
REMARK    2  A    between atoms: N_21  and  C_24
REMARK    3  A    between atoms: C_29  and  C_30
REMARK                            x       y       z     vdW  Elec       q    Type
REMARK                         _______ _______ _______ _____ _____    ______ ____
ROOT
ATOM      1  C   UNL     1      -0.018   1.503   0.010  0.00  0.00    +0.044 C 
ATOM      2  C   UNL     1       0.002  -0.004   0.002  0.00  0.00    -0.050 A 
ATOM      3  C   UNL     1       0.006  -0.691  -1.199  0.00  0.00    +0.005 A 
ATOM      4  C   UNL     1       0.024  -2.070  -1.212  0.00  0.00    +0.024 A 
ATOM      5  C   UNL     1       0.039  -2.782  -0.015  0.00  0.00    +0.039 A 
ATOM      6  C   UNL     1       0.036  -2.081   1.187  0.00  0.00    +0.004 A 
ATOM      7  C   UNL     1       0.023  -0.704   1.195  0.00  0.00    +0.011 A 
ATOM      8  C   UNL     1       0.056  -3.122   2.269  0.00  0.00    +0.138 C 
ATOM      9  C   UNL     1      -1.122  -2.992   3.219  0.00  0.00    +0.123 C 
ATOM     10  C   UNL     1      -0.539  -3.901   4.369  0.00  0.00    +0.107 C 
ATOM     11  C   UNL     1       0.854  -3.449   4.529  0.00  0.00    +0.071 C 
ATOM     12  N   UNL     1       1.229  -2.961   3.152  0.00  0.00    -0.281 NA
ATOM     13  C   UNL     1       2.431  -3.639   2.687  0.00  0.00    +0.086 C 
ATOM     14  C   UNL     1       3.035  -4.362   3.911  0.00  0.00    +0.017 C 
ATOM     15  C   UNL     1       1.791  -4.646   4.814  0.00  0.00    +0.021 C 
ATOM     16  C   UNL     1      -1.713  -4.174   5.161  0.00  0.00    +0.232 C 
ATOM     17  O   UNL     1      -1.779  -4.313   6.363  0.00  0.00    -0.274 OA
ATOM     18  N   UNL     1      -2.739  -4.242   4.250  0.00  0.00    -0.210 N 
ATOM     19  C   UNL     1      -2.392  -3.756   3.006  0.00  0.00    +0.233 C 
ATOM     20  O   UNL     1      -2.981  -3.914   1.958  0.00  0.00    -0.274 OA
ATOM     21  C   UNL     1       0.073  -4.439   1.546  0.00  0.00    +0.243 C 
ATOM     22  O   UNL     1       0.096  -5.541   2.051  0.00  0.00    -0.273 OA
ATOM     23  N   UNL     1       0.060  -4.158   0.228  0.00  0.00    -0.283 N 
ATOM     24  H   UNL     1       0.063  -4.832  -0.469  0.00  0.00    +0.155 HD
ENDROOT
BRANCH  18  25
ATOM     25  C   UNL     1      -4.014  -4.741   4.553  0.00  0.00    +0.048 A 
ATOM     26  C   UNL     1      -5.004  -3.886   5.017  0.00  0.00    +0.044 A 
ATOM     27  C   UNL     1      -6.260  -4.381   5.314  0.00  0.00    +0.043 A 
ATOM     28  C   UNL     1      -6.529  -5.729   5.150  0.00  0.00    +0.020 A 
ATOM     29  C   UNL     1      -5.545  -6.582   4.689  0.00  0.00    +0.006 A 
ATOM     30  C   UNL     1      -4.290  -6.091   4.384  0.00  0.00    -0.029 A 
ATOM     31  C   UNL     1      -3.219  -7.022   3.876  0.00  0.00    +0.045 C 
ATOM     32 CL   UNL     1      -7.499  -3.313   5.894  0.00  0.00    -0.083 Cl
ENDBRANCH  18  25
TORSDOF 1
