REMARK  Name = ZINC32581122
REMARK  12 active torsions:
REMARK  status: ('A' for Active; 'I' for Inactive)
REMARK    1  A    between atoms: C_1  and  N_2
REMARK    2  A    between atoms: N_2  and  C_3
REMARK    3  A    between atoms: N_2  and  C_4
REMARK    4  A    between atoms: C_7  and  C_10
REMARK    5  A    between atoms: C_11  and  C_12
REMARK    6  A    between atoms: C_11  and  N_26
REMARK    7  A    between atoms: N_14  and  N_15
REMARK    8  A    between atoms: C_16  and  C_17
REMARK    9  A    between atoms: C_20  and  N_23
REMARK   10  A    between atoms: N_23  and  C_24
REMARK   11  A    between atoms: N_23  and  C_25
REMARK   12  A    between atoms: C_27  and  C_29
REMARK                            x       y       z     vdW  Elec       q    Type
REMARK                         _______ _______ _______ _____ _____    ______ ____
ROOT
ATOM      1  C   UNL     1      -2.353  -2.809  -0.178  0.00  0.00    +0.036 C 
ATOM      2  C   UNL     1      -1.127  -2.231  -0.179  0.00  0.00    +0.098 C 
ENDROOT
BRANCH   1   6
ATOM      3  C   UNL     1      -5.835  -0.403  -0.443  0.00  0.00    +0.029 A 
ATOM      4  C   UNL     1      -5.864  -1.718  -0.897  0.00  0.00    +0.023 A 
ATOM      5  C   UNL     1      -4.737  -2.503  -0.813  0.00  0.00    +0.010 A 
ATOM      6  C   UNL     1      -3.559  -1.976  -0.270  0.00  0.00    -0.023 A 
ATOM      7  C   UNL     1      -3.535  -0.654   0.191  0.00  0.00    +0.010 A 
ATOM      8  C   UNL     1      -4.666   0.125   0.098  0.00  0.00    +0.023 A 
BRANCH   3  10
ATOM      9  C   UNL     1      -8.241  -0.199  -0.987  0.00  0.00    +0.129 C 
ATOM     10  N   UNL     1      -6.979   0.387  -0.530  0.00  0.00    -0.336 N 
ATOM     11  C   UNL     1      -6.919   1.805  -0.165  0.00  0.00    +0.129 C 
ENDBRANCH   3  10
ENDBRANCH   1   6
BRANCH   2  12
ATOM     12  C   UNL     1       0.074  -3.056  -0.006  0.00  0.00    +0.277 C 
ATOM     13  O   UNL     1      -0.033  -4.251   0.202  0.00  0.00    -0.267 OA
ATOM     14  N   UNL     1       1.295  -2.491  -0.079  0.00  0.00    -0.202 N 
ATOM     15  H   UNL     1       1.392  -1.399  -0.174  0.00  0.00    +0.178 HD
BRANCH  14  16
ATOM     16  N   UNL     1       2.442  -3.294  -0.032  0.00  0.00    -0.187 NA
ATOM     17  C   UNL     1       3.619  -2.750  -0.102  0.00  0.00    +0.138 C 
BRANCH  17  18
ATOM     18  C   UNL     1       4.826  -3.595  -0.052  0.00  0.00    -0.005 A 
ATOM     19  C   UNL     1       4.705  -4.982   0.075  0.00  0.00    +0.011 A 
ATOM     20  C   UNL     1       5.835  -5.769   0.116  0.00  0.00    +0.024 A 
ATOM     21  C   UNL     1       7.095  -5.184   0.041  0.00  0.00    +0.029 A 
ATOM     22  C   UNL     1       7.219  -3.804  -0.081  0.00  0.00    +0.024 A 
ATOM     23  C   UNL     1       6.093  -3.011  -0.127  0.00  0.00    +0.011 A 
BRANCH  21  24
ATOM     24  N   UNL     1       8.237  -5.983   0.088  0.00  0.00    -0.336 N 
ATOM     25  C   UNL     1       9.565  -5.369   0.010  0.00  0.00    +0.129 C 
ATOM     26  C   UNL     1       8.108  -7.437   0.217  0.00  0.00    +0.129 C 
ENDBRANCH  21  24
ENDBRANCH  17  18
ENDBRANCH  14  16
ENDBRANCH   2  12
BRANCH   2  27
ATOM     27  N   UNL     1      -1.008  -0.847  -0.344  0.00  0.00    -0.277 N 
ATOM     28  C   UNL     1      -0.407  -0.104   0.606  0.00  0.00    +0.248 C 
ATOM     29  O   UNL     1      -0.054  -0.620   1.649  0.00  0.00    -0.270 OA
ATOM     30  H   UNL     1      -1.404  -0.365  -1.250  0.00  0.00    +0.155 HD
BRANCH  28  31
ATOM     31  C   UNL     1      -0.177   1.339   0.381  0.00  0.00    +0.037 A 
ATOM     32  C   UNL     1      -0.575   1.934  -0.817  0.00  0.00    +0.013 A 
ATOM     33  C   UNL     1      -0.362   3.282  -1.018  0.00  0.00    +0.001 A 
ATOM     34  C   UNL     1       0.254   4.042  -0.040  0.00  0.00    +0.000 A 
ATOM     35  C   UNL     1       0.657   3.457   1.148  0.00  0.00    +0.001 A 
ATOM     36  C   UNL     1       0.445   2.111   1.364  0.00  0.00    +0.013 A 
ENDBRANCH  28  31
ENDBRANCH   2  27
TORSDOF 8
