REMARK  Name = ZINC10058303
REMARK  9 active torsions:
REMARK  status: ('A' for Active; 'I' for Inactive)
REMARK    1  A    between atoms: C_1  and  C_2
REMARK    2  A    between atoms: C_2  and  C_3
REMARK    3  A    between atoms: C_2  and  C_4
REMARK    4  A    between atoms: C_4  and  C_5
REMARK    5  A    between atoms: C_5  and  N_6
REMARK    6  A    between atoms: C_19  and  S_20
REMARK    7  A    between atoms: S_20  and  C_21
REMARK    8  A    between atoms: C_21  and  C_22
REMARK    9  A    between atoms: N_24  and  C_25
REMARK                            x       y       z     vdW  Elec       q    Type
REMARK                         _______ _______ _______ _____ _____    ______ ____
ROOT
ATOM      1  N   UNL     1     -11.113   4.644  -0.624  0.00  0.00    -0.277 N 
ATOM      2  C   UNL     1     -11.740   3.452  -0.692  0.00  0.00    +0.263 A 
ATOM      3  O   UNL     1     -12.951   3.394  -0.790  0.00  0.00    -0.267 OA
ATOM      4  C   UNL     1     -10.932   2.220  -0.635  0.00  0.00    +0.064 A 
ATOM      5  C   UNL     1     -11.528   0.961  -0.692  0.00  0.00    +0.015 A 
ATOM      6  C   UNL     1     -10.739  -0.169  -0.636  0.00  0.00    +0.001 A 
ATOM      7  C   UNL     1      -9.362  -0.057  -0.525  0.00  0.00    +0.002 A 
ATOM      8  C   UNL     1      -8.760   1.184  -0.468  0.00  0.00    +0.027 A 
ATOM      9  C   UNL     1      -9.538   2.331  -0.522  0.00  0.00    +0.064 A 
ATOM     10  N   UNL     1      -8.956   3.596  -0.467  0.00  0.00    -0.256 N 
ATOM     11  C   UNL     1      -9.733   4.721  -0.518  0.00  0.00    +0.240 A 
ATOM     12  N   UNL     1      -8.934   5.763  -0.455  0.00  0.00    -0.109 NA
ATOM     13  N   UNL     1      -7.618   5.297  -0.355  0.00  0.00    -0.120 NA
ATOM     14  C   UNL     1      -7.649   3.987  -0.360  0.00  0.00    +0.198 A 
ENDROOT
BRANCH   1  15
ATOM     15  C   UNL     1     -11.902   5.877  -0.681  0.00  0.00    +0.128 C 
BRANCH  15  16
ATOM     16  C   UNL     1     -12.067   6.309  -2.140  0.00  0.00    +0.025 C 
BRANCH  16  18
ATOM     17  C   UNL     1     -12.950   8.098  -3.645  0.00  0.00    +0.007 C 
ATOM     18  C   UNL     1     -12.890   7.597  -2.200  0.00  0.00    -0.016 C 
ATOM     19  C   UNL     1     -14.309   7.320  -1.697  0.00  0.00    +0.007 C 
ENDBRANCH  16  18
ENDBRANCH  15  16
ENDBRANCH   1  15
BRANCH  14  20
ATOM     20  S   UNL     1      -6.253   2.917  -0.255  0.00  0.00    -0.076 S 
BRANCH  20  21
ATOM     21  C   UNL     1      -4.840   4.049  -0.143  0.00  0.00    +0.173 C 
BRANCH  21  22
ATOM     22  C   UNL     1      -3.564   3.253  -0.046  0.00  0.00    +0.228 C 
ATOM     23  O   UNL     1      -3.604   2.041  -0.052  0.00  0.00    -0.275 OA
ATOM     24  N   UNL     1      -2.379   3.887   0.047  0.00  0.00    -0.282 N 
ATOM     25  H   UNL     1      -2.350   4.855   0.114  0.00  0.00    +0.155 HD
BRANCH  24  26
ATOM     26  C   UNL     1      -1.188   3.151   0.047  0.00  0.00    +0.071 A 
ATOM     27  C   UNL     1      -1.137   1.892   0.639  0.00  0.00    +0.028 A 
ATOM     28  C   UNL     1       0.066   1.204   0.619  0.00  0.00    +0.022 A 
ATOM     29  C   UNL     1       1.163   1.778   0.006  0.00  0.00    +0.112 A 
ATOM     30  N   UNL     1       1.081   2.970  -0.552  0.00  0.00    -0.242 NA
ATOM     31  C   UNL     1      -0.043   3.662  -0.551  0.00  0.00    +0.150 A 
ATOM     32 CL   UNL     1      -0.090   5.226  -1.303  0.00  0.00    -0.060 Cl
ENDBRANCH  24  26
ENDBRANCH  21  22
ENDBRANCH  20  21
ENDBRANCH  14  20
TORSDOF 7
