REMARK  Name = ZINC64097975
REMARK  6 active torsions:
REMARK  status: ('A' for Active; 'I' for Inactive)
REMARK    1  A    between atoms: C_1  and  O_2
REMARK    2  A    between atoms: O_2  and  C_3
REMARK    3  A    between atoms: C_10  and  C_18
REMARK    4  A    between atoms: C_20  and  O_35
REMARK    5  A    between atoms: C_22  and  O_34
REMARK    6  A    between atoms: N_24  and  C_27
REMARK                            x       y       z     vdW  Elec       q    Type
REMARK                         _______ _______ _______ _____ _____    ______ ____
ROOT
ATOM      1  C   UNL     1       3.187  -5.101   6.379  0.00  0.00    +0.179 C 
ATOM      2  C   UNL     1       3.911  -5.969   5.392  0.00  0.00    +0.200 C 
ATOM      3  N   UNL     1       3.604  -7.191   5.188  0.00  0.00    -0.204 NA
ATOM      4  C   UNL     1       2.527  -7.888   5.871  0.00  0.00    +0.338 C 
ATOM      5  N   UNL     1       2.149  -7.230   7.114  0.00  0.00    -0.225 N 
ATOM      6  C   UNL     1       2.434  -5.950   7.363  0.00  0.00    +0.237 C 
ATOM      7  O   UNL     1       2.073  -5.461   8.413  0.00  0.00    -0.274 OA
ENDROOT
BRANCH   1  14
ATOM      8  C   UNL     1       2.200   1.120   3.485  0.00  0.00    +0.121 A 
ATOM      9  C   UNL     1       3.276   1.288   4.374  0.00  0.00    +0.047 A 
ATOM     10  C   UNL     1       3.859   0.250   5.010  0.00  0.00    +0.029 A 
ATOM     11  C   UNL     1       3.371  -1.113   4.783  0.00  0.00    +0.043 A 
ATOM     12  N   UNL     1       3.739  -2.270   5.283  0.00  0.00    -0.376 N 
ATOM     13  C   UNL     1       2.964  -3.322   4.633  0.00  0.00    +0.124 C 
ATOM     14  C   UNL     1       2.204  -4.197   5.632  0.00  0.00    +0.101 C 
ATOM     15  N   UNL     1       1.241  -5.022   4.886  0.00  0.00    -0.310 NA
ATOM     16  C   UNL     1       0.168  -4.239   4.264  0.00  0.00    +0.085 C 
ATOM     17  C   UNL     1       0.750  -3.318   3.176  0.00  0.00    +0.048 C 
ATOM     18  C   UNL     1       1.926  -2.594   3.793  0.00  0.00    -0.036 C 
ATOM     19  C   UNL     1       2.228  -1.292   3.852  0.00  0.00    +0.003 A 
ATOM     20  C   UNL     1       1.668  -0.095   3.213  0.00  0.00    +0.055 A 
ATOM     21  H   UNL     1       1.710  -5.598   4.203  0.00  0.00    +0.122 HD
ATOM     22  H   UNL     1       4.412  -2.403   5.969  0.00  0.00    +0.160 HD
BRANCH   8  24
ATOM     23  C   UNL     1       2.262   3.479   3.195  0.00  0.00    +0.277 C 
ATOM     24  O   UNL     1       1.671   2.217   2.880  0.00  0.00    -0.495 OA
ENDBRANCH   8  24
ENDBRANCH   1  14
BRANCH   5  25
ATOM     25  C   UNL     1       1.461  -7.969   8.082  0.00  0.00    +0.042 A 
ATOM     26  C   UNL     1       2.166  -8.687   9.040  0.00  0.00    +0.024 A 
ATOM     27  C   UNL     1       1.484  -9.415   9.995  0.00  0.00    +0.003 A 
ATOM     28  C   UNL     1       0.102  -9.431   9.999  0.00  0.00    +0.020 A 
ATOM     29  C   UNL     1      -0.604  -8.717   9.047  0.00  0.00    +0.043 A 
ATOM     30  C   UNL     1       0.073  -7.981   8.092  0.00  0.00    +0.043 A 
ATOM     31 CL   UNL     1      -2.339  -8.739   9.055  0.00  0.00    -0.083 Cl
ENDBRANCH   5  25
BRANCH   4  32
ATOM     32  O   UNL     1       1.388  -7.939   5.010  0.00  0.00    -0.356 OA
ATOM     33  H   UNL     1       1.546  -8.399   4.174  0.00  0.00    +0.214 HD
ENDBRANCH   4  32
BRANCH   2  34
ATOM     34  O   UNL     1       4.932  -5.435   4.690  0.00  0.00    -0.495 OA
ATOM     35  H   UNL     1       5.351  -6.051   4.074  0.00  0.00    +0.293 HD
ENDBRANCH   2  34
TORSDOF 5
