REMARK  Name = ZINC39687105
REMARK  11 active torsions:
REMARK  status: ('A' for Active; 'I' for Inactive)
REMARK    1  A    between atoms: C_1  and  C_2
REMARK    2  A    between atoms: C_4  and  C_11
REMARK    3  A    between atoms: N_5  and  C_7
REMARK    4  A    between atoms: C_7  and  C_8
REMARK    5  A    between atoms: C_7  and  C_9
REMARK    6  A    between atoms: C_7  and  C_10
REMARK    7  A    between atoms: C_15  and  C_24
REMARK    8  A    between atoms: N_26  and  C_27
REMARK    9  A    between atoms: C_27  and  C_29
REMARK   10  A    between atoms: C_27  and  C_30
REMARK   11  A    between atoms: C_30  and  C_31
REMARK                            x       y       z     vdW  Elec       q    Type
REMARK                         _______ _______ _______ _____ _____    ______ ____
ROOT
ATOM      1  C   UNL     1      -0.549  -3.683  -1.519  0.00  0.00    +0.265 C 
ATOM      2  O   UNL     1      -0.856  -3.619  -2.695  0.00  0.00    -0.268 OA
ATOM      3  N   UNL     1      -0.595  -4.866  -0.875  0.00  0.00    -0.295 N 
ATOM      4  C   UNL     1      -0.391  -5.121   0.571  0.00  0.00    +0.121 C 
ATOM      5  C   UNL     1      -1.437  -6.200   0.928  0.00  0.00    +0.100 C 
ATOM      6  C   UNL     1      -1.739  -6.910  -0.402  0.00  0.00    -0.004 C 
ATOM      7  C   UNL     1      -0.866  -6.205  -1.450  0.00  0.00    +0.115 C 
ATOM      8  C   UNL     1      -3.214  -6.753  -0.761  0.00  0.00    -0.010 C 
ATOM      9  C   UNL     1      -3.502  -7.515  -2.058  0.00  0.00    -0.082 C 
ATOM     10  N   UNL     1      -3.169  -8.933  -1.879  0.00  0.00    +0.379 N 
ATOM     11  C   UNL     1      -1.731  -9.082  -1.625  0.00  0.00    -0.082 C 
ATOM     12  C   UNL     1      -1.368  -8.386  -0.310  0.00  0.00    -0.010 C 
ATOM     13  H   UNL     1      -3.688  -9.303  -1.096  0.00  0.00    -0.086 HD
ATOM     14  H   UNL     1      -3.417  -9.443  -2.713  0.00  0.00    -0.086 HD
ENDROOT
BRANCH   1  18
ATOM     15  C   UNL     1       1.202  -0.443   1.967  0.00  0.00    +0.067 C 
ATOM     16  C   UNL     1       0.632  -1.043   0.708  0.00  0.00    +0.061 A 
ATOM     17  C   UNL     1       0.392  -2.400   0.479  0.00  0.00    +0.057 A 
ATOM     18  C   UNL     1      -0.130  -2.469  -0.801  0.00  0.00    +0.124 A 
ATOM     19  N   UNL     1      -0.176  -1.185  -1.264  0.00  0.00    -0.254 N 
ATOM     20  N   UNL     1       0.268  -0.385  -0.363  0.00  0.00    -0.175 NA
BRANCH  19  21
ATOM     21  C   UNL     1      -0.663  -0.781  -2.586  0.00  0.00    +0.056 C 
ATOM     22  C   UNL     1      -2.084  -1.310  -2.789  0.00  0.00    +0.036 C 
ATOM     23  C   UNL     1      -0.668   0.745  -2.683  0.00  0.00    +0.036 C 
ATOM     24  C   UNL     1       0.255  -1.359  -3.666  0.00  0.00    +0.036 C 
ENDBRANCH  19  21
ENDBRANCH   1  18
BRANCH   5  25
ATOM     25  C   UNL     1      -2.684  -5.559   1.480  0.00  0.00    +0.218 C 
ATOM     26  O   UNL     1      -3.054  -4.486   1.052  0.00  0.00    -0.275 OA
ATOM     27  N   UNL     1      -3.389  -6.179   2.447  0.00  0.00    -0.312 N 
ATOM     28  H   UNL     1      -3.055  -7.000   2.840  0.00  0.00    +0.149 HD
BRANCH  27  29
ATOM     29  C   UNL     1      -4.660  -5.611   2.906  0.00  0.00    +0.074 C 
ATOM     30  C   UNL     1      -4.389  -4.557   3.981  0.00  0.00    +0.028 C 
BRANCH  29  31
ATOM     31  C   UNL     1      -5.534  -6.723   3.490  0.00  0.00    +0.060 C 
BRANCH  31  32
ATOM     32  C   UNL     1      -5.902  -7.697   2.401  0.00  0.00    -0.010 A 
ATOM     33  C   UNL     1      -7.099  -7.556   1.724  0.00  0.00    +0.006 A 
ATOM     34  C   UNL     1      -7.437  -8.450   0.725  0.00  0.00    +0.000 A 
ATOM     35  C   UNL     1      -6.579  -9.484   0.401  0.00  0.00    +0.003 A 
ATOM     36  C   UNL     1      -5.382  -9.626   1.076  0.00  0.00    +0.038 A 
ATOM     37  C   UNL     1      -5.039  -8.729   2.074  0.00  0.00    +0.127 A 
ATOM     38  F   UNL     1      -3.867  -8.864   2.731  0.00  0.00    -0.205 F 
ENDBRANCH  31  32
ENDBRANCH  29  31
ENDBRANCH  27  29
ENDBRANCH   5  25
TORSDOF 6
