REMARK  Name = ZINC35844966
REMARK  18 active torsions:
REMARK  status: ('A' for Active; 'I' for Inactive)
REMARK    1  A    between atoms: C_1  and  C_2
REMARK    2  A    between atoms: C_2  and  C_3
REMARK    3  A    between atoms: C_3  and  C_4
REMARK    4  A    between atoms: C_4  and  C_6
REMARK    5  A    between atoms: C_4  and  N_11
REMARK    6  A    between atoms: C_6  and  O_8
REMARK    7  A    between atoms: O_8  and  C_9
REMARK    8  A    between atoms: C_9  and  C_10
REMARK    9  A    between atoms: N_11  and  C_12
REMARK   10  A    between atoms: N_11  and  C_18
REMARK   11  A    between atoms: C_12  and  C_13
REMARK   12  A    between atoms: C_18  and  C_19
REMARK   13  A    between atoms: N_21  and  C_22
REMARK   14  A    between atoms: N_21  and  C_30
REMARK   15  A    between atoms: C_22  and  C_23
REMARK   16  A    between atoms: C_23  and  C_24
REMARK   17  A    between atoms: C_30  and  C_31
REMARK   18  A    between atoms: C_34  and  C_36
REMARK                            x       y       z     vdW  Elec       q    Type
REMARK                         _______ _______ _______ _____ _____    ______ ____
ROOT
ATOM      1  C   UNL     1       0.489  -1.819  -1.970  0.00  0.00    +0.020 C 
ENDROOT
BRANCH   1   2
ATOM      2  C   UNL     1       0.576  -2.278  -3.402  0.00  0.00    +0.199 C 
ATOM      3  O   UNL     1      -0.366  -2.844  -3.916  0.00  0.00    -0.278 OA
ATOM      4  N   UNL     1       1.700  -2.060  -4.113  0.00  0.00    -0.295 N 
BRANCH   4   5
ATOM      5  C   UNL     1       1.785  -2.507  -5.505  0.00  0.00    +0.113 C 
BRANCH   5   6
ATOM      6  C   UNL     1       1.290  -1.392  -6.429  0.00  0.00    +0.054 C 
BRANCH   6   7
ATOM      7  C   UNL     1       1.377  -1.851  -7.862  0.00  0.00    -0.046 A 
ATOM      8  C   UNL     1       2.533  -1.633  -8.589  0.00  0.00    +0.004 A 
ATOM      9  C   UNL     1       2.613  -2.054  -9.903  0.00  0.00    +0.000 A 
ATOM     10  C   UNL     1       1.537  -2.694 -10.490  0.00  0.00    +0.000 A 
ATOM     11  C   UNL     1       0.382  -2.914  -9.763  0.00  0.00    +0.000 A 
ATOM     12  C   UNL     1       0.304  -2.496  -8.447  0.00  0.00    +0.004 A 
ENDBRANCH   6   7
ENDBRANCH   5   6
ENDBRANCH   4   5
BRANCH   4  13
ATOM     13  C   UNL     1       2.838  -1.377  -3.492  0.00  0.00    +0.181 C 
BRANCH  13  14
ATOM     14  C   UNL     1       3.744  -2.393  -2.847  0.00  0.00    +0.122 A 
ATOM     15  C   UNL     1       4.782  -3.010  -3.440  0.00  0.00    +0.046 A 
ATOM     16  C   UNL     1       5.348  -3.876  -2.476  0.00  0.00    +0.045 A 
ATOM     17  C   UNL     1       4.622  -3.737  -1.352  0.00  0.00    +0.102 A 
ATOM     18  O   UNL     1       3.655  -2.833  -1.581  0.00  0.00    -0.463 OA
ATOM     19  C   UNL     1       4.857  -4.466  -0.055  0.00  0.00    +0.086 C 
ENDBRANCH  13  14
ENDBRANCH   4  13
ENDBRANCH   1   2
BRANCH   1  20
ATOM     20  N   UNL     1      -0.827  -2.172  -1.421  0.00  0.00    +0.399 N 
ATOM     21  H   UNL     1      -1.551  -1.818  -2.029  0.00  0.00    -0.079 HD
BRANCH  20  22
ATOM     22  C   UNL     1      -0.977  -1.578  -0.086  0.00  0.00    +0.044 C 
BRANCH  22  23
ATOM     23  C   UNL     1       0.102  -2.108   0.823  0.00  0.00    +0.293 C 
ATOM     24  O   UNL     1       0.855  -2.968   0.430  0.00  0.00    -0.253 OA
BRANCH  23  25
ATOM     25  O   UNL     1       0.227  -1.624   2.069  0.00  0.00    -0.466 OA
BRANCH  25  26
ATOM     26  C   UNL     1       1.272  -2.172   2.876  0.00  0.00    +0.228 C 
ATOM     27  C   UNL     1       1.258  -1.503   4.251  0.00  0.00    +0.048 C 
ENDBRANCH  25  26
ENDBRANCH  23  25
ENDBRANCH  22  23
BRANCH  22  28
ATOM     28  C   UNL     1      -2.349  -1.943   0.484  0.00  0.00    -0.005 C 
BRANCH  28  30
ATOM     29  C   UNL     1      -4.812  -1.613   0.227  0.00  0.00    +0.004 C 
ATOM     30  C   UNL     1      -3.444  -1.362  -0.412  0.00  0.00    -0.004 C 
ENDBRANCH  28  30
ENDBRANCH  22  28
ENDBRANCH  20  22
BRANCH  20  31
ATOM     31  C   UNL     1      -0.941  -3.633  -1.323  0.00  0.00    -0.001 C 
BRANCH  31  32
ATOM     32  C   UNL     1      -2.375  -4.041  -1.542  0.00  0.00    +0.089 A 
ATOM     33  C   UNL     1      -2.971  -4.210  -2.736  0.00  0.00    +0.042 A 
ATOM     34  C   UNL     1      -4.307  -4.591  -2.476  0.00  0.00    +0.041 A 
ATOM     35  C   UNL     1      -4.448  -4.633  -1.139  0.00  0.00    +0.195 A 
ATOM     36  O   UNL     1      -3.272  -4.304  -0.578  0.00  0.00    -0.470 OA
ENDBRANCH  31  32
ENDBRANCH  20  31
ENDBRANCH   1  20
TORSDOF 15
