REMARK  Name = ZINC59437155
REMARK  8 active torsions:
REMARK  status: ('A' for Active; 'I' for Inactive)
REMARK    1  A    between atoms: C_1  and  C_2
REMARK    2  A    between atoms: C_2  and  O_3
REMARK    3  A    between atoms: O_3  and  C_4
REMARK    4  A    between atoms: C_10  and  C_11
REMARK    5  A    between atoms: C_14  and  C_16
REMARK    6  A    between atoms: N_26  and  C_27
REMARK    7  A    between atoms: C_30  and  O_33
REMARK    8  A    between atoms: O_33  and  C_34
REMARK                            x       y       z     vdW  Elec       q    Type
REMARK                         _______ _______ _______ _____ _____    ______ ____
ROOT
ATOM      1  C   UNL     1      -1.497  -1.835   0.006  0.00  0.00    +0.346 C 
ATOM      2  O   UNL     1      -0.419  -2.640  -0.008  0.00  0.00    -0.245 OA
ATOM      3  C   UNL     1      -2.773  -2.383   0.016  0.00  0.00    +0.139 C 
ATOM      4  C   UNL     1      -2.997  -3.835   0.010  0.00  0.00    +0.120 C 
ATOM      5  S   UNL     1      -4.770  -3.993   0.027  0.00  0.00    -0.065 S 
ATOM      6  C   UNL     1      -5.239  -2.275   0.041  0.00  0.00    +0.065 C 
ATOM      7  C   UNL     1      -6.497  -1.747   0.056  0.00  0.00    +0.065 C 
ATOM      8  C   UNL     1      -3.959  -1.561   0.038  0.00  0.00    +0.209 C 
ATOM      9  O   UNL     1      -3.900  -0.342   0.049  0.00  0.00    -0.286 OA
ATOM     10  N   UNL     1      -2.095  -4.797  -0.004  0.00  0.00    -0.240 NA
ENDROOT
BRANCH  10  11
ATOM     11  C   UNL     1      -2.491  -6.106  -0.007  0.00  0.00    +0.065 A 
ATOM     12  C   UNL     1      -3.508  -6.532   0.851  0.00  0.00    +0.031 A 
ATOM     13  C   UNL     1      -3.903  -7.853   0.844  0.00  0.00    +0.048 A 
ATOM     14  C   UNL     1      -3.294  -8.758  -0.014  0.00  0.00    +0.120 A 
ATOM     15  C   UNL     1      -2.284  -8.339  -0.868  0.00  0.00    +0.048 A 
ATOM     16  C   UNL     1      -1.884  -7.020  -0.873  0.00  0.00    +0.031 A 
BRANCH  14  17
ATOM     17  O   UNL     1      -3.688 -10.060  -0.016  0.00  0.00    -0.495 OA
ATOM     18  C   UNL     1      -3.019 -10.938  -0.924  0.00  0.00    +0.277 C 
ENDBRANCH  14  17
ENDBRANCH  10  11
BRANCH   7  19
ATOM     19  C   UNL     1      -7.621  -2.601   0.062  0.00  0.00    +0.130 A 
ATOM     20  C   UNL     1      -8.945  -2.201   0.072  0.00  0.00    +0.050 A 
ATOM     21  C   UNL     1      -9.717  -3.366   0.074  0.00  0.00    +0.050 A 
ATOM     22  C   UNL     1      -8.852  -4.423   0.066  0.00  0.00    +0.137 A 
ATOM     23  O   UNL     1      -7.592  -3.950   0.054  0.00  0.00    -0.455 OA
BRANCH  22  24
ATOM     24  C   UNL     1      -9.236  -5.848   0.065  0.00  0.00    +0.036 A 
ATOM     25  C   UNL     1     -10.166  -6.324   0.993  0.00  0.00    +0.014 A 
ATOM     26  C   UNL     1     -10.520  -7.657   0.987  0.00  0.00    +0.021 A 
ATOM     27  C   UNL     1      -9.956  -8.523   0.065  0.00  0.00    +0.042 A 
ATOM     28  C   UNL     1      -9.033  -8.059  -0.857  0.00  0.00    +0.040 A 
ATOM     29  C   UNL     1      -8.674  -6.726  -0.867  0.00  0.00    +0.053 A 
ATOM     30 CL   UNL     1      -7.523  -6.143  -2.028  0.00  0.00    -0.083 Cl
ATOM     31 CL   UNL     1     -10.407 -10.199   0.066  0.00  0.00    -0.083 Cl
ENDBRANCH  22  24
ENDBRANCH   7  19
BRANCH   1  32
ATOM     32  O   UNL     1      -1.339  -0.499   0.012  0.00  0.00    -0.461 OA
BRANCH  32  34
ATOM     33  C   UNL     1      -0.019   1.526   0.010  0.00  0.00    +0.048 C 
ATOM     34  C   UNL     1       0.002  -0.004   0.002  0.00  0.00    +0.229 C 
ENDBRANCH  32  34
ENDBRANCH   1  32
TORSDOF 6
