REMARK  Name = ZINC36556074
REMARK  21 active torsions:
REMARK  status: ('A' for Active; 'I' for Inactive)
REMARK    1  A    between atoms: C_1  and  C_2
REMARK    2  A    between atoms: C_5  and  C_7
REMARK    3  A    between atoms: C_7  and  N_8
REMARK    4  A    between atoms: N_8  and  C_9
REMARK    5  A    between atoms: C_9  and  C_11
REMARK    6  A    between atoms: C_9  and  C_20
REMARK    7  A    between atoms: C_12  and  O_19
REMARK    8  A    between atoms: C_14  and  O_18
REMARK    9  A    between atoms: C_16  and  O_17
REMARK   10  A    between atoms: N_22  and  C_23
REMARK   11  A    between atoms: C_23  and  C_24
REMARK   12  A    between atoms: C_23  and  C_25
REMARK   13  A    between atoms: C_23  and  C_26
REMARK   14  A    between atoms: C_26  and  C_27
REMARK   15  A    between atoms: C_27  and  C_28
REMARK   16  A    between atoms: C_27  and  C_29
REMARK   17  A    between atoms: C_27  and  C_30
REMARK   18  A    between atoms: C_31  and  C_33
REMARK   19  A    between atoms: C_33  and  C_34
REMARK   20  A    between atoms: C_34  and  C_35
REMARK   21  A    between atoms: C_34  and  C_36
REMARK                            x       y       z     vdW  Elec       q    Type
REMARK                         _______ _______ _______ _____ _____    ______ ____
ROOT
ATOM      1  C   UNL     1       4.977  -4.710  -3.202  0.00  0.00    +0.200 C 
ENDROOT
BRANCH   1   2
ATOM      2  C   UNL     1       5.570  -5.619  -4.248  0.00  0.00    +0.065 A 
ATOM      3  C   UNL     1       6.426  -5.104  -5.210  0.00  0.00    +0.129 A 
ATOM      4  C   UNL     1       6.971  -5.940  -6.172  0.00  0.00    +0.091 A 
ATOM      5  C   UNL     1       6.660  -7.292  -6.173  0.00  0.00    +0.124 A 
ATOM      6  C   UNL     1       5.805  -7.807  -5.211  0.00  0.00    +0.091 A 
ATOM      7  C   UNL     1       5.263  -6.972  -4.245  0.00  0.00    +0.129 A 
BRANCH   7   8
ATOM      8  O   UNL     1       4.429  -7.478  -3.299  0.00  0.00    -0.506 OA
ATOM      9  H   UNL     1       3.519  -7.601  -3.603  0.00  0.00    +0.292 HD
ENDBRANCH   7   8
BRANCH   5  10
ATOM     10  O   UNL     1       7.193  -8.111  -7.117  0.00  0.00    -0.507 OA
ATOM     11  H   UNL     1       8.038  -8.507  -6.862  0.00  0.00    +0.292 HD
ENDBRANCH   5  10
BRANCH   3  12
ATOM     12  O   UNL     1       6.730  -3.779  -5.209  0.00  0.00    -0.506 OA
ATOM     13  H   UNL     1       7.550  -3.564  -4.744  0.00  0.00    +0.292 HD
ENDBRANCH   3  12
ENDBRANCH   1   2
BRANCH   1  14
ATOM     14  C   UNL     1       4.106  -3.678  -3.869  0.00  0.00    +0.239 C 
ATOM     15  O   UNL     1       2.899  -3.797  -3.846  0.00  0.00    -0.273 OA
ATOM     16  N   UNL     1       4.667  -2.622  -4.490  0.00  0.00    -0.308 N 
ATOM     17  H   UNL     1       5.632  -2.557  -4.560  0.00  0.00    +0.149 HD
BRANCH  16  18
ATOM     18  C   UNL     1       3.819  -1.572  -5.061  0.00  0.00    +0.030 C 
ATOM     19  C   UNL     1       3.045  -2.135  -6.255  0.00  0.00    +0.031 C 
ATOM     20  C   UNL     1       2.833  -1.080  -4.000  0.00  0.00    +0.031 C 
BRANCH  18  21
ATOM     21  C   UNL     1       4.694  -0.406  -5.524  0.00  0.00    +0.031 C 
BRANCH  21  22
ATOM     22  C   UNL     1       5.297   0.295  -4.305  0.00  0.00    -0.036 C 
ATOM     23  C   UNL     1       5.654  -0.747  -3.243  0.00  0.00    +0.010 C 
ATOM     24  C   UNL     1       6.560   1.050  -4.723  0.00  0.00    +0.010 C 
ATOM     25  C   UNL     1       4.279   1.282  -3.729  0.00  0.00    +0.010 C 
ENDBRANCH  21  22
ENDBRANCH  18  21
ENDBRANCH  16  18
ENDBRANCH   1  14
BRANCH   1  26
ATOM     26  N   UNL     1       4.171  -5.501  -2.268  0.00  0.00    -0.278 N 
ATOM     27  C   UNL     1       2.963  -5.963  -2.646  0.00  0.00    +0.217 C 
ATOM     28  O   UNL     1       2.614  -5.873  -3.804  0.00  0.00    -0.276 OA
BRANCH  26  29
ATOM     29  C   UNL     1       4.678  -5.788  -0.924  0.00  0.00    +0.183 C 
BRANCH  29  34
ATOM     30  C   UNL     1       4.677  -1.498   1.729  0.00  0.00    +0.086 C 
ATOM     31  C   UNL     1       4.245  -2.831   1.174  0.00  0.00    +0.102 A 
ATOM     32  C   UNL     1       3.108  -3.481   1.482  0.00  0.00    +0.045 A 
ATOM     33  C   UNL     1       3.108  -4.683   0.738  0.00  0.00    +0.046 A 
ATOM     34  C   UNL     1       4.245  -4.697   0.020  0.00  0.00    +0.122 A 
ATOM     35  O   UNL     1       4.927  -3.570   0.284  0.00  0.00    -0.463 OA
ENDBRANCH  29  34
ENDBRANCH  26  29
BRANCH  27  36
ATOM     36  C   UNL     1       2.046  -6.593  -1.629  0.00  0.00    +0.099 C 
BRANCH  36  37
ATOM     37  C   UNL     1       0.749  -7.030  -2.313  0.00  0.00    -0.008 C 
ATOM     38  C   UNL     1      -0.130  -7.779  -1.310  0.00  0.00    +0.008 C 
ATOM     39  C   UNL     1       0.001  -5.796  -2.825  0.00  0.00    +0.008 C 
ENDBRANCH  36  37
ENDBRANCH  27  36
ENDBRANCH   1  26
TORSDOF 13
