REMARK  Name = ZINC26120308
REMARK  12 active torsions:
REMARK  status: ('A' for Active; 'I' for Inactive)
REMARK    1  A    between atoms: C_1  and  C_2
REMARK    2  A    between atoms: C_2  and  N_3
REMARK    3  A    between atoms: N_3  and  C_4
REMARK    4  A    between atoms: N_3  and  C_6
REMARK    5  A    between atoms: C_4  and  C_5
REMARK    6  A    between atoms: C_6  and  C_8
REMARK    7  A    between atoms: C_6  and  C_30
REMARK    8  A    between atoms: C_8  and  N_9
REMARK    9  A    between atoms: C_10  and  C_12
REMARK   10  A    between atoms: C_12  and  S_13
REMARK   11  A    between atoms: S_13  and  C_14
REMARK   12  A    between atoms: N_24  and  C_25
REMARK                            x       y       z     vdW  Elec       q    Type
REMARK                         _______ _______ _______ _____ _____    ______ ____
ROOT
ATOM      1  C   UNL     1      -3.527  -0.344  -0.724  0.00  0.00    +0.173 C 
ENDROOT
BRANCH   1   3
ATOM      2  N   UNL     1      -5.994  -0.307  -0.546  0.00  0.00    -0.316 N 
ATOM      3  C   UNL     1      -4.877  -1.008  -0.824  0.00  0.00    +0.223 C 
ATOM      4  O   UNL     1      -4.957  -2.171  -1.155  0.00  0.00    -0.275 OA
ATOM      5  H   UNL     1      -5.921   0.749  -0.246  0.00  0.00    +0.149 HD
BRANCH   2   6
ATOM      6  C   UNL     1      -7.306  -0.953  -0.643  0.00  0.00    +0.096 C 
BRANCH   6   7
ATOM      7  C   UNL     1      -8.389   0.022  -0.175  0.00  0.00    +0.016 C 
BRANCH   7   8
ATOM      8  C   UNL     1      -8.456   1.191  -1.123  0.00  0.00    +0.093 A 
ATOM      9  C   UNL     1      -9.356   1.355  -2.109  0.00  0.00    +0.043 A 
ATOM     10  C   UNL     1      -9.051   2.581  -2.744  0.00  0.00    +0.041 A 
ATOM     11  C   UNL     1      -7.982   3.093  -2.108  0.00  0.00    +0.195 A 
ATOM     12  O   UNL     1      -7.629   2.250  -1.124  0.00  0.00    -0.469 OA
ENDBRANCH   7   8
BRANCH   7  13
ATOM     13  N   UNL     1      -8.066   0.503   1.174  0.00  0.00    +0.387 N 
ATOM     14  H   UNL     1      -7.103   1.032   1.123  0.00  0.00    -0.081 HD
BRANCH  13  16
ATOM     15  C   UNL     1      -8.528   2.227   2.851  0.00  0.00    -0.017 C 
ATOM     16  C   UNL     1      -9.078   1.454   1.651  0.00  0.00    -0.081 C 
ENDBRANCH  13  16
BRANCH  13  17
ATOM     17  C   UNL     1      -7.915  -0.619   2.111  0.00  0.00    -0.081 C 
ATOM     18  C   UNL     1      -9.197  -1.452   2.119  0.00  0.00    -0.017 C 
ENDBRANCH  13  17
ENDBRANCH   7  13
ENDBRANCH   6   7
ENDBRANCH   2   6
ENDBRANCH   1   3
BRANCH   1  19
ATOM     19  S   UNL     1      -2.235  -1.536  -1.156  0.00  0.00    -0.078 S 
BRANCH  19  20
ATOM     20  C   UNL     1      -0.807  -0.523  -0.961  0.00  0.00    +0.173 A 
ATOM     21  N   UNL     1      -0.971   0.723  -0.590  0.00  0.00    -0.223 NA
ATOM     22  C   UNL     1       0.078   1.554  -0.421  0.00  0.00    +0.079 A 
ATOM     23  C   UNL     1      -0.097   2.884  -0.026  0.00  0.00    +0.028 A 
ATOM     24  C   UNL     1       0.994   3.691   0.132  0.00  0.00    +0.002 A 
ATOM     25  C   UNL     1       2.277   3.211  -0.094  0.00  0.00    +0.001 A 
ATOM     26  C   UNL     1       2.480   1.915  -0.482  0.00  0.00    +0.015 A 
ATOM     27  C   UNL     1       1.385   1.069  -0.651  0.00  0.00    +0.065 A 
ATOM     28  C   UNL     1       1.543  -0.331  -1.066  0.00  0.00    +0.263 A 
ATOM     29  O   UNL     1       2.643  -0.807  -1.278  0.00  0.00    -0.267 OA
ATOM     30  N   UNL     1       0.419  -1.073  -1.203  0.00  0.00    -0.284 N 
BRANCH  30  31
ATOM     31  C   UNL     1       0.519  -2.475  -1.615  0.00  0.00    +0.093 C 
ATOM     32  C   UNL     1       1.402  -3.257  -0.621  0.00  0.00    +0.025 C 
ATOM     33  C   UNL     1       2.189  -4.250  -1.512  0.00  0.00    +0.002 C 
ATOM     34  C   UNL     1       2.486  -3.412  -2.780  0.00  0.00    +0.002 C 
ATOM     35  C   UNL     1       1.208  -2.574  -2.988  0.00  0.00    +0.025 C 
ENDBRANCH  30  31
ENDBRANCH  19  20
ENDBRANCH   1  19
TORSDOF 10
