REMARK  Name = ZINC19160245
REMARK  4 active torsions:
REMARK  status: ('A' for Active; 'I' for Inactive)
REMARK    1  A    between atoms: C_5  and  C_7
REMARK    2  A    between atoms: C_10  and  C_12
REMARK    3  A    between atoms: C_13  and  C_14
REMARK    4  A    between atoms: N_16  and  C_17
REMARK                            x       y       z     vdW  Elec       q    Type
REMARK                         _______ _______ _______ _____ _____    ______ ____
ROOT
ATOM      1  C   UNL     1       7.030  -2.993   4.120  0.00  0.00    +0.051 C 
ATOM      2  C   UNL     1       6.646  -1.849   3.495  0.00  0.00    +0.071 C 
ENDROOT
BRANCH   1   6
ATOM      3  C   UNL     1      10.266  -2.481   5.527  0.00  0.00    +0.138 A 
ATOM      4  C   UNL     1      10.053  -3.784   5.918  0.00  0.00    +0.050 A 
ATOM      5  C   UNL     1       8.795  -4.154   5.436  0.00  0.00    +0.050 A 
ATOM      6  C   UNL     1       8.285  -3.058   4.766  0.00  0.00    +0.129 A 
ATOM      7  O   UNL     1       9.194  -2.063   4.831  0.00  0.00    -0.455 OA
BRANCH   3  12
ATOM      8  C   UNL     1      13.249  -0.249   5.069  0.00  0.00    +0.001 A 
ATOM      9  C   UNL     1      13.732  -0.174   6.364  0.00  0.00    +0.003 A 
ATOM     10  C   UNL     1      13.092  -0.849   7.389  0.00  0.00    +0.039 A 
ATOM     11  C   UNL     1      11.960  -1.597   7.126  0.00  0.00    +0.134 A 
ATOM     12  C   UNL     1      11.470  -1.680   5.818  0.00  0.00    +0.052 A 
ATOM     13  C   UNL     1      12.124  -0.996   4.790  0.00  0.00    +0.014 A 
ATOM     14  F   UNL     1      11.333  -2.251   8.128  0.00  0.00    -0.205 F 
ENDBRANCH   3  12
ENDBRANCH   1   6
BRANCH   2  15
ATOM     15  C   UNL     1       5.391  -1.784   2.848  0.00  0.00    +0.241 C 
ATOM     16  O   UNL     1       4.653  -2.753   2.851  0.00  0.00    -0.270 OA
ATOM     17  N   UNL     1       5.011  -0.650   2.228  0.00  0.00    -0.282 N 
ATOM     18  H   UNL     1       5.628   0.096   2.159  0.00  0.00    +0.155 HD
BRANCH  17  19
ATOM     19  C   UNL     1       3.725  -0.547   1.683  0.00  0.00    +0.037 A 
ATOM     20  C   UNL     1       3.517   0.200   0.530  0.00  0.00    +0.027 A 
ATOM     21  C   UNL     1       2.249   0.302  -0.008  0.00  0.00    +0.051 A 
ATOM     22  C   UNL     1       1.181  -0.339   0.600  0.00  0.00    +0.166 A 
ATOM     23  C   UNL     1       1.387  -1.088   1.756  0.00  0.00    +0.168 A 
ATOM     24  C   UNL     1       2.658  -1.190   2.295  0.00  0.00    +0.072 A 
ATOM     25  O   UNL     1       0.191  -1.612   2.155  0.00  0.00    -0.453 OA
ATOM     26  C   UNL     1      -0.674  -1.515   1.008  0.00  0.00    +0.466 C 
ATOM     27  O   UNL     1      -0.145  -0.394   0.275  0.00  0.00    -0.453 OA
ENDBRANCH  17  19
ENDBRANCH   2  15
TORSDOF 4
