REMARK  Name = ZINC15223300
REMARK  10 active torsions:
REMARK  status: ('A' for Active; 'I' for Inactive)
REMARK    1  A    between atoms: C_1  and  C_2
REMARK    2  A    between atoms: C_2  and  C_3
REMARK    3  A    between atoms: C_2  and  C_4
REMARK    4  A    between atoms: C_4  and  C_6
REMARK    5  A    between atoms: C_4  and  C_16
REMARK    6  A    between atoms: C_9  and  O_12
REMARK    7  A    between atoms: O_12  and  C_13
REMARK    8  A    between atoms: N_18  and  N_19
REMARK    9  A    between atoms: C_20  and  C_31
REMARK   10  A    between atoms: C_23  and  C_24
REMARK                            x       y       z     vdW  Elec       q    Type
REMARK                         _______ _______ _______ _____ _____    ______ ____
ROOT
ATOM      1  C   UNL     1      -0.511   0.832   1.581  0.00  0.00    +0.237 C 
ATOM      2  O   UNL     1      -1.283   1.409   0.846  0.00  0.00    -0.274 OA
ATOM      3  N   UNL     1      -0.768   0.755   2.902  0.00  0.00    -0.225 N 
ATOM      4  H   UNL     1      -0.176   0.252   3.483  0.00  0.00    +0.173 HD
ENDROOT
BRANCH   3   5
ATOM      5  N   UNL     1      -1.890   1.403   3.436  0.00  0.00    -0.164 N 
ATOM      6  C   UNL     1      -1.921   2.685   3.932  0.00  0.00    +0.153 C 
ATOM      7  N   UNL     1      -3.119   2.992   4.353  0.00  0.00    -0.225 NA
ATOM      8  C   UNL     1      -3.948   1.929   4.168  0.00  0.00    +0.133 C 
ATOM      9  C   UNL     1      -5.295   1.855   4.490  0.00  0.00    +0.079 C 
ATOM     10  C   UNL     1      -3.127   0.873   3.558  0.00  0.00    +0.287 C 
ATOM     11  O   UNL     1      -3.486  -0.245   3.232  0.00  0.00    -0.266 OA
BRANCH   6  12
ATOM     12  C   UNL     1      -0.757   3.594   3.979  0.00  0.00    +0.017 A 
ATOM     13  C   UNL     1       0.368   3.334   3.193  0.00  0.00    +0.011 A 
ATOM     14  C   UNL     1       1.449   4.189   3.239  0.00  0.00    +0.001 A 
ATOM     15  C   UNL     1       1.425   5.296   4.069  0.00  0.00    +0.000 A 
ATOM     16  C   UNL     1       0.316   5.557   4.854  0.00  0.00    +0.001 A 
ATOM     17  C   UNL     1      -0.774   4.713   4.814  0.00  0.00    +0.011 A 
ENDBRANCH   6  12
BRANCH   9  18
ATOM     18  C   UNL     1      -5.940   2.962   5.074  0.00  0.00    +0.130 A 
ATOM     19  C   UNL     1      -7.274   3.030   5.440  0.00  0.00    +0.049 A 
ATOM     20  C   UNL     1      -7.474   4.308   5.977  0.00  0.00    +0.042 A 
ATOM     21  C   UNL     1      -6.290   4.960   5.914  0.00  0.00    +0.195 A 
ATOM     22  O   UNL     1      -5.371   4.150   5.371  0.00  0.00    -0.463 OA
ENDBRANCH   9  18
ENDBRANCH   3   5
BRANCH   1  23
ATOM     23  C   UNL     1       0.737   0.201   1.019  0.00  0.00    +0.109 C 
BRANCH  23  24
ATOM     24  C   UNL     1       0.670   0.212  -0.486  0.00  0.00    -0.035 A 
ATOM     25  C   UNL     1       0.562   1.412  -1.164  0.00  0.00    +0.008 A 
ATOM     26  C   UNL     1       0.507   1.425  -2.544  0.00  0.00    +0.046 A 
ATOM     27  C   UNL     1       0.549   0.232  -3.250  0.00  0.00    +0.127 A 
ATOM     28  C   UNL     1       0.651  -0.972  -2.568  0.00  0.00    +0.046 A 
ATOM     29  C   UNL     1       0.712  -0.979  -1.188  0.00  0.00    +0.008 A 
BRANCH  27  30
ATOM     30  O   UNL     1       0.489   0.242  -4.608  0.00  0.00    -0.434 OA
BRANCH  30  31
ATOM     31  C   UNL     1       0.384   1.517  -5.243  0.00  0.00    +0.541 C 
ATOM     32  F   UNL     1      -0.781   2.159  -4.811  0.00  0.00    -0.166 F 
ATOM     33  F   UNL     1       1.497   2.297  -4.910  0.00  0.00    -0.166 F 
ENDBRANCH  30  31
ENDBRANCH  27  30
ENDBRANCH  23  24
BRANCH  23  35
ATOM     34  C   UNL     1       2.128   0.837   2.994  0.00  0.00    +0.008 C 
ATOM     35  C   UNL     1       1.962   0.992   1.481  0.00  0.00    -0.001 C 
ATOM     36  C   UNL     1       3.210   0.460   0.774  0.00  0.00    +0.008 C 
ENDBRANCH  23  35
ENDBRANCH   1  23
TORSDOF 8
