REMARK  Name = ZINC40109033
REMARK  13 active torsions:
REMARK  status: ('A' for Active; 'I' for Inactive)
REMARK    1  A    between atoms: C_1  and  C_2
REMARK    2  A    between atoms: C_5  and  C_8
REMARK    3  A    between atoms: C_8  and  O_9
REMARK    4  A    between atoms: O_9  and  C_10
REMARK    5  A    between atoms: C_14  and  C_16
REMARK    6  A    between atoms: C_16  and  C_18
REMARK    7  A    between atoms: N_22  and  C_32
REMARK    8  A    between atoms: C_23  and  C_25
REMARK    9  A    between atoms: C_32  and  C_33
REMARK   10  A    between atoms: C_33  and  O_34
REMARK   11  A    between atoms: O_34  and  C_35
REMARK   12  A    between atoms: C_35  and  C_36
REMARK   13  A    between atoms: C_36  and  O_37
REMARK                            x       y       z     vdW  Elec       q    Type
REMARK                         _______ _______ _______ _____ _____    ______ ____
ROOT
ATOM      1  C   UNL     1       4.571 -10.545   0.587  0.00  0.00    +0.076 C 
ATOM      2  C   UNL     1       5.585 -11.415   0.803  0.00  0.00    +0.249 C 
ATOM      3  C   UNL     1       5.159 -12.770   0.393  0.00  0.00    +0.288 C 
ATOM      4  O   UNL     1       5.847 -13.769   0.464  0.00  0.00    -0.266 OA
ATOM      5  N   UNL     1       3.896 -12.733  -0.070  0.00  0.00    -0.281 N 
ATOM      6  C   UNL     1       3.423 -11.346   0.018  0.00  0.00    +0.145 C 
ATOM      7  O   UNL     1       6.797 -11.095   1.312  0.00  0.00    -0.282 OA
ENDROOT
BRANCH   6   8
ATOM      8  C   UNL     1       2.228 -11.260   0.932  0.00  0.00    -0.022 A 
ATOM      9  C   UNL     1       2.194 -12.004   2.097  0.00  0.00    +0.008 A 
ATOM     10  C   UNL     1       1.099 -11.926   2.936  0.00  0.00    +0.038 A 
ATOM     11  C   UNL     1       0.035 -11.101   2.610  0.00  0.00    +0.123 A 
ATOM     12  C   UNL     1       0.070 -10.357   1.443  0.00  0.00    +0.038 A 
ATOM     13  C   UNL     1       1.169 -10.433   0.608  0.00  0.00    +0.008 A 
ATOM     14  F   UNL     1      -1.036 -11.024   3.429  0.00  0.00    -0.205 F 
ENDBRANCH   6   8
BRANCH   1  15
ATOM     15  C   UNL     1       4.582  -9.105   0.859  0.00  0.00    +0.195 C 
ATOM     16  O   UNL     1       4.654  -8.702   2.005  0.00  0.00    -0.287 OA
BRANCH  15  21
ATOM     17  C   UNL     1       4.318  -5.878  -1.053  0.00  0.00    +0.122 A 
ATOM     18  C   UNL     1       4.360  -6.339  -2.362  0.00  0.00    +0.046 A 
ATOM     19  C   UNL     1       4.474  -7.692  -2.621  0.00  0.00    +0.004 A 
ATOM     20  C   UNL     1       4.546  -8.595  -1.580  0.00  0.00    +0.012 A 
ATOM     21  C   UNL     1       4.505  -8.141  -0.260  0.00  0.00    +0.026 A 
ATOM     22  C   UNL     1       4.395  -6.774  -0.000  0.00  0.00    +0.057 A 
BRANCH  17  23
ATOM     23  O   UNL     1       4.205  -4.546  -0.805  0.00  0.00    -0.487 OA
BRANCH  23  24
ATOM     24  C   UNL     1       4.130  -3.679  -1.938  0.00  0.00    +0.264 C 
BRANCH  24  29
ATOM     25  C   UNL     1       3.669   1.797  -0.150  0.00  0.00    +0.044 C 
ATOM     26  C   UNL     1       3.789   0.368  -0.616  0.00  0.00    -0.050 A 
ATOM     27  C   UNL     1       5.037  -0.186  -0.832  0.00  0.00    +0.004 A 
ATOM     28  C   UNL     1       5.147  -1.496  -1.259  0.00  0.00    +0.007 A 
ATOM     29  C   UNL     1       4.010  -2.252  -1.471  0.00  0.00    -0.010 A 
ATOM     30  C   UNL     1       2.762  -1.698  -1.255  0.00  0.00    +0.007 A 
ATOM     31  C   UNL     1       2.651  -0.389  -0.823  0.00  0.00    +0.004 A 
ENDBRANCH  24  29
ENDBRANCH  23  24
ENDBRANCH  17  23
ENDBRANCH  15  21
ENDBRANCH   1  15
BRANCH   5  32
ATOM     32  C   UNL     1       3.127 -13.876  -0.568  0.00  0.00    +0.137 C 
BRANCH  32  33
ATOM     33  C   UNL     1       3.379 -14.045  -2.068  0.00  0.00    +0.179 C 
BRANCH  33  34
ATOM     34  O   UNL     1       4.747 -14.398  -2.284  0.00  0.00    -0.376 OA
BRANCH  34  35
ATOM     35  C   UNL     1       5.117 -14.474  -3.663  0.00  0.00    +0.187 C 
BRANCH  35  36
ATOM     36  C   UNL     1       6.558 -14.974  -3.777  0.00  0.00    +0.184 C 
BRANCH  36  37
ATOM     37  O   UNL     1       6.637 -16.317  -3.295  0.00  0.00    -0.393 OA
ATOM     38  H   UNL     1       7.524 -16.698  -3.338  0.00  0.00    +0.209 HD
ENDBRANCH  36  37
ENDBRANCH  35  36
ENDBRANCH  34  35
ENDBRANCH  33  34
ENDBRANCH  32  33
ENDBRANCH   5  32
TORSDOF 12
