REMARK  Name = ZINC36727120
REMARK  11 active torsions:
REMARK  status: ('A' for Active; 'I' for Inactive)
REMARK    1  A    between atoms: C_1  and  C_2
REMARK    2  A    between atoms: C_2  and  C_3
REMARK    3  A    between atoms: C_8  and  N_9
REMARK    4  A    between atoms: C_10  and  C_12
REMARK    5  A    between atoms: C_12  and  N_13
REMARK    6  A    between atoms: N_13  and  C_14
REMARK    7  A    between atoms: C_15  and  C_17
REMARK    8  A    between atoms: C_17  and  N_18
REMARK    9  A    between atoms: C_23  and  C_30
REMARK   10  A    between atoms: C_26  and  C_28
REMARK   11  A    between atoms: C_26  and  C_29
REMARK                            x       y       z     vdW  Elec       q    Type
REMARK                         _______ _______ _______ _____ _____    ______ ____
ROOT
ATOM      1  N   UNL     1      -4.280  -0.583   6.055  0.00  0.00    -0.294 N 
ATOM      2  C   UNL     1      -4.407   0.302   7.216  0.00  0.00    +0.132 C 
ATOM      3  C   UNL     1      -4.646  -1.876   6.150  0.00  0.00    +0.234 C 
ATOM      4  O   UNL     1      -4.542  -2.608   5.189  0.00  0.00    -0.274 OA
ENDROOT
BRANCH   1   5
ATOM      5  C   UNL     1      -3.755  -0.061   4.791  0.00  0.00    +0.203 C 
BRANCH   5   7
ATOM      6  N   UNL     1      -1.554   0.186   3.690  0.00  0.00    -0.284 N 
ATOM      7  C   UNL     1      -2.257  -0.226   4.763  0.00  0.00    +0.235 C 
ATOM      8  O   UNL     1      -1.685  -0.729   5.706  0.00  0.00    -0.274 OA
ATOM      9  H   UNL     1      -2.002   0.650   2.965  0.00  0.00    +0.155 HD
BRANCH   6  15
ATOM     10  C   UNL     1       0.423  -0.316   2.396  0.00  0.00    -0.026 A 
ATOM     11  C   UNL     1       1.783  -0.547   2.331  0.00  0.00    +0.005 A 
ATOM     12  C   UNL     1       2.546  -0.524   3.484  0.00  0.00    +0.000 A 
ATOM     13  C   UNL     1       1.950  -0.269   4.706  0.00  0.00    +0.002 A 
ATOM     14  C   UNL     1       0.591  -0.036   4.778  0.00  0.00    +0.023 A 
ATOM     15  C   UNL     1      -0.177  -0.054   3.621  0.00  0.00    +0.037 A 
BRANCH  10  17
ATOM     16  C   UNL     1      -0.555   1.082   0.597  0.00  0.00    +0.009 C 
ATOM     17  C   UNL     1      -0.408  -0.341   1.139  0.00  0.00    +0.033 C 
ENDBRANCH  10  17
ENDBRANCH   6  15
ENDBRANCH   5   7
ENDBRANCH   1   5
BRANCH   3  18
ATOM     18  C   UNL     1      -5.186  -2.413   7.451  0.00  0.00    +0.213 C 
BRANCH  18  19
ATOM     19  N   UNL     1      -5.509  -3.834   7.296  0.00  0.00    -0.215 N 
ATOM     20  C   UNL     1      -6.710  -4.299   6.893  0.00  0.00    +0.247 C 
ATOM     21  O   UNL     1      -7.689  -3.647   6.601  0.00  0.00    -0.273 OA
ATOM     22  C   UNL     1      -6.576  -5.804   6.882  0.00  0.00    +0.113 C 
ATOM     23  C   UNL     1      -7.562  -6.433   7.861  0.00  0.00    +0.038 C 
ATOM     24  C   UNL     1      -7.389  -7.954   7.857  0.00  0.00    -0.011 C 
ATOM     25  C   UNL     1      -7.634  -8.490   6.445  0.00  0.00    +0.009 C 
ATOM     26  C   UNL     1      -6.623  -7.869   5.479  0.00  0.00    -0.032 C 
ATOM     27  C   UNL     1      -6.793  -6.347   5.474  0.00  0.00    +0.041 C 
ATOM     28  C   UNL     1      -6.862  -8.414   4.070  0.00  0.00    +0.011 C 
ATOM     29  C   UNL     1      -5.204  -8.222   5.929  0.00  0.00    +0.011 C 
ATOM     30  C   UNL     1      -8.394  -8.584   8.823  0.00  0.00    +0.007 C 
ATOM     31  N   UNL     1      -5.194  -6.043   7.319  0.00  0.00    -0.285 N 
ATOM     32  C   UNL     1      -4.648  -4.831   7.533  0.00  0.00    +0.310 C 
ATOM     33  O   UNL     1      -3.503  -4.661   7.902  0.00  0.00    -0.252 OA
ATOM     34  H   UNL     1      -4.760  -6.903   7.429  0.00  0.00    +0.151 HD
ENDBRANCH  18  19
ENDBRANCH   3  18
TORSDOF 6
