REMARK  Name = ZINC36345958
REMARK  17 active torsions:
REMARK  status: ('A' for Active; 'I' for Inactive)
REMARK    1  A    between atoms: C_1  and  C_2
REMARK    2  A    between atoms: C_2  and  C_3
REMARK    3  A    between atoms: C_3  and  C_4
REMARK    4  A    between atoms: C_4  and  C_5
REMARK    5  A    between atoms: C_5  and  C_7
REMARK    6  A    between atoms: C_5  and  O_34
REMARK    7  A    between atoms: C_7  and  N_8
REMARK    8  A    between atoms: N_8  and  C_9
REMARK    9  A    between atoms: N_8  and  C_30
REMARK   10  A    between atoms: C_9  and  C_10
REMARK   11  A    between atoms: C_11  and  C_29
REMARK   12  A    between atoms: N_13  and  C_23
REMARK   13  A    between atoms: C_14  and  O_15
REMARK   14  A    between atoms: O_15  and  C_16
REMARK   15  A    between atoms: C_30  and  C_31
REMARK   16  A    between atoms: C_31  and  C_32
REMARK   17  A    between atoms: C_31  and  C_33
REMARK                            x       y       z     vdW  Elec       q    Type
REMARK                         _______ _______ _______ _____ _____    ______ ____
ROOT
ATOM      1  C   UNL     1       3.623  -6.466  -5.257  0.00  0.00    +0.021 A 
ATOM      2  C   UNL     1       3.370  -6.378  -6.629  0.00  0.00    +0.065 A 
ATOM      3  N   UNL     1       4.513  -6.232  -7.251  0.00  0.00    -0.168 NA
ATOM      4  N   UNL     1       5.538  -6.223  -6.297  0.00  0.00    -0.200 N 
ATOM      5  C   UNL     1       4.966  -6.364  -5.071  0.00  0.00    +0.225 A 
ATOM      6  C   UNL     1       2.013  -6.439  -7.281  0.00  0.00    +0.068 C 
ENDROOT
BRANCH   4   7
ATOM      7  C   UNL     1       6.908  -6.088  -6.558  0.00  0.00    +0.069 A 
ATOM      8  C   UNL     1       7.710  -5.345  -5.701  0.00  0.00    +0.028 A 
ATOM      9  C   UNL     1       9.060  -5.214  -5.962  0.00  0.00    +0.002 A 
ATOM     10  C   UNL     1       9.613  -5.820  -7.074  0.00  0.00    +0.000 A 
ATOM     11  C   UNL     1       8.818  -6.560  -7.930  0.00  0.00    +0.002 A 
ATOM     12  C   UNL     1       7.468  -6.700  -7.671  0.00  0.00    +0.028 A 
ENDBRANCH   4   7
BRANCH   1  13
ATOM     13  C   UNL     1       2.588  -6.639  -4.174  0.00  0.00    -0.036 C 
BRANCH  13  14
ATOM     14  N   UNL     1       2.132  -5.319  -3.718  0.00  0.00    +0.384 N 
ATOM     15  H   UNL     1       2.921  -4.790  -3.377  0.00  0.00    -0.081 HD
BRANCH  14  16
ATOM     16  C   UNL     1       1.152  -5.487  -2.636  0.00  0.00    -0.047 C 
BRANCH  16  17
ATOM     17  C   UNL     1       1.849  -6.063  -1.402  0.00  0.00    +0.098 C 
BRANCH  17  18
ATOM     18  O   UNL     1       2.257  -7.406  -1.668  0.00  0.00    -0.394 OA
ATOM     19  H   UNL     1       1.529  -8.002  -1.889  0.00  0.00    +0.210 HD
ENDBRANCH  17  18
BRANCH  17  20
ATOM     20  C   UNL     1       0.880  -6.050  -0.217  0.00  0.00    +0.029 C 
BRANCH  20  21
ATOM     21  C   UNL     1       1.612  -6.508   1.045  0.00  0.00    +0.002 C 
BRANCH  21  23
ATOM     22  C   UNL     1       1.375  -6.954   3.492  0.00  0.00    +0.004 C 
ATOM     23  C   UNL     1       0.643  -6.495   2.229  0.00  0.00    -0.003 C 
ENDBRANCH  21  23
ENDBRANCH  20  21
ENDBRANCH  17  20
ENDBRANCH  16  17
ENDBRANCH  14  16
BRANCH  14  24
ATOM     24  C   UNL     1       1.508  -4.602  -4.838  0.00  0.00    -0.075 C 
BRANCH  24  25
ATOM     25  C   UNL     1       1.162  -3.178  -4.401  0.00  0.00    -0.034 C 
ATOM     26  C   UNL     1       2.450  -2.408  -4.103  0.00  0.00    +0.005 C 
ATOM     27  C   UNL     1       0.395  -2.473  -5.523  0.00  0.00    +0.005 C 
ENDBRANCH  24  25
ENDBRANCH  14  24
ENDBRANCH  13  14
ENDBRANCH   1  13
BRANCH   5  28
ATOM     28  O   UNL     1       5.617  -6.398  -3.881  0.00  0.00    -0.435 OA
BRANCH  28  29
ATOM     29  C   UNL     1       6.098  -7.595  -3.451  0.00  0.00    +0.165 A 
ATOM     30  C   UNL     1       6.013  -8.712  -4.268  0.00  0.00    +0.049 A 
ATOM     31  C   UNL     1       6.504  -9.927  -3.830  0.00  0.00    +0.004 A 
ATOM     32  C   UNL     1       7.080 -10.030  -2.577  0.00  0.00    +0.003 A 
ATOM     33  C   UNL     1       7.167  -8.919  -1.759  0.00  0.00    +0.042 A 
ATOM     34  C   UNL     1       6.683  -7.699  -2.195  0.00  0.00    +0.165 A 
ATOM     35  F   UNL     1       6.772  -6.612  -1.398  0.00  0.00    -0.202 F 
ENDBRANCH  28  29
ENDBRANCH   5  28
TORSDOF 13
