REMARK  Name = ZINC14166106
REMARK  7 active torsions:
REMARK  status: ('A' for Active; 'I' for Inactive)
REMARK    1  A    between atoms: C_4  and  S_7
REMARK    2  A    between atoms: S_7  and  N_10
REMARK    3  A    between atoms: N_10  and  C_11
REMARK    4  A    between atoms: N_10  and  C_22
REMARK    5  A    between atoms: C_11  and  C_12
REMARK    6  A    between atoms: N_14  and  C_15
REMARK    7  A    between atoms: C_25  and  N_28
REMARK                            x       y       z     vdW  Elec       q    Type
REMARK                         _______ _______ _______ _____ _____    ______ ____
ROOT
ATOM      1  N   UNL     1       4.275  -0.783  -1.364  0.00  0.00    -0.194 N 
ENDROOT
BRANCH   1   2
ATOM      2  C   UNL     1       3.676  -1.997  -1.709  0.00  0.00    +0.052 A 
ATOM      3  C   UNL     1       2.854  -2.075  -2.826  0.00  0.00    +0.027 A 
ATOM      4  C   UNL     1       2.268  -3.278  -3.167  0.00  0.00    +0.034 A 
ATOM      5  C   UNL     1       2.489  -4.401  -2.392  0.00  0.00    +0.126 A 
ATOM      6  C   UNL     1       3.302  -4.325  -1.276  0.00  0.00    +0.034 A 
ATOM      7  C   UNL     1       3.896  -3.127  -0.932  0.00  0.00    +0.027 A 
BRANCH   5   8
ATOM      8  N   UNL     1       1.855  -5.687  -2.757  0.00  0.00    +0.056 N 
ATOM      9  O   UNL     1       2.049  -6.678  -2.076  0.00  0.00    -0.126 OA
ATOM     10  O   UNL     1       1.138  -5.755  -3.740  0.00  0.00    -0.126 OA
ENDBRANCH   5   8
ENDBRANCH   1   2
BRANCH   1  11
ATOM     11  S   UNL     1       3.964  -0.095   0.110  0.00  0.00    +0.075 S 
ATOM     12  O   UNL     1       5.120   0.652   0.461  0.00  0.00    -0.150 OA
ATOM     13  O   UNL     1       3.442  -1.126   0.937  0.00  0.00    -0.150 OA
BRANCH  11  17
ATOM     14  C   UNL     1       0.621   2.898  -0.489  0.00  0.00    +0.000 A 
ATOM     15  C   UNL     1       1.938   3.296  -0.626  0.00  0.00    +0.002 A 
ATOM     16  C   UNL     1       2.959   2.382  -0.443  0.00  0.00    +0.029 A 
ATOM     17  C   UNL     1       2.663   1.070  -0.123  0.00  0.00    +0.109 A 
ATOM     18  C   UNL     1       1.346   0.672   0.015  0.00  0.00    +0.029 A 
ATOM     19  C   UNL     1       0.325   1.587  -0.169  0.00  0.00    +0.002 A 
ENDBRANCH  11  17
ENDBRANCH   1  11
BRANCH   1  20
ATOM     20  C   UNL     1       5.178  -0.118  -2.307  0.00  0.00    +0.227 C 
BRANCH  20  21
ATOM     21  C   UNL     1       6.567  -0.682  -2.154  0.00  0.00    +0.236 C 
ATOM     22  O   UNL     1       6.782  -1.553  -1.337  0.00  0.00    -0.274 OA
ATOM     23  N   UNL     1       7.572  -0.218  -2.923  0.00  0.00    -0.284 N 
ATOM     24  H   UNL     1       7.417   0.526  -3.526  0.00  0.00    +0.155 HD
BRANCH  23  25
ATOM     25  C   UNL     1       8.838  -0.809  -2.853  0.00  0.00    +0.033 A 
ATOM     26  C   UNL     1       9.977  -0.039  -3.045  0.00  0.00    +0.024 A 
ATOM     27  C   UNL     1      11.226  -0.625  -2.970  0.00  0.00    +0.017 A 
ATOM     28  C   UNL     1      11.342  -1.980  -2.715  0.00  0.00    +0.018 A 
ATOM     29  C   UNL     1      10.208  -2.751  -2.529  0.00  0.00    +0.017 A 
ATOM     30  C   UNL     1       8.957  -2.169  -2.597  0.00  0.00    +0.024 A 
ATOM     31 BR   UNL     1      13.053  -2.779  -2.620  0.00  0.00    -0.050 Br
ENDBRANCH  23  25
ENDBRANCH  20  21
ENDBRANCH   1  20
TORSDOF 7
