REMARK  Name = ZINC49891551
REMARK  5 active torsions:
REMARK  status: ('A' for Active; 'I' for Inactive)
REMARK    1  A    between atoms: C_1  and  C_2
REMARK    2  A    between atoms: C_4  and  C_18
REMARK    3  A    between atoms: C_7  and  C_8
REMARK    4  A    between atoms: N_15  and  C_16
REMARK    5  A    between atoms: N_15  and  C_17
REMARK                            x       y       z     vdW  Elec       q    Type
REMARK                         _______ _______ _______ _____ _____    ______ ____
ROOT
ATOM      1  C   UNL     1       0.002   1.482  -0.307  0.00  0.00    +0.046 C 
ATOM      2  C   UNL     1       0.012  -0.016  -0.147  0.00  0.00    -0.026 A 
ATOM      3  C   UNL     1       0.062  -0.833  -1.257  0.00  0.00    +0.024 A 
ATOM      4  C   UNL     1       0.070  -2.223  -1.065  0.00  0.00    +0.101 A 
ATOM      5  C   UNL     1       0.026  -2.729   0.249  0.00  0.00    +0.113 A 
ATOM      6  N   UNL     1      -0.021  -1.906   1.283  0.00  0.00    -0.342 N 
ATOM      7  C   UNL     1      -0.024  -0.588   1.125  0.00  0.00    +0.051 A 
ATOM      8  N   UNL     1       0.033  -4.095   0.459  0.00  0.00    -0.322 N 
ATOM      9  C   UNL     1       1.299  -4.794   0.695  0.00  0.00    +0.130 C 
ATOM     10  C   UNL     1      -1.226  -4.844   0.445  0.00  0.00    +0.130 C 
ATOM     11  H   UNL     1      -0.051  -2.275   2.179  0.00  0.00    +0.167 HD
ENDROOT
BRANCH   7  12
ATOM     12  C   UNL     1      -0.072   0.289   2.318  0.00  0.00    -0.001 A 
ATOM     13  C   UNL     1       0.763   1.403   2.402  0.00  0.00    +0.011 A 
ATOM     14  C   UNL     1       0.715   2.216   3.515  0.00  0.00    +0.020 A 
ATOM     15  C   UNL     1      -0.162   1.929   4.548  0.00  0.00    +0.041 A 
ATOM     16  C   UNL     1      -0.994   0.824   4.470  0.00  0.00    +0.020 A 
ATOM     17  C   UNL     1      -0.956   0.007   3.359  0.00  0.00    +0.011 A 
ATOM     18 CL   UNL     1      -0.218   2.957   5.946  0.00  0.00    -0.084 Cl
ENDBRANCH   7  12
BRANCH   4  19
ATOM     19  C   UNL     1       0.123  -3.136  -2.214  0.00  0.00    +0.390 C 
ATOM     20  O   UNL     1       0.049  -2.691  -3.352  0.00  0.00    -0.240 OA
ATOM     21  O   UNL     1       0.241  -4.340  -2.034  0.00  0.00    -0.240 OA
ENDBRANCH   4  19
TORSDOF 2
