REMARK  Name = ZINC09780395
REMARK  9 active torsions:
REMARK  status: ('A' for Active; 'I' for Inactive)
REMARK    1  A    between atoms: C_1  and  C_2
REMARK    2  A    between atoms: C_4  and  C_18
REMARK    3  A    between atoms: C_5  and  C_17
REMARK    4  A    between atoms: N_6  and  C_7
REMARK    5  A    between atoms: C_7  and  C_8
REMARK    6  A    between atoms: C_18  and  C_20
REMARK    7  A    between atoms: C_20  and  N_21
REMARK    8  A    between atoms: C_24  and  C_28
REMARK    9  A    between atoms: C_24  and  C_29
REMARK                            x       y       z     vdW  Elec       q    Type
REMARK                         _______ _______ _______ _____ _____    ______ ____
ROOT
ATOM      1  C   UNL     1       3.567   2.572  -2.386  0.00  0.00    +0.183 C 
ATOM      2  O   UNL     1       3.207   1.435  -2.609  0.00  0.00    -0.290 OA
ENDROOT
BRANCH   1   6
ATOM      3  C   UNL     1       7.544   5.548  -3.521  0.00  0.00    +0.063 C 
ATOM      4  C   UNL     1       6.591   4.386  -3.417  0.00  0.00    +0.017 A 
ATOM      5  C   UNL     1       5.420   4.395  -2.758  0.00  0.00    +0.034 A 
ATOM      6  C   UNL     1       4.840   3.056  -2.925  0.00  0.00    +0.040 A 
ATOM      7  C   UNL     1       5.739   2.349  -3.700  0.00  0.00    +0.027 A 
ATOM      8  N   UNL     1       6.776   3.158  -3.983  0.00  0.00    -0.343 N 
ATOM      9  C   UNL     1       5.585   0.919  -4.151  0.00  0.00    +0.064 C 
BRANCH   8  10
ATOM     10  C   UNL     1       7.939   2.774  -4.786  0.00  0.00    +0.157 C 
BRANCH  10  11
ATOM     11  C   UNL     1       7.673   3.084  -6.237  0.00  0.00    -0.024 A 
ATOM     12  C   UNL     1       8.014   4.321  -6.752  0.00  0.00    +0.009 A 
ATOM     13  C   UNL     1       7.772   4.610  -8.082  0.00  0.00    +0.050 A 
ATOM     14  C   UNL     1       7.186   3.660  -8.902  0.00  0.00    +0.166 A 
ATOM     15  C   UNL     1       6.842   2.414  -8.383  0.00  0.00    +0.167 A 
ATOM     16  C   UNL     1       7.093   2.129  -7.051  0.00  0.00    +0.055 A 
ATOM     17  O   UNL     1       6.287   1.665  -9.380  0.00  0.00    -0.453 OA
ATOM     18  C   UNL     1       6.667   2.315 -10.607  0.00  0.00    +0.466 C 
ATOM     19  O   UNL     1       6.846   3.691 -10.224  0.00  0.00    -0.453 OA
ENDBRANCH  10  11
ENDBRANCH   8  10
ENDBRANCH   1   6
BRANCH   1  20
ATOM     20  C   UNL     1       2.705   3.486  -1.554  0.00  0.00    +0.197 C 
BRANCH  20  21
ATOM     21  N   UNL     1       1.496   2.771  -1.137  0.00  0.00    -0.216 N 
ATOM     22  C   UNL     1       1.393   2.055  -0.000  0.00  0.00    +0.254 C 
ATOM     23  O   UNL     1       2.251   1.889   0.840  0.00  0.00    -0.272 OA
ATOM     24  C   UNL     1      -0.018   1.503   0.010  0.00  0.00    +0.168 C 
ATOM     25  N   UNL     1      -0.602   2.020  -1.239  0.00  0.00    -0.279 N 
ATOM     26  C   UNL     1       0.357   2.748  -1.839  0.00  0.00    +0.310 C 
ATOM     27  O   UNL     1       0.206   3.320  -2.901  0.00  0.00    -0.252 OA
ATOM     28  C   UNL     1      -0.791   2.022   1.224  0.00  0.00    +0.050 C 
ATOM     29  H   UNL     1      -1.502   1.866  -1.566  0.00  0.00    +0.152 HD
BRANCH  24  30
ATOM     30  C   UNL     1       0.002  -0.004   0.002  0.00  0.00    +0.138 A 
ATOM     31  C   UNL     1      -0.947  -0.781  -0.538  0.00  0.00    +0.056 A 
ATOM     32  C   UNL     1      -0.515  -2.167  -0.318  0.00  0.00    +0.020 A 
ATOM     33  C   UNL     1      -1.047  -3.416  -0.635  0.00  0.00    +0.011 A 
ATOM     34  C   UNL     1      -0.376  -4.550  -0.271  0.00  0.00    +0.001 A 
ATOM     35  C   UNL     1       0.829  -4.466   0.411  0.00  0.00    +0.004 A 
ATOM     36  C   UNL     1       1.370  -3.240   0.733  0.00  0.00    +0.047 A 
ATOM     37  C   UNL     1       0.705  -2.074   0.373  0.00  0.00    +0.135 A 
ATOM     38  O   UNL     1       0.972  -0.764   0.540  0.00  0.00    -0.457 OA
ENDBRANCH  24  30
ENDBRANCH  20  21
ENDBRANCH   1  20
TORSDOF 6
