REMARK  Name = ZINC23682216
REMARK  5 active torsions:
REMARK  status: ('A' for Active; 'I' for Inactive)
REMARK    1  A    between atoms: C_1  and  C_2
REMARK    2  A    between atoms: C_3  and  C_21
REMARK    3  A    between atoms: C_8  and  C_10
REMARK    4  A    between atoms: C_14  and  C_20
REMARK    5  A    between atoms: C_21  and  C_22
REMARK                            x       y       z     vdW  Elec       q    Type
REMARK                         _______ _______ _______ _____ _____    ______ ____
ROOT
ATOM      1  C   UNL     1       1.831   6.483  -0.484  0.00  0.00    +0.066 C 
ATOM      2  C   UNL     1       3.135   6.211  -1.191  0.00  0.00    +0.051 A 
ATOM      3  C   UNL     1       4.020   5.315  -0.692  0.00  0.00    +0.018 A 
ATOM      4  S   UNL     1       5.318   5.413  -1.916  0.00  0.00    -0.056 S 
ATOM      5  C   UNL     1       4.577   6.608  -2.935  0.00  0.00    +0.165 A 
ATOM      6  N   UNL     1       3.442   6.844  -2.306  0.00  0.00    -0.230 NA
ATOM      7  N   UNL     1       5.057   7.172  -4.111  0.00  0.00    -0.263 N 
ATOM      8  C   UNL     1       4.324   8.096  -4.764  0.00  0.00    +0.240 C 
ATOM      9  O   UNL     1       3.245   8.435  -4.325  0.00  0.00    -0.273 OA
ATOM     10  H   UNL     1       6.035   6.864  -4.510  0.00  0.00    +0.157 HD
ENDROOT
BRANCH   8  11
ATOM     11  C   UNL     1       4.845   8.707  -6.040  0.00  0.00    +0.173 C 
ATOM     12  C   UNL     1       5.038   7.596  -7.122  0.00  0.00    +0.103 C 
ATOM     13  S   UNL     1       5.088   8.666  -8.627  0.00  0.00    -0.133 S 
ATOM     14  C   UNL     1       4.303  10.164  -7.907  0.00  0.00    +0.082 C 
ATOM     15  N   UNL     1       3.859   9.671  -6.575  0.00  0.00    -0.275 N 
ATOM     16  C   UNL     1       2.667  10.227  -6.273  0.00  0.00    +0.217 C 
ATOM     17  O   UNL     1       2.137  10.176  -5.184  0.00  0.00    -0.276 OA
ATOM     18  C   UNL     1       2.086  10.923  -7.483  0.00  0.00    +0.099 C 
ATOM     19  C   UNL     1       2.997  10.482  -8.655  0.00  0.00    +0.046 C 
ATOM     20  C   UNL     1       5.255  11.360  -7.837  0.00  0.00    +0.044 C 
ENDBRANCH   8  11
BRANCH   3  21
ATOM     21  C   UNL     1       3.932   4.465   0.550  0.00  0.00    +0.079 C 
BRANCH  21  22
ATOM     22  C   UNL     1       3.274   3.151   0.213  0.00  0.00    -0.039 A 
ATOM     23  C   UNL     1       4.044   2.076  -0.189  0.00  0.00    +0.008 A 
ATOM     24  C   UNL     1       3.445   0.870  -0.498  0.00  0.00    +0.050 A 
ATOM     25  C   UNL     1       2.069   0.735  -0.406  0.00  0.00    +0.166 A 
ATOM     26  C   UNL     1       1.293   1.818  -0.001  0.00  0.00    +0.166 A 
ATOM     27  C   UNL     1       1.900   3.024   0.308  0.00  0.00    +0.053 A 
ATOM     28  O   UNL     1      -0.018   1.436   0.010  0.00  0.00    -0.453 OA
ATOM     29  C   UNL     1       0.002  -0.004   0.002  0.00  0.00    +0.466 C 
ATOM     30  O   UNL     1       1.245  -0.326  -0.649  0.00  0.00    -0.453 OA
ENDBRANCH  21  22
ENDBRANCH   3  21
TORSDOF 3
