REMARK  Name = ZINC59734498
REMARK  11 active torsions:
REMARK  status: ('A' for Active; 'I' for Inactive)
REMARK    1  A    between atoms: C_1  and  O_2
REMARK    2  A    between atoms: O_2  and  C_3
REMARK    3  A    between atoms: C_3  and  C_5
REMARK    4  A    between atoms: C_10  and  C_11
REMARK    5  A    between atoms: C_11  and  C_13
REMARK    6  A    between atoms: C_16  and  N_22
REMARK    7  A    between atoms: C_17  and  N_19
REMARK    8  A    between atoms: N_22  and  C_23
REMARK    9  A    between atoms: C_23  and  C_24
REMARK   10  A    between atoms: C_28  and  C_30
REMARK   11  A    between atoms: C_30  and  N_31
REMARK                            x       y       z     vdW  Elec       q    Type
REMARK                         _______ _______ _______ _____ _____    ______ ____
ROOT
ATOM      1  C   UNL     1       2.422  -2.838  -4.552  0.00  0.00    +0.025 A 
ATOM      2  C   UNL     1       2.240  -4.223  -4.652  0.00  0.00    +0.013 A 
ATOM      3  C   UNL     1       2.751  -4.901  -5.721  0.00  0.00    +0.026 A 
ATOM      4  C   UNL     1       3.452  -4.217  -6.712  0.00  0.00    +0.058 A 
ATOM      5  C   UNL     1       3.635  -2.840  -6.616  0.00  0.00    +0.148 A 
ATOM      6  C   UNL     1       3.122  -2.154  -5.552  0.00  0.00    +0.046 A 
ENDROOT
BRANCH   5   7
ATOM      7  N   UNL     1       4.382  -2.118  -7.670  0.00  0.00    +0.058 N 
ATOM      8  O   UNL     1       5.111  -1.200  -7.374  0.00  0.00    -0.126 OA
ATOM      9  O   UNL     1       4.263  -2.446  -8.828  0.00  0.00    -0.126 OA
ENDBRANCH   5   7
BRANCH   1  10
ATOM     10  C   UNL     1       1.872  -2.103  -3.400  0.00  0.00    +0.194 C 
ATOM     11  O   UNL     1       1.964  -0.891  -3.352  0.00  0.00    -0.287 OA
BRANCH  10  17
ATOM     12  C   UNL     1      -0.101  -3.327  -2.467  0.00  0.00    +0.070 A 
ATOM     13  C   UNL     1      -0.711  -4.023  -1.426  0.00  0.00    +0.016 A 
ATOM     14  C   UNL     1      -0.034  -4.224  -0.238  0.00  0.00    +0.001 A 
ATOM     15  C   UNL     1       1.251  -3.738  -0.074  0.00  0.00    +0.001 A 
ATOM     16  C   UNL     1       1.873  -3.044  -1.095  0.00  0.00    +0.012 A 
ATOM     17  C   UNL     1       1.209  -2.837  -2.301  0.00  0.00    +0.036 A 
BRANCH  12  18
ATOM     18  C   UNL     1      -0.821  -3.109  -3.739  0.00  0.00    +0.340 C 
ATOM     19  O   UNL     1      -0.327  -2.416  -4.605  0.00  0.00    -0.245 OA
BRANCH  18  21
ATOM     20  C   UNL     1      -2.665  -3.426  -5.190  0.00  0.00    +0.280 C 
ATOM     21  O   UNL     1      -2.026  -3.679  -3.937  0.00  0.00    -0.464 OA
ENDBRANCH  18  21
ENDBRANCH  12  18
ENDBRANCH  10  17
ENDBRANCH   1  10
BRANCH   4  22
ATOM     22  N   UNL     1       3.971  -4.911  -7.799  0.00  0.00    -0.338 N 
ATOM     23  H   UNL     1       4.400  -4.429  -8.522  0.00  0.00    +0.146 HD
BRANCH  22  24
ATOM     24  C   UNL     1       3.868  -6.372  -7.852  0.00  0.00    +0.137 C 
BRANCH  24  25
ATOM     25  C   UNL     1       4.502  -6.874  -9.123  0.00  0.00    -0.030 A 
ATOM     26  C   UNL     1       3.742  -7.004 -10.270  0.00  0.00    +0.005 A 
ATOM     27  C   UNL     1       4.324  -7.465 -11.437  0.00  0.00    +0.001 A 
ATOM     28  C   UNL     1       5.666  -7.795 -11.456  0.00  0.00    +0.005 A 
ATOM     29  C   UNL     1       6.426  -7.663 -10.309  0.00  0.00    -0.026 A 
ATOM     30  C   UNL     1       5.845  -7.199  -9.144  0.00  0.00    +0.010 A 
BRANCH  29  31
ATOM     31  C   UNL     1       7.890  -8.024 -10.330  0.00  0.00    +0.178 C 
BRANCH  31  32
ATOM     32  N   UNL     1       8.678  -6.843 -10.693  0.00  0.00    -0.267 N 
ATOM     33  C   UNL     1       9.701  -6.322  -9.984  0.00  0.00    +0.108 A 
ATOM     34  C   UNL     1      10.160  -5.241 -10.655  0.00  0.00    +0.041 A 
ATOM     35  C   UNL     1       9.392  -5.096 -11.815  0.00  0.00    +0.134 A 
ATOM     36  N   UNL     1       8.507  -6.060 -11.842  0.00  0.00    -0.179 NA
ENDBRANCH  31  32
ENDBRANCH  29  31
ENDBRANCH  24  25
ENDBRANCH  22  24
ENDBRANCH   4  22
TORSDOF 10
