REMARK  Name = ZINC51714217
REMARK  4 active torsions:
REMARK  status: ('A' for Active; 'I' for Inactive)
REMARK    1  A    between atoms: C_4  and  C_6
REMARK    2  A    between atoms: C_6  and  N_7
REMARK    3  A    between atoms: C_10  and  N_13
REMARK    4  A    between atoms: C_20  and  C_23
REMARK                            x       y       z     vdW  Elec       q    Type
REMARK                         _______ _______ _______ _____ _____    ______ ____
ROOT
ATOM      1  N   UNL     1      -1.613  -6.138  -1.296  0.00  0.00    -0.297 N 
ATOM      2  C   UNL     1      -2.159  -7.002  -2.174  0.00  0.00    +0.303 C 
ATOM      3  O   UNL     1      -2.238  -6.705  -3.350  0.00  0.00    -0.253 OA
ATOM      4  N   UNL     1      -2.619  -8.195  -1.748  0.00  0.00    -0.281 N 
ATOM      5  C   UNL     1      -2.446  -8.618  -0.349  0.00  0.00    +0.137 C 
ATOM      6  C   UNL     1      -1.839 -10.025  -0.340  0.00  0.00    +0.180 C 
ATOM      7  O   UNL     1      -2.627 -10.883  -1.170  0.00  0.00    -0.364 OA
ATOM      8  C   UNL     1      -2.659 -10.497  -2.547  0.00  0.00    +0.221 C 
ATOM      9  C   UNL     1      -3.313  -9.111  -2.667  0.00  0.00    +0.150 C 
ATOM     10  H   UNL     1      -1.484  -6.402  -0.371  0.00  0.00    +0.151 HD
ENDROOT
BRANCH   1  14
ATOM     11  N   UNL     1       0.637  -2.581  -1.520  0.00  0.00    +0.380 N 
ATOM     12  C   UNL     1      -0.728  -2.466  -0.993  0.00  0.00    -0.077 C 
ATOM     13  C   UNL     1      -1.222  -3.842  -0.541  0.00  0.00    +0.004 C 
ATOM     14  C   UNL     1      -1.213  -4.799  -1.737  0.00  0.00    +0.071 C 
ATOM     15  C   UNL     1       0.200  -4.854  -2.324  0.00  0.00    +0.004 C 
ATOM     16  C   UNL     1       0.642  -3.441  -2.709  0.00  0.00    -0.077 C 
ATOM     17  H   UNL     1       1.235  -2.983  -0.813  0.00  0.00    -0.082 HD
BRANCH  11  18
ATOM     18  C   UNL     1       1.136  -1.247  -1.879  0.00  0.00    -0.075 C 
BRANCH  18  22
ATOM     19  C   UNL     1       3.136   1.180  -0.235  0.00  0.00    +0.000 C 
ATOM     20  C   UNL     1       3.043   0.194   0.956  0.00  0.00    +0.000 C 
ATOM     21  C   UNL     1       2.313  -1.023   0.335  0.00  0.00    +0.002 C 
ATOM     22  C   UNL     1       1.272  -0.395  -0.616  0.00  0.00    -0.028 C 
ATOM     23  C   UNL     1       1.796   1.006  -0.978  0.00  0.00    +0.002 C 
ENDBRANCH  18  22
ENDBRANCH  11  18
ENDBRANCH   1  14
BRANCH   8  24
ATOM     24  C   UNL     1      -3.461 -11.502  -3.332  0.00  0.00    +0.241 C 
ATOM     25  O   UNL     1      -4.033 -12.404  -2.758  0.00  0.00    -0.273 OA
ATOM     26  N   UNL     1      -3.544 -11.398  -4.673  0.00  0.00    -0.327 N 
ATOM     27  H   UNL     1      -3.087 -10.676  -5.133  0.00  0.00    +0.145 HD
ATOM     28  H   UNL     1      -4.060 -12.044  -5.179  0.00  0.00    +0.145 HD
ENDBRANCH   8  24
TORSDOF 4
