REMARK  Name = ZINC38708122
REMARK  13 active torsions:
REMARK  status: ('A' for Active; 'I' for Inactive)
REMARK    1  A    between atoms: C_1  and  C_2
REMARK    2  A    between atoms: C_2  and  C_3
REMARK    3  A    between atoms: C_2  and  C_4
REMARK    4  A    between atoms: C_4  and  N_5
REMARK    5  A    between atoms: C_8  and  N_19
REMARK    6  A    between atoms: C_14  and  C_17
REMARK    7  A    between atoms: C_14  and  C_18
REMARK    8  A    between atoms: C_20  and  C_22
REMARK    9  A    between atoms: C_23  and  C_24
REMARK   10  A    between atoms: C_27  and  O_32
REMARK   11  A    between atoms: C_28  and  O_30
REMARK   12  A    between atoms: O_30  and  C_31
REMARK   13  A    between atoms: O_32  and  C_33
REMARK                            x       y       z     vdW  Elec       q    Type
REMARK                         _______ _______ _______ _____ _____    ______ ____
ROOT
ATOM      1  N   UNL     1      -1.735  -2.301  -0.245  0.00  0.00    -0.267 N 
ATOM      2  C   UNL     1      -1.722  -2.968  -1.478  0.00  0.00    +0.080 A 
ATOM      3  C   UNL     1      -0.929  -2.511  -2.517  0.00  0.00    +0.050 A 
ATOM      4  C   UNL     1      -0.931  -3.182  -3.733  0.00  0.00    +0.036 A 
ATOM      5  C   UNL     1      -1.728  -4.306  -3.905  0.00  0.00    +0.027 A 
ATOM      6  C   UNL     1      -2.519  -4.762  -2.867  0.00  0.00    +0.049 A 
ATOM      7  C   UNL     1      -2.518  -4.099  -1.652  0.00  0.00    +0.142 A 
ATOM      8  O   UNL     1      -3.283  -4.550  -0.621  0.00  0.00    -0.489 OA
ATOM      9  C   UNL     1      -2.614  -5.232   0.436  0.00  0.00    +0.244 C 
ATOM     10  C   UNL     1      -1.331  -4.497   0.819  0.00  0.00    +0.076 C 
ATOM     11  C   UNL     1      -1.582  -3.013   0.894  0.00  0.00    +0.229 C 
ATOM     12  O   UNL     1      -1.650  -2.461   1.972  0.00  0.00    -0.275 OA
ATOM     13  C   UNL     1      -0.845  -4.998   2.180  0.00  0.00    +0.024 C 
ATOM     14  C   UNL     1      -0.255  -4.773  -0.234  0.00  0.00    +0.024 C 
ENDROOT
BRANCH   4  15
ATOM     15  N   UNL     1      -0.131  -2.724  -4.786  0.00  0.00    -0.282 N 
ATOM     16  C   UNL     1       0.449  -3.606  -5.625  0.00  0.00    +0.241 C 
ATOM     17  O   UNL     1       0.207  -4.794  -5.520  0.00  0.00    -0.270 OA
ATOM     18  H   UNL     1       0.007  -1.772  -4.912  0.00  0.00    +0.155 HD
BRANCH  16  19
ATOM     19  C   UNL     1       1.368  -3.135  -6.660  0.00  0.00    +0.068 C 
ATOM     20  C   UNL     1       1.948  -4.018  -7.500  0.00  0.00    +0.013 C 
BRANCH  20  21
ATOM     21  C   UNL     1       2.872  -3.545  -8.541  0.00  0.00    -0.021 A 
ATOM     22  C   UNL     1       3.156  -2.179  -8.659  0.00  0.00    +0.012 A 
ATOM     23  C   UNL     1       4.022  -1.738  -9.635  0.00  0.00    +0.050 A 
ATOM     24  C   UNL     1       4.614  -2.645 -10.504  0.00  0.00    +0.162 A 
ATOM     25  C   UNL     1       4.337  -4.007 -10.393  0.00  0.00    +0.162 A 
ATOM     26  C   UNL     1       3.475  -4.459  -9.413  0.00  0.00    +0.057 A 
BRANCH  25  27
ATOM     27  O   UNL     1       4.919  -4.892 -11.246  0.00  0.00    -0.491 OA
ATOM     28  C   UNL     1       4.590  -6.272 -11.074  0.00  0.00    +0.277 C 
ENDBRANCH  25  27
BRANCH  24  29
ATOM     29  O   UNL     1       5.467  -2.204 -11.465  0.00  0.00    -0.491 OA
ATOM     30  C   UNL     1       5.707  -0.797 -11.524  0.00  0.00    +0.277 C 
ENDBRANCH  24  29
ENDBRANCH  20  21
ENDBRANCH  16  19
ENDBRANCH   4  15
BRANCH   1  31
ATOM     31  C   UNL     1      -1.907  -0.848  -0.191  0.00  0.00    +0.116 C 
BRANCH  31  33
ATOM     32  C   UNL     1      -0.721   1.348  -0.327  0.00  0.00    +0.009 C 
ATOM     33  C   UNL     1      -0.537  -0.170  -0.258  0.00  0.00    +0.001 C 
ATOM     34  C   UNL     1       0.271  -0.528   0.992  0.00  0.00    +0.009 C 
ENDBRANCH  31  33
ENDBRANCH   1  31
TORSDOF 7
