REMARK  Name = ZINC09329280
REMARK  5 active torsions:
REMARK  status: ('A' for Active; 'I' for Inactive)
REMARK    1  A    between atoms: C_1  and  C_2
REMARK    2  A    between atoms: C_5  and  C_8
REMARK    3  A    between atoms: C_15  and  N_32
REMARK    4  A    between atoms: C_16  and  C_30
REMARK    5  A    between atoms: C_20  and  N_27
REMARK                            x       y       z     vdW  Elec       q    Type
REMARK                         _______ _______ _______ _____ _____    ______ ____
ROOT
ATOM      1  C   UNL     1       0.061  -4.256  -0.021  0.00  0.00    +0.101 A 
ATOM      2  C   UNL     1       0.798  -5.073   0.840  0.00  0.00    +0.066 A 
ATOM      3  C   UNL     1       0.544  -6.374   0.509  0.00  0.00    +0.224 A 
ATOM      4  N   UNL     1      -0.323  -6.372  -0.524  0.00  0.00    -0.246 N 
ATOM      5  H   UNL     1      -0.682  -7.156  -0.969  0.00  0.00    +0.192 HD
ATOM      6  N   UNL     1      -0.619  -5.037  -0.839  0.00  0.00    -0.171 NA
ATOM      7  O   UNL     1       1.110  -7.418   1.164  0.00  0.00    -0.423 OA
ATOM      8  C   UNL     1       1.736  -7.168   2.332  0.00  0.00    +0.201 C 
ATOM      9  C   UNL     1       2.053  -5.924   2.762  0.00  0.00    +0.110 C 
ATOM     10  C   UNL     1       1.730  -4.696   1.956  0.00  0.00    +0.145 C 
ATOM     11  C   UNL     1       2.971  -4.047   1.433  0.00  0.00    +0.001 A 
ATOM     12  C   UNL     1       3.958  -4.507   0.588  0.00  0.00    +0.040 A 
ATOM     13  C   UNL     1       4.997  -3.631   0.294  0.00  0.00    +0.127 A 
ATOM     14  C   UNL     1       5.035  -2.358   0.826  0.00  0.00    +0.034 A 
ATOM     15  C   UNL     1       4.047  -1.888   1.677  0.00  0.00    +0.026 A 
ATOM     16  C   UNL     1       2.999  -2.758   1.980  0.00  0.00    +0.038 A 
ATOM     17  N   UNL     1       1.896  -2.556   2.791  0.00  0.00    -0.284 N 
ATOM     18  C   UNL     1       1.096  -3.642   2.837  0.00  0.00    +0.238 C 
ATOM     19  O   UNL     1       0.065  -3.752   3.466  0.00  0.00    -0.274 OA
ATOM     20  H   UNL     1       1.719  -1.731   3.270  0.00  0.00    +0.155 HD
ENDROOT
BRANCH   1  25
ATOM     21  C   UNL     1      -0.017   1.503   0.011  0.00  0.00    +0.044 C 
ATOM     22  C   UNL     1       0.003  -0.004   0.003  0.00  0.00    -0.050 A 
ATOM     23  C   UNL     1      -1.187  -0.709   0.015  0.00  0.00    +0.004 A 
ATOM     24  C   UNL     1      -1.174  -2.090   0.007  0.00  0.00    +0.010 A 
ATOM     25  C   UNL     1       0.041  -2.772  -0.013  0.00  0.00    +0.003 A 
ATOM     26  C   UNL     1       1.236  -2.057  -0.025  0.00  0.00    +0.010 A 
ATOM     27  C   UNL     1       1.211  -0.677  -0.023  0.00  0.00    +0.004 A 
ENDBRANCH   1  25
BRANCH  13  28
ATOM     28  N   UNL     1       6.084  -4.072  -0.608  0.00  0.00    +0.056 N 
ATOM     29  O   UNL     1       6.063  -5.184  -1.081  0.00  0.00    -0.126 OA
ATOM     30  O   UNL     1       6.994  -3.320  -0.872  0.00  0.00    -0.126 OA
ENDBRANCH  13  28
BRANCH   8  31
ATOM     31  N   UNL     1       2.069  -8.234   3.130  0.00  0.00    -0.328 N 
ATOM     32  H   UNL     1       1.854  -9.137   2.848  0.00  0.00    +0.145 HD
ATOM     33  H   UNL     1       2.519  -8.084   3.976  0.00  0.00    +0.145 HD
ENDBRANCH   8  31
BRANCH   9  34
ATOM     34  C   UNL     1       2.716  -5.773   4.022  0.00  0.00    +0.102 C 
ATOM     35  N   UNL     1       3.243  -5.654   5.022  0.00  0.00    -0.191 NA
ENDBRANCH   9  34
TORSDOF 4
