REMARK  Name = ZINC01876591
REMARK  7 active torsions:
REMARK  status: ('A' for Active; 'I' for Inactive)
REMARK    1  A    between atoms: C_9  and  C_26
REMARK    2  A    between atoms: C_10  and  N_25
REMARK    3  A    between atoms: N_11  and  N_14
REMARK    4  A    between atoms: C_15  and  C_16
REMARK    5  A    between atoms: C_20  and  N_22
REMARK    6  A    between atoms: N_28  and  C_29
REMARK    7  A    between atoms: C_29  and  C_30
REMARK                            x       y       z     vdW  Elec       q    Type
REMARK                         _______ _______ _______ _____ _____    ______ ____
ROOT
ATOM      1  C   UNL     1      -1.323  10.969  -5.094  0.00  0.00    +0.002 A 
ATOM      2  C   UNL     1      -1.309   9.644  -5.527  0.00  0.00    +0.002 A 
ATOM      3  C   UNL     1      -1.286   8.617  -4.636  0.00  0.00    +0.030 A 
ATOM      4  C   UNL     1      -1.276   8.888  -3.255  0.00  0.00    +0.092 A 
ATOM      5  C   UNL     1      -1.289  10.236  -2.815  0.00  0.00    +0.090 A 
ATOM      6  C   UNL     1      -1.313  11.271  -3.768  0.00  0.00    +0.030 A 
ATOM      7  N   UNL     1      -1.280  10.521  -1.507  0.00  0.00    -0.241 NA
ATOM      8  C   UNL     1      -1.258   9.539  -0.628  0.00  0.00    +0.124 A 
ATOM      9  C   UNL     1      -1.243   9.473   0.843  0.00  0.00    +0.105 A 
ATOM     10  C   UNL     1      -1.227   8.124   1.178  0.00  0.00    +0.134 A 
ATOM     11  N   UNL     1      -1.222   7.354   0.052  0.00  0.00    -0.198 N 
ATOM     12  C   UNL     1      -1.243   8.146  -1.080  0.00  0.00    +0.183 A 
ATOM     13  N   UNL     1      -1.253   7.883  -2.370  0.00  0.00    -0.224 NA
ENDROOT
BRANCH   9  14
ATOM     14  C   UNL     1      -1.249  10.604   1.769  0.00  0.00    +0.250 C 
ATOM     15  O   UNL     1      -2.306  11.060   2.165  0.00  0.00    -0.270 OA
ATOM     16  N   UNL     1      -0.085  11.141   2.184  0.00  0.00    -0.307 N 
ATOM     17  H   UNL     1       0.757  10.777   1.869  0.00  0.00    +0.149 HD
BRANCH  16  18
ATOM     18  C   UNL     1      -0.091  12.274   3.112  0.00  0.00    +0.147 C 
BRANCH  18  19
ATOM     19  C   UNL     1       1.327  12.682   3.417  0.00  0.00    +0.007 A 
ATOM     20  C   UNL     1       2.115  13.576   2.772  0.00  0.00    +0.013 A 
ATOM     21  C   UNL     1       3.398  13.796   3.236  0.00  0.00    +0.008 A 
ATOM     22  C   UNL     1       3.834  13.103   4.316  0.00  0.00    +0.045 A 
ATOM     23  S   UNL     1       2.408  12.108   4.717  0.00  0.00    -0.100 S 
ENDBRANCH  18  19
ENDBRANCH  16  18
ENDBRANCH   9  14
BRANCH  10  24
ATOM     24  N   UNL     1      -1.215   7.636   2.459  0.00  0.00    -0.342 N 
ATOM     25  H   UNL     1      -1.202   6.678   2.614  0.00  0.00    +0.144 HD
ATOM     26  H   UNL     1      -1.221   8.248   3.212  0.00  0.00    +0.144 HD
ENDBRANCH  10  24
BRANCH  11  27
ATOM     27  N   UNL     1      -1.202   5.953   0.045  0.00  0.00    -0.171 NA
ATOM     28  C   UNL     1      -0.070   5.320   0.031  0.00  0.00    +0.141 C 
BRANCH  28  29
ATOM     29  C   UNL     1      -0.050   3.845   0.023  0.00  0.00    -0.003 A 
ATOM     30  C   UNL     1      -1.248   3.127   0.031  0.00  0.00    +0.009 A 
ATOM     31  C   UNL     1      -1.222   1.748   0.017  0.00  0.00    +0.003 A 
ATOM     32  C   UNL     1      -0.013   1.076   0.008  0.00  0.00    +0.033 A 
ATOM     33  C   UNL     1       1.178   1.780   0.000  0.00  0.00    +0.127 A 
ATOM     34  C   UNL     1       1.167   3.160   0.008  0.00  0.00    +0.042 A 
BRANCH  33  35
ATOM     35  N   UNL     1       2.467   1.053  -0.016  0.00  0.00    +0.056 N 
ATOM     36  O   UNL     1       2.478  -0.165  -0.023  0.00  0.00    -0.126 OA
ATOM     37  O   UNL     1       3.516   1.672  -0.023  0.00  0.00    -0.126 OA
ENDBRANCH  33  35
ENDBRANCH  28  29
ENDBRANCH  11  27
TORSDOF 7
