REMARK  Name = ZINC31773899
REMARK  8 active torsions:
REMARK  status: ('A' for Active; 'I' for Inactive)
REMARK    1  A    between atoms: C_6  and  C_7
REMARK    2  A    between atoms: C_8  and  C_30
REMARK    3  A    between atoms: C_13  and  S_15
REMARK    4  A    between atoms: S_15  and  C_16
REMARK    5  A    between atoms: C_16  and  C_17
REMARK    6  A    between atoms: N_19  and  C_20
REMARK    7  A    between atoms: C_23  and  S_26
REMARK    8  A    between atoms: S_26  and  N_29
REMARK                            x       y       z     vdW  Elec       q    Type
REMARK                         _______ _______ _______ _____ _____    ______ ____
ROOT
ATOM      1  S   UNL     1       0.135   5.329  -0.079  0.00  0.00    -0.078 S 
ENDROOT
BRANCH   1   8
ATOM      2  C   UNL     1      -0.898   1.540  -0.099  0.00  0.00    +0.096 A 
ATOM      3  C   UNL     1       0.330   0.854  -0.095  0.00  0.00    +0.142 A 
ATOM      4  C   UNL     1       1.527   1.616  -0.091  0.00  0.00    +0.270 A 
ATOM      5  O   UNL     1       2.615   1.066  -0.092  0.00  0.00    -0.266 OA
ATOM      6  N   UNL     1       1.436   2.962  -0.087  0.00  0.00    -0.301 N 
ATOM      7  H   UNL     1       2.349   3.575  -0.084  0.00  0.00    +0.171 HD
ATOM      8  C   UNL     1       0.216   3.568  -0.085  0.00  0.00    +0.170 A 
ATOM      9  N   UNL     1      -0.905   2.875  -0.087  0.00  0.00    -0.222 NA
BRANCH   2  15
ATOM     10  C   UNL     1      -3.205   1.149   0.758  0.00  0.00    +0.011 A 
ATOM     11  C   UNL     1      -4.393   0.448   0.740  0.00  0.00    +0.020 A 
ATOM     12  C   UNL     1      -4.557  -0.619  -0.128  0.00  0.00    +0.041 A 
ATOM     13  C   UNL     1      -3.534  -0.985  -0.986  0.00  0.00    +0.020 A 
ATOM     14  C   UNL     1      -2.344  -0.287  -0.981  0.00  0.00    +0.011 A 
ATOM     15  C   UNL     1      -2.172   0.789  -0.109  0.00  0.00    +0.002 A 
ATOM     16 CL   UNL     1      -6.052  -1.501  -0.139  0.00  0.00    -0.084 Cl
ENDBRANCH   2  15
BRANCH   3  17
ATOM     17  C   UNL     1       0.371  -0.578  -0.100  0.00  0.00    +0.107 C 
ATOM     18  N   UNL     1       0.403  -1.713  -0.104  0.00  0.00    -0.191 NA
ENDBRANCH   3  17
ENDBRANCH   1   8
BRANCH   1  19
ATOM     19  C   UNL     1      -1.660   5.560  -0.079  0.00  0.00    +0.173 C 
BRANCH  19  20
ATOM     20  C   UNL     1      -1.977   7.034  -0.074  0.00  0.00    +0.227 C 
ATOM     21  O   UNL     1      -1.077   7.847  -0.070  0.00  0.00    -0.275 OA
ATOM     22  N   UNL     1      -3.259   7.447  -0.073  0.00  0.00    -0.285 N 
ATOM     23  H   UNL     1      -4.074   6.714   0.017  0.00  0.00    +0.155 HD
BRANCH  22  24
ATOM     24  C   UNL     1      -3.555   8.810  -0.186  0.00  0.00    +0.034 A 
ATOM     25  C   UNL     1      -4.651   9.342   0.479  0.00  0.00    +0.025 A 
ATOM     26  C   UNL     1      -4.936  10.689   0.370  0.00  0.00    +0.030 A 
ATOM     27  C   UNL     1      -4.139  11.505  -0.411  0.00  0.00    +0.105 A 
ATOM     28  C   UNL     1      -3.050  10.978  -1.080  0.00  0.00    +0.030 A 
ATOM     29  C   UNL     1      -2.756   9.633  -0.970  0.00  0.00    +0.025 A 
BRANCH  27  30
ATOM     30  S   UNL     1      -4.511  13.222  -0.553  0.00  0.00    +0.056 S 
ATOM     31  O   UNL     1      -5.258  13.573   0.603  0.00  0.00    -0.153 OA
ATOM     32  O   UNL     1      -3.297  13.873  -0.903  0.00  0.00    -0.153 OA
BRANCH  30  33
ATOM     33  N   UNL     1      -5.530  13.396  -1.846  0.00  0.00    -0.204 NA
ATOM     34  H   UNL     1      -5.788  14.459  -1.970  0.00  0.00    +0.144 HD
ATOM     35  H   UNL     1      -6.448  12.815  -1.671  0.00  0.00    +0.144 HD
ENDBRANCH  30  33
ENDBRANCH  27  30
ENDBRANCH  22  24
ENDBRANCH  19  20
ENDBRANCH   1  19
TORSDOF 8
