REMARK  Name = ZINC36660423
REMARK  10 active torsions:
REMARK  status: ('A' for Active; 'I' for Inactive)
REMARK    1  A    between atoms: C_1  and  N_2
REMARK    2  A    between atoms: N_2  and  C_3
REMARK    3  A    between atoms: N_2  and  C_4
REMARK    4  A    between atoms: C_4  and  C_5
REMARK    5  A    between atoms: C_5  and  N_6
REMARK    6  A    between atoms: C_18  and  C_20
REMARK    7  A    between atoms: N_25  and  S_26
REMARK    8  A    between atoms: S_26  and  C_29
REMARK    9  A    between atoms: C_32  and  O_35
REMARK   10  A    between atoms: O_35  and  C_36
REMARK                            x       y       z     vdW  Elec       q    Type
REMARK                         _______ _______ _______ _____ _____    ______ ____
ROOT
ATOM      1  N   UNL     1       3.227  -0.474  -2.362  0.00  0.00    -0.251 N 
ATOM      2  C   UNL     1       2.910  -0.056  -1.079  0.00  0.00    +0.168 A 
ATOM      3  N   UNL     1       2.417   1.095  -0.687  0.00  0.00    -0.221 NA
ATOM      4  C   UNL     1       2.154   1.369   0.610  0.00  0.00    +0.116 A 
ATOM      5  C   UNL     1       1.626   2.561   1.162  0.00  0.00    +0.152 A 
ATOM      6  C   UNL     1       1.420   2.677   2.513  0.00  0.00    +0.079 A 
ATOM      7  C   UNL     1       1.719   1.636   3.384  0.00  0.00    +0.127 A 
ATOM      8  C   UNL     1       2.236   0.457   2.877  0.00  0.00    +0.055 A 
ATOM      9  C   UNL     1       2.446   0.333   1.525  0.00  0.00    +0.046 A 
ATOM     10  S   UNL     1       3.062  -0.949   0.461  0.00  0.00    -0.052 S 
ATOM     11  F   UNL     1       1.508   1.774   4.711  0.00  0.00    -0.205 F 
ATOM     12  F   UNL     1       1.323   3.597   0.349  0.00  0.00    -0.203 F 
ATOM     13  C   UNL     1       3.849  -1.655  -2.551  0.00  0.00    +0.240 C 
ATOM     14  O   UNL     1       4.062  -2.054  -3.676  0.00  0.00    -0.273 OA
ENDROOT
BRANCH  13  15
ATOM     15  C   UNL     1       4.279  -2.479  -1.365  0.00  0.00    +0.166 C 
ATOM     16  C   UNL     1       3.097  -3.335  -0.864  0.00  0.00    +0.031 C 
ATOM     17  C   UNL     1       3.355  -4.710  -1.535  0.00  0.00    +0.019 C 
ATOM     18  C   UNL     1       4.902  -4.785  -1.507  0.00  0.00    +0.110 C 
ATOM     19  N   UNL     1       5.354  -3.401  -1.760  0.00  0.00    -0.165 NA
BRANCH  19  20
ATOM     20  S   UNL     1       6.822  -2.961  -2.386  0.00  0.00    +0.062 S 
ATOM     21  O   UNL     1       7.301  -4.077  -3.123  0.00  0.00    -0.153 OA
ATOM     22  O   UNL     1       6.645  -1.679  -2.975  0.00  0.00    -0.153 OA
BRANCH  20  23
ATOM     23  C   UNL     1       7.923  -2.743  -1.028  0.00  0.00    +0.106 A 
ATOM     24  C   UNL     1       8.035  -1.506  -0.422  0.00  0.00    +0.032 A 
ATOM     25  C   UNL     1       8.898  -1.333   0.643  0.00  0.00    +0.047 A 
ATOM     26  C   UNL     1       9.653  -2.402   1.103  0.00  0.00    +0.120 A 
ATOM     27  C   UNL     1       9.539  -3.642   0.493  0.00  0.00    +0.047 A 
ATOM     28  C   UNL     1       8.671  -3.812  -0.568  0.00  0.00    +0.032 A 
BRANCH  26  29
ATOM     29  O   UNL     1      10.503  -2.234   2.150  0.00  0.00    -0.495 OA
ATOM     30  C   UNL     1      11.249  -3.378   2.571  0.00  0.00    +0.277 C 
ENDBRANCH  26  29
ENDBRANCH  20  23
ENDBRANCH  19  20
ENDBRANCH  13  15
BRANCH   1  31
ATOM     31  C   UNL     1       2.885   0.366  -3.512  0.00  0.00    +0.097 C 
BRANCH  31  32
ATOM     32  C   UNL     1       4.087   1.238  -3.881  0.00  0.00    -0.060 C 
BRANCH  32  34
ATOM     33  C   UNL     1       2.691   2.931  -4.851  0.00  0.00    -0.097 C 
ATOM     34  N   UNL     1       3.789   1.990  -5.108  0.00  0.00    +0.377 N 
ATOM     35  C   UNL     1       4.983   2.734  -5.529  0.00  0.00    -0.097 C 
ATOM     36  H   UNL     1       3.518   1.348  -5.838  0.00  0.00    -0.083 HD
ENDBRANCH  32  34
ENDBRANCH  31  32
ENDBRANCH   1  31
TORSDOF 7
