REMARK  Name = ZINC57824782
REMARK  5 active torsions:
REMARK  status: ('A' for Active; 'I' for Inactive)
REMARK    1  A    between atoms: C_1  and  C_2
REMARK    2  A    between atoms: C_3  and  C_21
REMARK    3  A    between atoms: C_5  and  N_12
REMARK    4  A    between atoms: C_7  and  C_11
REMARK    5  A    between atoms: C_16  and  C_18
REMARK                            x       y       z     vdW  Elec       q    Type
REMARK                         _______ _______ _______ _____ _____    ______ ____
ROOT
ATOM      1  C   UNL     1      -0.102   1.183   1.494  0.00  0.00    +0.052 C 
ATOM      2  C   UNL     1      -0.049  -0.201   0.898  0.00  0.00    -0.003 A 
ATOM      3  C   UNL     1      -1.077  -0.958   0.448  0.00  0.00    +0.005 A 
ATOM      4  C   UNL     1      -0.789  -2.282  -0.095  0.00  0.00    +0.054 A 
ATOM      5  C   UNL     1      -1.669  -3.252  -0.620  0.00  0.00    +0.118 A 
ATOM      6  N   UNL     1      -1.183  -4.394  -1.059  0.00  0.00    -0.218 NA
ATOM      7  C   UNL     1       0.108  -4.670  -1.028  0.00  0.00    +0.129 A 
ATOM      8  N   UNL     1       0.983  -3.806  -0.549  0.00  0.00    -0.225 NA
ATOM      9  C   UNL     1       0.579  -2.641  -0.090  0.00  0.00    +0.114 A 
ATOM     10  S   UNL     1       1.382  -1.225   0.613  0.00  0.00    -0.073 S 
ATOM     11  C   UNL     1       0.592  -5.999  -1.549  0.00  0.00    +0.088 C 
ENDROOT
BRANCH   3  12
ATOM     12  C   UNL     1      -2.469  -0.452   0.505  0.00  0.00    -0.016 A 
ATOM     13  C   UNL     1      -3.358  -0.957   1.453  0.00  0.00    +0.011 A 
ATOM     14  C   UNL     1      -4.653  -0.483   1.502  0.00  0.00    +0.039 A 
ATOM     15  C   UNL     1      -5.070   0.493   0.612  0.00  0.00    +0.123 A 
ATOM     16  C   UNL     1      -4.190   0.998  -0.331  0.00  0.00    +0.039 A 
ATOM     17  C   UNL     1      -2.891   0.535  -0.385  0.00  0.00    +0.011 A 
ATOM     18  F   UNL     1      -6.339   0.953   0.664  0.00  0.00    -0.205 F 
ENDBRANCH   3  12
BRANCH   5  19
ATOM     19  N   UNL     1      -3.044  -3.003  -0.672  0.00  0.00    -0.368 NA
ATOM     20  C   UNL     1      -3.731  -3.781   0.381  0.00  0.00    +0.087 C 
ATOM     21  C   UNL     1      -5.078  -4.205  -0.256  0.00  0.00    +0.020 C 
ATOM     22  C   UNL     1      -4.656  -4.487  -1.722  0.00  0.00    +0.034 C 
ATOM     23  C   UNL     1      -3.573  -3.418  -1.984  0.00  0.00    +0.172 C 
ATOM     24  H   UNL     1      -3.217  -2.019  -0.532  0.00  0.00    +0.128 HD
BRANCH  23  25
ATOM     25  C   UNL     1      -4.182  -2.234  -2.690  0.00  0.00    +0.375 C 
ATOM     26  O   UNL     1      -4.511  -2.325  -3.860  0.00  0.00    -0.244 OA
ATOM     27  O   UNL     1      -4.344  -1.185  -2.090  0.00  0.00    -0.244 OA
ENDBRANCH  23  25
ENDBRANCH   5  19
TORSDOF 3
