REMARK  Name = ZINC64623227
REMARK  9 active torsions:
REMARK  status: ('A' for Active; 'I' for Inactive)
REMARK    1  A    between atoms: C_1  and  C_2
REMARK    2  A    between atoms: C_5  and  C_8
REMARK    3  A    between atoms: C_15  and  O_20
REMARK    4  A    between atoms: O_20  and  C_21
REMARK    5  A    between atoms: N_27  and  C_28
REMARK    6  A    between atoms: C_31  and  O_36
REMARK    7  A    between atoms: C_32  and  O_34
REMARK    8  A    between atoms: O_34  and  C_35
REMARK    9  A    between atoms: O_36  and  C_37
REMARK                            x       y       z     vdW  Elec       q    Type
REMARK                         _______ _______ _______ _____ _____    ______ ____
ROOT
ATOM      1  C   UNL     1      -0.814  -4.622  -0.418  0.00  0.00    +0.134 C 
ATOM      2  C   UNL     1       0.695  -4.846  -0.570  0.00  0.00    +0.131 C 
ATOM      3  C   UNL     1       0.981  -6.249  -0.051  0.00  0.00    -0.035 C 
ATOM      4  C   UNL     1       1.587  -6.897  -1.038  0.00  0.00    +0.003 A 
ATOM      5  C   UNL     1       2.162  -8.249  -1.118  0.00  0.00    +0.055 A 
ATOM      6  C   UNL     1       2.711  -8.610  -2.311  0.00  0.00    +0.121 A 
ATOM      7  C   UNL     1       2.753  -7.776  -3.438  0.00  0.00    +0.047 A 
ATOM      8  C   UNL     1       2.259  -6.512  -3.473  0.00  0.00    +0.029 A 
ATOM      9  C   UNL     1       1.642  -6.007  -2.239  0.00  0.00    +0.043 A 
ATOM     10  N   UNL     1       1.109  -4.829  -1.974  0.00  0.00    -0.375 N 
ATOM     11  C   UNL     1       0.535  -6.715   1.313  0.00  0.00    +0.052 C 
ATOM     12  C   UNL     1      -0.963  -6.378   1.429  0.00  0.00    +0.114 C 
ATOM     13  N   UNL     1      -1.193  -5.011   0.950  0.00  0.00    -0.276 N 
ATOM     14  C   UNL     1      -1.756  -4.102   1.770  0.00  0.00    +0.307 C 
ATOM     15  O   UNL     1      -2.117  -3.027   1.331  0.00  0.00    -0.252 OA
ATOM     16  N   UNL     1      -1.919  -4.385   3.078  0.00  0.00    -0.269 N 
ATOM     17  H   UNL     1      -1.546  -5.200   3.448  0.00  0.00    +0.156 HD
ATOM     18  H   UNL     1       1.001  -4.087  -2.589  0.00  0.00    +0.160 HD
ENDROOT
BRANCH   1  23
ATOM     19  C   UNL     1      -2.059   0.954  -1.285  0.00  0.00    +0.044 C 
ATOM     20  C   UNL     1      -1.735  -0.500  -1.059  0.00  0.00    -0.050 A 
ATOM     21  C   UNL     1      -0.682  -0.854  -0.235  0.00  0.00    +0.004 A 
ATOM     22  C   UNL     1      -0.384  -2.187  -0.028  0.00  0.00    +0.006 A 
ATOM     23  C   UNL     1      -1.139  -3.168  -0.643  0.00  0.00    -0.025 A 
ATOM     24  C   UNL     1      -2.192  -2.815  -1.466  0.00  0.00    +0.006 A 
ATOM     25  C   UNL     1      -2.493  -1.481  -1.670  0.00  0.00    +0.004 A 
ENDBRANCH   1  23
BRANCH  16  26
ATOM     26  C   UNL     1      -2.627  -3.500   3.903  0.00  0.00    +0.038 A 
ATOM     27  C   UNL     1      -2.611  -2.138   3.635  0.00  0.00    +0.027 A 
ATOM     28  C   UNL     1      -3.308  -1.264   4.447  0.00  0.00    +0.051 A 
ATOM     29  C   UNL     1      -4.025  -1.746   5.531  0.00  0.00    +0.162 A 
ATOM     30  C   UNL     1      -4.043  -3.111   5.802  0.00  0.00    +0.163 A 
ATOM     31  C   UNL     1      -3.349  -3.987   4.984  0.00  0.00    +0.072 A 
BRANCH  30  32
ATOM     32  O   UNL     1      -4.746  -3.584   6.865  0.00  0.00    -0.491 OA
ATOM     33  C   UNL     1      -4.720  -4.996   7.083  0.00  0.00    +0.277 C 
ENDBRANCH  30  32
BRANCH  29  34
ATOM     34  O   UNL     1      -4.711  -0.884   6.330  0.00  0.00    -0.491 OA
ATOM     35  C   UNL     1      -4.648   0.503   5.993  0.00  0.00    +0.277 C 
ENDBRANCH  29  34
ENDBRANCH  16  26
BRANCH   6  36
ATOM     36  O   UNL     1       3.250  -9.853  -2.416  0.00  0.00    -0.495 OA
ATOM     37  C   UNL     1       3.820 -10.208  -3.677  0.00  0.00    +0.277 C 
ENDBRANCH   6  36
TORSDOF 5
