REMARK  Name = ZINC45487084
REMARK  11 active torsions:
REMARK  status: ('A' for Active; 'I' for Inactive)
REMARK    1  A    between atoms: C_1  and  C_2
REMARK    2  A    between atoms: C_8  and  N_10
REMARK    3  A    between atoms: N_10  and  S_11
REMARK    4  A    between atoms: S_11  and  C_14
REMARK    5  A    between atoms: C_16  and  C_22
REMARK    6  A    between atoms: C_19  and  O_20
REMARK    7  A    between atoms: O_20  and  C_21
REMARK    8  A    between atoms: C_22  and  O_24
REMARK    9  A    between atoms: O_24  and  C_25
REMARK   10  A    between atoms: C_25  and  C_26
REMARK   11  A    between atoms: C_28  and  C_31
REMARK                            x       y       z     vdW  Elec       q    Type
REMARK                         _______ _______ _______ _____ _____    ______ ____
ROOT
ATOM      1  C   UNL     1       1.919   1.837   3.213  0.00  0.00    +0.147 A 
ATOM      2  C   UNL     1       1.786   3.017   3.911  0.00  0.00    +0.047 A 
ATOM      3  C   UNL     1       2.502   4.148   3.509  0.00  0.00    +0.061 A 
ATOM      4  C   UNL     1       3.350   4.077   2.400  0.00  0.00    +0.018 A 
ATOM      5  C   UNL     1       3.477   2.893   1.708  0.00  0.00    +0.048 A 
ATOM      6  C   UNL     1       2.767   1.769   2.115  0.00  0.00    +0.146 A 
ENDROOT
BRANCH   1   7
ATOM      7  S   UNL     1       1.017   0.410   3.719  0.00  0.00    +0.062 S 
ATOM      8  O   UNL     1       0.226   0.802   4.832  0.00  0.00    -0.153 OA
ATOM      9  O   UNL     1       1.953  -0.658   3.787  0.00  0.00    -0.153 OA
BRANCH   7  10
ATOM     10  N   UNL     1      -0.037   0.038   2.497  0.00  0.00    -0.187 NA
ATOM     11  H   UNL     1       0.064  -0.792   2.005  0.00  0.00    +0.148 HD
BRANCH  10  18
ATOM     12  C   UNL     1      -2.798  -0.723   2.925  0.00  0.00    +0.009 C 
ATOM     13  C   UNL     1      -2.365   0.166   1.758  0.00  0.00    +0.005 C 
ATOM     14  C   UNL     1      -3.497   1.132   1.405  0.00  0.00    +0.005 C 
ATOM     15  C   UNL     1      -3.064   2.021   0.237  0.00  0.00    +0.000 C 
ATOM     16  C   UNL     1      -1.820   2.818   0.637  0.00  0.00    +0.002 C 
ATOM     17  C   UNL     1      -0.688   1.852   0.991  0.00  0.00    +0.020 C 
ATOM     18  C   UNL     1      -1.121   0.963   2.158  0.00  0.00    +0.079 C 
ENDBRANCH  10  18
ENDBRANCH   7  10
ENDBRANCH   1   7
BRANCH   6  19
ATOM     19  O   UNL     1       2.899   0.603   1.433  0.00  0.00    -0.493 OA
ATOM     20  C   UNL     1       3.788   0.602   0.314  0.00  0.00    +0.277 C 
ENDBRANCH   6  19
BRANCH   3  21
ATOM     21  C   UNL     1       2.362   5.414   4.253  0.00  0.00    +0.340 C 
ATOM     22  O   UNL     1       1.624   5.474   5.216  0.00  0.00    -0.245 OA
BRANCH  21  23
ATOM     23  O   UNL     1       3.053   6.503   3.864  0.00  0.00    -0.451 OA
BRANCH  23  24
ATOM     24  C   UNL     1       2.869   7.696   4.630  0.00  0.00    +0.331 C 
BRANCH  24  25
ATOM     25  C   UNL     1       3.716   8.800   4.051  0.00  0.00    +0.265 A 
ATOM     26  N   UNL     1       3.341   9.643   3.132  0.00  0.00    -0.188 NA
ATOM     27  C   UNL     1       4.345  10.494   2.851  0.00  0.00    +0.203 A 
ATOM     28  N   UNL     1       5.375  10.189   3.602  0.00  0.00    -0.056 NA
ATOM     29  O   UNL     1       4.977   9.083   4.399  0.00  0.00    -0.334 OA
BRANCH  27  30
ATOM     30  C   UNL     1       4.294  11.593   1.857  0.00  0.00    +0.029 A 
ATOM     31  C   UNL     1       5.400  12.415   1.641  0.00  0.00    +0.019 A 
ATOM     32  C   UNL     1       5.253  13.388   0.714  0.00  0.00    +0.046 A 
ATOM     33  S   UNL     1       3.577  13.137   0.162  0.00  0.00    -0.104 S 
ATOM     34  C   UNL     1       3.168  11.824   1.126  0.00  0.00    +0.057 A 
ENDBRANCH  27  30
ENDBRANCH  24  25
ENDBRANCH  23  24
ENDBRANCH  21  23
ENDBRANCH   3  21
TORSDOF 9
