REMARK  Name = ZINC01413005
REMARK  7 active torsions:
REMARK  status: ('A' for Active; 'I' for Inactive)
REMARK    1  A    between atoms: C_1  and  O_2
REMARK    2  A    between atoms: O_2  and  C_3
REMARK    3  A    between atoms: C_6  and  C_11
REMARK    4  A    between atoms: C_8  and  O_9
REMARK    5  A    between atoms: O_9  and  C_10
REMARK    6  A    between atoms: C_16  and  C_33
REMARK    7  A    between atoms: C_26  and  C_28
REMARK                            x       y       z     vdW  Elec       q    Type
REMARK                         _______ _______ _______ _____ _____    ______ ____
ROOT
ATOM      1  C   UNL     1       0.960  -1.866  -3.758  0.00  0.00    +0.032 C 
ATOM      2  C   UNL     1       1.866  -0.695  -3.382  0.00  0.00    +0.059 C 
ATOM      3  C   UNL     1       1.276   0.054  -2.198  0.00  0.00    +0.017 C 
ATOM      4  C   UNL     1       0.596  -0.609  -1.250  0.00  0.00    +0.038 C 
ATOM      5  C   UNL     1       0.002  -0.004   0.002  0.00  0.00    +0.153 C 
ATOM      6  N   UNL     1      -0.018   1.443   0.010  0.00  0.00    -0.253 N 
ATOM      7  C   UNL     1       1.165   2.178   0.003  0.00  0.00    +0.059 A 
ATOM      8  C   UNL     1       1.540   2.952   1.091  0.00  0.00    +0.025 A 
ATOM      9  C   UNL     1       2.751   3.620   1.068  0.00  0.00    +0.002 A 
ATOM     10  C   UNL     1       3.588   3.518  -0.029  0.00  0.00    +0.002 A 
ATOM     11  C   UNL     1       3.207   2.765  -1.126  0.00  0.00    +0.025 A 
ATOM     12  C   UNL     1       1.986   2.116  -1.113  0.00  0.00    +0.053 A 
ATOM     13  N   UNL     1       1.515   1.391  -2.204  0.00  0.00    -0.316 N 
ATOM     14  C   UNL     1      -1.200   2.090   0.019  0.00  0.00    +0.258 C 
ATOM     15  O   UNL     1      -2.240   1.458   0.021  0.00  0.00    -0.269 OA
ATOM     16  C   UNL     1       0.376  -2.001  -1.369  0.00  0.00    +0.163 C 
ATOM     17  O   UNL     1      -0.234  -2.575  -0.488  0.00  0.00    -0.292 OA
ATOM     18  C   UNL     1       0.867  -2.795  -2.542  0.00  0.00    +0.088 C 
ATOM     19  H   UNL     1       1.346   1.875  -3.027  0.00  0.00    +0.152 HD
ENDROOT
BRANCH   1  23
ATOM     20  C   UNL     1       2.633  -3.984  -7.075  0.00  0.00    +0.161 A 
ATOM     21  C   UNL     1       3.344  -3.871  -5.892  0.00  0.00    +0.049 A 
ATOM     22  C   UNL     1       2.801  -3.186  -4.821  0.00  0.00    +0.008 A 
ATOM     23  C   UNL     1       1.548  -2.612  -4.928  0.00  0.00    -0.040 A 
ATOM     24  C   UNL     1       0.830  -2.725  -6.105  0.00  0.00    +0.053 A 
ATOM     25  C   UNL     1       1.372  -3.406  -7.183  0.00  0.00    +0.162 A 
BRANCH  20  27
ATOM     26  C   UNL     1       4.465  -5.225  -7.947  0.00  0.00    +0.277 C 
ATOM     27  O   UNL     1       3.166  -4.658  -8.129  0.00  0.00    -0.491 OA
ENDBRANCH  20  27
BRANCH  25  28
ATOM     28  O   UNL     1       0.670  -3.514  -8.343  0.00  0.00    -0.491 OA
ATOM     29  C   UNL     1      -0.618  -2.896  -8.382  0.00  0.00    +0.277 C 
ENDBRANCH  25  28
ENDBRANCH   1  23
BRANCH  14  30
ATOM     30  C   UNL     1      -1.233   3.555   0.027  0.00  0.00    +0.074 A 
ATOM     31  C   UNL     1      -2.329   4.404   0.037  0.00  0.00    +0.021 A 
ATOM     32  C   UNL     1      -2.075   5.753   0.044  0.00  0.00    +0.008 A 
ATOM     33  C   UNL     1      -0.787   6.186   0.040  0.00  0.00    +0.046 A 
ATOM     34  S   UNL     1       0.126   4.711   0.035  0.00  0.00    -0.092 S 
ENDBRANCH  14  30
BRANCH   5  35
ATOM     35  C   UNL     1       0.803  -0.479   1.187  0.00  0.00    +0.015 A 
ATOM     36  C   UNL     1       0.562  -1.523   2.017  0.00  0.00    +0.013 A 
ATOM     37  C   UNL     1       1.445  -1.775   3.050  0.00  0.00    +0.008 A 
ATOM     38  C   UNL     1       2.525  -0.971   3.203  0.00  0.00    +0.045 A 
ATOM     39  S   UNL     1       2.320   0.183   1.857  0.00  0.00    -0.099 S 
ENDBRANCH   5  35
TORSDOF 5
