REMARK  Name = ZINC64623230
REMARK  9 active torsions:
REMARK  status: ('A' for Active; 'I' for Inactive)
REMARK    1  A    between atoms: C_1  and  C_2
REMARK    2  A    between atoms: C_5  and  C_8
REMARK    3  A    between atoms: C_15  and  O_20
REMARK    4  A    between atoms: O_20  and  C_21
REMARK    5  A    between atoms: N_27  and  C_28
REMARK    6  A    between atoms: C_30  and  O_36
REMARK    7  A    between atoms: C_33  and  O_34
REMARK    8  A    between atoms: O_34  and  C_35
REMARK    9  A    between atoms: O_36  and  C_37
REMARK                            x       y       z     vdW  Elec       q    Type
REMARK                         _______ _______ _______ _____ _____    ______ ____
ROOT
ATOM      1  C   UNL     1       0.609  -3.505   0.165  0.00  0.00    +0.134 C 
ATOM      2  C   UNL     1      -0.862  -3.932   0.102  0.00  0.00    +0.131 C 
ATOM      3  C   UNL     1      -1.332  -4.084   1.543  0.00  0.00    -0.035 C 
ATOM      4  C   UNL     1      -2.390  -3.293   1.678  0.00  0.00    +0.003 A 
ATOM      5  C   UNL     1      -3.308  -3.064   2.804  0.00  0.00    +0.055 A 
ATOM      6  C   UNL     1      -4.303  -2.157   2.606  0.00  0.00    +0.121 A 
ATOM      7  C   UNL     1      -4.491  -1.448   1.410  0.00  0.00    +0.047 A 
ATOM      8  C   UNL     1      -3.708  -1.585   0.310  0.00  0.00    +0.029 A 
ATOM      9  C   UNL     1      -2.598  -2.543   0.401  0.00  0.00    +0.043 A 
ATOM     10  N   UNL     1      -1.703  -2.897  -0.502  0.00  0.00    -0.375 N 
ATOM     11  C   UNL     1      -0.600  -4.938   2.549  0.00  0.00    +0.052 C 
ATOM     12  C   UNL     1       0.880  -4.519   2.492  0.00  0.00    +0.114 C 
ATOM     13  N   UNL     1       1.304  -4.413   1.091  0.00  0.00    -0.276 N 
ATOM     14  C   UNL     1       2.338  -5.156   0.647  0.00  0.00    +0.307 C 
ATOM     15  O   UNL     1       2.753  -5.005  -0.486  0.00  0.00    -0.252 OA
ATOM     16  N   UNL     1       2.912  -6.065   1.459  0.00  0.00    -0.266 N 
ATOM     17  H   UNL     1       2.541  -6.232   2.340  0.00  0.00    +0.156 HD
ATOM     18  H   UNL     1      -1.607  -2.541  -1.400  0.00  0.00    +0.160 HD
ENDROOT
BRANCH   1  23
ATOM     19  C   UNL     1       0.987   1.927   2.098  0.00  0.00    +0.044 C 
ATOM     20  C   UNL     1       0.888   0.511   1.594  0.00  0.00    -0.050 A 
ATOM     21  C   UNL     1       1.384   0.185   0.345  0.00  0.00    +0.004 A 
ATOM     22  C   UNL     1       1.294  -1.114  -0.117  0.00  0.00    +0.006 A 
ATOM     23  C   UNL     1       0.708  -2.089   0.670  0.00  0.00    -0.025 A 
ATOM     24  C   UNL     1       0.213  -1.763   1.919  0.00  0.00    +0.006 A 
ATOM     25  C   UNL     1       0.307  -0.465   2.383  0.00  0.00    +0.004 A 
ENDBRANCH   1  23
BRANCH  16  26
ATOM     26  C   UNL     1       4.045  -6.771   1.031  0.00  0.00    +0.080 A 
ATOM     27  C   UNL     1       4.250  -7.002  -0.321  0.00  0.00    +0.072 A 
ATOM     28  C   UNL     1       5.372  -7.699  -0.741  0.00  0.00    +0.122 A 
ATOM     29  C   UNL     1       6.288  -8.166   0.190  0.00  0.00    +0.049 A 
ATOM     30  C   UNL     1       6.086  -7.937   1.538  0.00  0.00    +0.051 A 
ATOM     31  C   UNL     1       4.970  -7.236   1.963  0.00  0.00    +0.141 A 
BRANCH  31  32
ATOM     32  O   UNL     1       4.775  -7.006   3.290  0.00  0.00    -0.493 OA
ATOM     33  C   UNL     1       5.764  -7.511   4.188  0.00  0.00    +0.277 C 
ENDBRANCH  31  32
BRANCH  28  34
ATOM     34  O   UNL     1       5.573  -7.927  -2.066  0.00  0.00    -0.495 OA
ATOM     35  C   UNL     1       6.750  -8.652  -2.428  0.00  0.00    +0.277 C 
ENDBRANCH  28  34
ENDBRANCH  16  26
BRANCH   6  36
ATOM     36  O   UNL     1      -5.167  -1.923   3.629  0.00  0.00    -0.495 OA
ATOM     37  C   UNL     1      -6.204  -0.967   3.397  0.00  0.00    +0.277 C 
ENDBRANCH   6  36
TORSDOF 5
