REMARK  Name = ZINC04390203
REMARK  5 active torsions:
REMARK  status: ('A' for Active; 'I' for Inactive)
REMARK    1  A    between atoms: C_6  and  C_7
REMARK    2  A    between atoms: C_7  and  O_8
REMARK    3  A    between atoms: O_8  and  N_9
REMARK    4  A    between atoms: C_10  and  C_11
REMARK    5  A    between atoms: C_14  and  N_18
REMARK                            x       y       z     vdW  Elec       q    Type
REMARK                         _______ _______ _______ _____ _____    ______ ____
ROOT
ATOM      1  N   UNL     1      -2.929  -1.733  -1.437  0.00  0.00    -0.069 NA
ATOM      2  C   UNL     1      -3.422  -2.013  -2.609  0.00  0.00    +0.163 C 
ATOM      3  N   UNL     1      -2.759  -1.605  -3.754  0.00  0.00    -0.340 N 
ATOM      4  H   UNL     1      -1.927  -1.111  -3.683  0.00  0.00    +0.144 HD
ATOM      5  H   UNL     1      -3.126  -1.814  -4.628  0.00  0.00    +0.144 HD
ENDROOT
BRANCH   2   6
ATOM      6  C   UNL     1      -4.690  -2.766  -2.717  0.00  0.00    +0.021 A 
ATOM      7  C   UNL     1      -5.362  -3.173  -1.564  0.00  0.00    +0.033 A 
ATOM      8  C   UNL     1      -6.544  -3.875  -1.667  0.00  0.00    +0.064 A 
ATOM      9  C   UNL     1      -7.066  -4.179  -2.920  0.00  0.00    +0.062 A 
ATOM     10  C   UNL     1      -6.398  -3.776  -4.072  0.00  0.00    +0.064 A 
ATOM     11  C   UNL     1      -5.219  -3.067  -3.974  0.00  0.00    +0.033 A 
ATOM     12 CL   UNL     1      -7.052  -4.158  -5.634  0.00  0.00    -0.082 Cl
ATOM     13 CL   UNL     1      -7.381  -4.381  -0.233  0.00  0.00    -0.082 Cl
BRANCH   9  14
ATOM     14  N   UNL     1      -8.262  -4.891  -3.022  0.00  0.00    -0.356 N 
ATOM     15  H   UNL     1      -8.729  -5.173  -2.220  0.00  0.00    +0.142 HD
ATOM     16  H   UNL     1      -8.627  -5.103  -3.896  0.00  0.00    +0.142 HD
ENDBRANCH   9  14
ENDBRANCH   2   6
BRANCH   1  17
ATOM     17  O   UNL     1      -1.715  -1.011  -1.334  0.00  0.00    -0.388 OA
BRANCH  17  18
ATOM     18  C   UNL     1      -1.293  -0.775   0.011  0.00  0.00    +0.298 C 
BRANCH  18  24
ATOM     19  C   UNL     1      -0.017   1.378   0.010  0.00  0.00    +0.008 A 
ATOM     20  C   UNL     1       1.171   2.086   0.002  0.00  0.00    +0.020 A 
ATOM     21  C   UNL     1       2.378   1.410  -0.013  0.00  0.00    +0.041 A 
ATOM     22  C   UNL     1       2.396   0.027  -0.021  0.00  0.00    +0.020 A 
ATOM     23  C   UNL     1       1.208  -0.679  -0.013  0.00  0.00    +0.008 A 
ATOM     24  C   UNL     1       0.002  -0.004   0.002  0.00  0.00    -0.008 A 
ATOM     25 CL   UNL     1       3.870   2.298  -0.023  0.00  0.00    -0.084 Cl
ENDBRANCH  18  24
ENDBRANCH  17  18
ENDBRANCH   1  17
TORSDOF 5
