REMARK  Name = ZINC21247509
REMARK  9 active torsions:
REMARK  status: ('A' for Active; 'I' for Inactive)
REMARK    1  A    between atoms: C_1  and  C_2
REMARK    2  A    between atoms: C_2  and  C_3
REMARK    3  A    between atoms: C_2  and  C_4
REMARK    4  A    between atoms: C_4  and  O_5
REMARK    5  A    between atoms: O_5  and  C_6
REMARK    6  A    between atoms: C_9  and  C_12
REMARK    7  A    between atoms: C_17  and  C_27
REMARK    8  A    between atoms: C_30  and  O_36
REMARK    9  A    between atoms: C_31  and  N_33
REMARK                            x       y       z     vdW  Elec       q    Type
REMARK                         _______ _______ _______ _____ _____    ______ ____
ROOT
ATOM      1  C   UNL     1       7.412  -0.294  -0.190  0.00  0.00    +0.032 C 
ATOM      2  C   UNL     1       7.929   0.820  -1.098  0.00  0.00    +0.059 C 
ATOM      3  C   UNL     1       6.915   1.950  -1.162  0.00  0.00    +0.017 C 
ATOM      4  C   UNL     1       6.135   2.228  -0.108  0.00  0.00    +0.036 C 
ATOM      5  C   UNL     1       5.102   3.325  -0.029  0.00  0.00    +0.136 C 
ATOM      6  N   UNL     1       5.158   4.280  -1.115  0.00  0.00    -0.331 N 
ATOM      7  C   UNL     1       4.889   3.892  -2.426  0.00  0.00    +0.049 A 
ATOM      8  C   UNL     1       3.795   4.385  -3.119  0.00  0.00    +0.025 A 
ATOM      9  C   UNL     1       3.543   3.933  -4.403  0.00  0.00    +0.002 A 
ATOM     10  C   UNL     1       4.372   2.994  -4.990  0.00  0.00    +0.002 A 
ATOM     11  C   UNL     1       5.476   2.513  -4.307  0.00  0.00    +0.025 A 
ATOM     12  C   UNL     1       5.742   2.981  -3.032  0.00  0.00    +0.052 A 
ATOM     13  N   UNL     1       6.893   2.630  -2.337  0.00  0.00    -0.316 N 
ATOM     14  C   UNL     1       6.239   1.459   1.079  0.00  0.00    +0.163 C 
ATOM     15  O   UNL     1       5.534   1.743   2.028  0.00  0.00    -0.292 OA
ATOM     16  C   UNL     1       7.188   0.305   1.204  0.00  0.00    +0.088 C 
ATOM     17  H   UNL     1       5.415   5.330  -0.911  0.00  0.00    +0.147 HD
ATOM     18  H   UNL     1       7.836   2.945  -2.808  0.00  0.00    +0.152 HD
ENDROOT
BRANCH   1  22
ATOM     19  C   UNL     1      10.300  -3.437   0.032  0.00  0.00    +0.121 A 
ATOM     20  C   UNL     1       9.027  -3.696  -0.456  0.00  0.00    +0.046 A 
ATOM     21  C   UNL     1       8.095  -2.678  -0.526  0.00  0.00    +0.007 A 
ATOM     22  C   UNL     1       8.430  -1.403  -0.111  0.00  0.00    -0.043 A 
ATOM     23  C   UNL     1       9.700  -1.141   0.370  0.00  0.00    +0.007 A 
ATOM     24  C   UNL     1      10.633  -2.156   0.448  0.00  0.00    +0.046 A 
BRANCH  19  25
ATOM     25  O   UNL     1      11.218  -4.436   0.103  0.00  0.00    -0.492 OA
BRANCH  25  26
ATOM     26  C   UNL     1      12.508  -4.097   0.616  0.00  0.00    +0.232 C 
BRANCH  26  28
ATOM     27  C   UNL     1      14.814  -4.954   1.050  0.00  0.00    +0.010 C 
ATOM     28  C   UNL     1      13.398  -5.341   0.620  0.00  0.00    +0.020 C 
ATOM     29  C   UNL     1      12.831  -6.371   1.599  0.00  0.00    +0.010 C 
ENDBRANCH  26  28
ENDBRANCH  25  26
ENDBRANCH  19  25
ENDBRANCH   1  22
BRANCH   5  30
ATOM     30  C   UNL     1       3.734   2.693  -0.019  0.00  0.00    -0.020 A 
ATOM     31  C   UNL     1       3.290   1.991  -1.125  0.00  0.00    +0.009 A 
ATOM     32  C   UNL     1       2.037   1.411  -1.119  0.00  0.00    +0.048 A 
ATOM     33  C   UNL     1       1.223   1.532  -0.001  0.00  0.00    +0.147 A 
ATOM     34  C   UNL     1       1.669   2.241   1.105  0.00  0.00    +0.168 A 
ATOM     35  C   UNL     1       2.925   2.816   1.095  0.00  0.00    +0.042 A 
BRANCH  34  36
ATOM     36  N   UNL     1       0.801   2.377   2.296  0.00  0.00    +0.060 N 
ATOM     37  O   UNL     1       1.193   3.000   3.267  0.00  0.00    -0.126 OA
ATOM     38  O   UNL     1      -0.305   1.867   2.305  0.00  0.00    -0.126 OA
ENDBRANCH  34  36
BRANCH  33  39
ATOM     39  O   UNL     1      -0.011   0.963   0.007  0.00  0.00    -0.504 OA
ATOM     40  H   UNL     1      -0.655   1.060   0.893  0.00  0.00    +0.292 HD
ENDBRANCH  33  39
ENDBRANCH   5  30
TORSDOF 7
