REMARK  Name = ZINC09284864
REMARK  14 active torsions:
REMARK  status: ('A' for Active; 'I' for Inactive)
REMARK    1  A    between atoms: C_1  and  C_2
REMARK    2  A    between atoms: C_5  and  C_8
REMARK    3  A    between atoms: C_8  and  N_9
REMARK    4  A    between atoms: C_10  and  C_37
REMARK    5  A    between atoms: C_11  and  C_15
REMARK    6  A    between atoms: C_12  and  C_14
REMARK    7  A    between atoms: C_16  and  C_17
REMARK    8  A    between atoms: C_17  and  O_19
REMARK    9  A    between atoms: O_19  and  C_20
REMARK   10  A    between atoms: C_20  and  C_21
REMARK   11  A    between atoms: N_23  and  C_24
REMARK   12  A    between atoms: C_25  and  C_36
REMARK   13  A    between atoms: N_27  and  C_30
REMARK   14  A    between atoms: C_28  and  C_29
REMARK                            x       y       z     vdW  Elec       q    Type
REMARK                         _______ _______ _______ _____ _____    ______ ____
ROOT
ATOM      1  C   UNL     1       0.081   0.892  -0.199  0.00  0.00    +0.332 C 
ATOM      2  O   UNL     1       0.142  -0.285  -0.500  0.00  0.00    -0.246 OA
ENDROOT
BRANCH   1   4
ATOM      3  C   UNL     1      -2.311   0.779  -0.106  0.00  0.00    +0.018 C 
ATOM      4  C   UNL     1      -1.177   1.503   0.020  0.00  0.00    +0.092 C 
BRANCH   3   7
ATOM      5  N   UNL     1      -5.699   2.066  -0.141  0.00  0.00    -0.263 N 
ATOM      6  C   UNL     1      -4.715   1.355  -0.718  0.00  0.00    +0.044 A 
ATOM      7  C   UNL     1      -3.617   1.413   0.121  0.00  0.00    +0.018 A 
ATOM      8  C   UNL     1      -3.990   2.192   1.241  0.00  0.00    +0.067 A 
ATOM      9  N   UNL     1      -5.224   2.579   1.072  0.00  0.00    -0.175 NA
ATOM     10  C   UNL     1      -3.113   2.522   2.422  0.00  0.00    +0.068 C 
ATOM     11  C   UNL     1      -4.795   0.629  -2.036  0.00  0.00    +0.066 C 
BRANCH   5  12
ATOM     12  C   UNL     1      -7.042   2.270  -0.688  0.00  0.00    +0.178 C 
BRANCH  12  17
ATOM     13  C   UNL     1     -10.538  -1.942   1.163  0.00  0.00    +0.044 C 
ATOM     14  C   UNL     1      -9.626  -0.843   0.680  0.00  0.00    -0.050 A 
ATOM     15  C   UNL     1      -9.497   0.321   1.415  0.00  0.00    +0.004 A 
ATOM     16  C   UNL     1      -8.661   1.328   0.972  0.00  0.00    +0.006 A 
ATOM     17  C   UNL     1      -7.954   1.172  -0.205  0.00  0.00    -0.026 A 
ATOM     18  C   UNL     1      -8.087   0.010  -0.943  0.00  0.00    +0.006 A 
ATOM     19  C   UNL     1      -8.920  -0.999  -0.498  0.00  0.00    +0.004 A 
ENDBRANCH  12  17
ENDBRANCH   5  12
ENDBRANCH   3   7
ENDBRANCH   1   4
BRANCH   1  20
ATOM     20  O   UNL     1       1.213   1.617  -0.079  0.00  0.00    -0.452 OA
BRANCH  20  21
ATOM     21  C   UNL     1       2.447   0.938  -0.320  0.00  0.00    +0.328 C 
BRANCH  21  22
ATOM     22  C   UNL     1       3.593   1.899  -0.141  0.00  0.00    +0.255 C 
ATOM     23  O   UNL     1       3.375   3.053   0.163  0.00  0.00    -0.272 OA
ATOM     24  N   UNL     1       4.861   1.478  -0.318  0.00  0.00    -0.280 N 
ATOM     25  H   UNL     1       5.042   0.538  -0.475  0.00  0.00    +0.155 HD
BRANCH  24  26
ATOM     26  C   UNL     1       5.922   2.401  -0.275  0.00  0.00    +0.078 A 
ATOM     27  C   UNL     1       5.860   3.750  -0.656  0.00  0.00    +0.082 A 
ATOM     28  N   UNL     1       7.040   4.285  -0.471  0.00  0.00    -0.170 NA
ATOM     29  N   UNL     1       7.901   3.297   0.025  0.00  0.00    -0.235 N 
ATOM     30  C   UNL     1       7.190   2.143   0.138  0.00  0.00    +0.063 A 
ATOM     31  C   UNL     1       7.714   0.819   0.632  0.00  0.00    +0.068 C 
ATOM     32  C   UNL     1       4.642   4.462  -1.183  0.00  0.00    +0.069 C 
BRANCH  29  33
ATOM     33  C   UNL     1       9.254   3.468   0.347  0.00  0.00    +0.066 A 
ATOM     34  C   UNL     1       9.671   4.612   1.016  0.00  0.00    +0.028 A 
ATOM     35  C   UNL     1      11.004   4.775   1.338  0.00  0.00    +0.002 A 
ATOM     36  C   UNL     1      11.925   3.806   0.984  0.00  0.00    +0.000 A 
ATOM     37  C   UNL     1      11.514   2.669   0.313  0.00  0.00    +0.002 A 
ATOM     38  C   UNL     1      10.181   2.498  -0.006  0.00  0.00    +0.028 A 
ENDBRANCH  29  33
ENDBRANCH  24  26
ENDBRANCH  21  22
ENDBRANCH  20  21
ENDBRANCH   1  20
TORSDOF 9
