REMARK  Name = ZINC28790796
REMARK  7 active torsions:
REMARK  status: ('A' for Active; 'I' for Inactive)
REMARK    1  A    between atoms: C_1  and  N_2
REMARK    2  A    between atoms: C_6  and  C_7
REMARK    3  A    between atoms: N_9  and  N_10
REMARK    4  A    between atoms: N_10  and  S_11
REMARK    5  A    between atoms: S_11  and  C_14
REMARK    6  A    between atoms: C_17  and  C_20
REMARK    7  A    between atoms: C_21  and  C_22
REMARK                            x       y       z     vdW  Elec       q    Type
REMARK                         _______ _______ _______ _____ _____    ______ ____
ROOT
ATOM      1  S   UNL     1      -1.133   0.939  -0.684  0.00  0.00    +0.074 S 
ATOM      2  O   UNL     1      -1.964  -0.180  -0.960  0.00  0.00    -0.152 OA
ATOM      3  O   UNL     1      -1.357   1.799   0.425  0.00  0.00    -0.152 OA
ENDROOT
BRANCH   1   4
ATOM      4  C   UNL     1      -1.163   1.956  -2.123  0.00  0.00    +0.107 A 
ATOM      5  C   UNL     1      -0.887   3.308  -2.016  0.00  0.00    +0.029 A 
ATOM      6  C   UNL     1      -0.903   4.109  -3.138  0.00  0.00    +0.010 A 
ATOM      7  C   UNL     1      -1.209   3.554  -4.385  0.00  0.00    -0.025 A 
ATOM      8  C   UNL     1      -1.492   2.188  -4.484  0.00  0.00    +0.010 A 
ATOM      9  C   UNL     1      -1.467   1.399  -3.353  0.00  0.00    +0.029 A 
BRANCH   7  10
ATOM     10  C   UNL     1      -1.234   4.403  -5.587  0.00  0.00    +0.015 C 
ATOM     11  C   UNL     1      -0.961   5.721  -5.487  0.00  0.00    +0.096 C 
BRANCH  11  12
ATOM     12  C   UNL     1      -0.985   6.564  -6.682  0.00  0.00    +0.380 C 
ATOM     13  O   UNL     1      -1.252   6.079  -7.764  0.00  0.00    -0.241 OA
ATOM     14  O   UNL     1      -0.712   7.882  -6.582  0.00  0.00    -0.241 OA
ENDBRANCH  11  12
ENDBRANCH   7  10
ENDBRANCH   1   4
BRANCH   1  15
ATOM     15  N   UNL     1       0.409   0.357  -0.528  0.00  0.00    -0.108 NA
ATOM     16  H   UNL     1       0.570  -0.600  -0.540  0.00  0.00    +0.172 HD
BRANCH  15  19
ATOM     17  C   UNL     1       2.320   1.127   0.665  0.00  0.00    +0.275 C 
ATOM     18  O   UNL     1       2.085   0.316   1.542  0.00  0.00    -0.267 OA
ATOM     19  N   UNL     1       1.482   1.246  -0.384  0.00  0.00    -0.227 N 
ATOM     20  H   UNL     1       1.642   2.041  -1.127  0.00  0.00    +0.171 HD
BRANCH  17  26
ATOM     21  C   UNL     1       4.537   0.945   2.821  0.00  0.00    +0.149 C 
ATOM     22  N   UNL     1       4.500   1.896   1.707  0.00  0.00    -0.345 N 
ATOM     23  C   UNL     1       5.433   2.845   1.447  0.00  0.00    +0.101 A 
ATOM     24  C   UNL     1       5.062   3.532   0.339  0.00  0.00    +0.036 A 
ATOM     25  C   UNL     1       3.855   2.991  -0.116  0.00  0.00    +0.047 A 
ATOM     26  C   UNL     1       3.514   1.974   0.751  0.00  0.00    +0.106 A 
ATOM     27 BR   UNL     1       6.010   4.963  -0.454  0.00  0.00    -0.049 Br
ENDBRANCH  17  26
ENDBRANCH  15  19
ENDBRANCH   1  15
TORSDOF 6
