REMARK  Name = ZINC04809564
REMARK  3 active torsions:
REMARK  status: ('A' for Active; 'I' for Inactive)
REMARK    1  A    between atoms: C_11  and  C_13
REMARK    2  A    between atoms: C_17  and  S_19
REMARK    3  A    between atoms: S_19  and  N_22
REMARK                            x       y       z     vdW  Elec       q    Type
REMARK                         _______ _______ _______ _____ _____    ______ ____
ROOT
ATOM      1  C   UNL     1      -3.920   4.112   2.872  0.00  0.00    +0.039 A 
ATOM      2  C   UNL     1      -4.349   5.285   3.496  0.00  0.00    +0.013 A 
ATOM      3  C   UNL     1      -3.600   6.437   3.382  0.00  0.00    +0.003 A 
ATOM      4  C   UNL     1      -2.426   6.433   2.650  0.00  0.00    +0.029 A 
ATOM      5  C   UNL     1      -1.994   5.275   2.029  0.00  0.00    +0.109 A 
ATOM      6  C   UNL     1      -2.737   4.116   2.131  0.00  0.00    +0.042 A 
ENDROOT
BRANCH   1  17
ATOM      7  C   UNL     1      -7.368  -1.046   4.536  0.00  0.00    +0.000 A 
ATOM      8  C   UNL     1      -7.085  -0.526   3.286  0.00  0.00    +0.002 A 
ATOM      9  C   UNL     1      -6.375   0.652   3.176  0.00  0.00    +0.024 A 
ATOM     10  C   UNL     1      -5.945   1.316   4.320  0.00  0.00    +0.040 A 
ATOM     11  C   UNL     1      -6.231   0.796   5.572  0.00  0.00    -0.026 A 
ATOM     12  C   UNL     1      -6.942  -0.388   5.674  0.00  0.00    +0.005 A 
ATOM     13  C   UNL     1      -5.787   1.490   6.832  0.00  0.00    +0.038 C 
ATOM     14  C   UNL     1      -4.631   2.446   6.538  0.00  0.00    +0.024 C 
ATOM     15  C   UNL     1      -5.021   3.354   5.370  0.00  0.00    +0.114 C 
ATOM     16  N   UNL     1      -5.223   2.509   4.186  0.00  0.00    -0.267 N 
ATOM     17  C   UNL     1      -4.717   2.873   2.990  0.00  0.00    +0.251 C 
ATOM     18  O   UNL     1      -4.917   2.183   2.010  0.00  0.00    -0.270 OA
ENDBRANCH   1  17
BRANCH   5  19
ATOM     19  S   UNL     1      -0.497   5.281   1.100  0.00  0.00    +0.073 S 
ATOM     20  O   UNL     1      -0.273   6.626   0.700  0.00  0.00    -0.150 OA
ATOM     21  O   UNL     1      -0.595   4.214   0.166  0.00  0.00    -0.150 OA
BRANCH  19  22
ATOM     22  N   UNL     1       0.728   4.886   2.142  0.00  0.00    -0.199 N 
ATOM     23  C   UNL     1       0.765   3.625   2.726  0.00  0.00    +0.138 A 
ATOM     24  C   UNL     1       1.797   3.300   3.600  0.00  0.00    +0.045 A 
ATOM     25  C   UNL     1       1.821   2.042   4.174  0.00  0.00    +0.005 A 
ATOM     26  C   UNL     1       0.809   1.147   3.852  0.00  0.00    +0.020 A 
ATOM     27  C   UNL     1      -0.181   1.534   2.972  0.00  0.00    +0.113 A 
ATOM     28  N   UNL     1      -0.183   2.744   2.444  0.00  0.00    -0.239 NA
ATOM     29  H   UNL     1       1.419   5.535   2.345  0.00  0.00    +0.175 HD
ENDBRANCH  19  22
ENDBRANCH   5  19
TORSDOF 3
