REMARK  Name = ZINC63666889
REMARK  6 active torsions:
REMARK  status: ('A' for Active; 'I' for Inactive)
REMARK    1  A    between atoms: C_7  and  C_10
REMARK    2  A    between atoms: C_10  and  C_11
REMARK    3  A    between atoms: C_11  and  N_12
REMARK    4  A    between atoms: C_13  and  C_15
REMARK    5  A    between atoms: N_18  and  C_21
REMARK    6  A    between atoms: C_25  and  N_28
REMARK                            x       y       z     vdW  Elec       q    Type
REMARK                         _______ _______ _______ _____ _____    ______ ____
ROOT
ATOM      1  C   UNL     1      -1.802  -6.479  -2.661  0.00  0.00    +0.077 C 
ATOM      2  C   UNL     1      -3.143  -6.080  -2.040  0.00  0.00    +0.028 C 
ATOM      3  C   UNL     1      -4.097  -7.276  -2.086  0.00  0.00    +0.088 C 
ATOM      4  N   UNL     1      -4.288  -7.698  -3.480  0.00  0.00    -0.271 NA
ATOM      5  C   UNL     1      -3.021  -8.130  -4.082  0.00  0.00    +0.088 C 
ATOM      6  C   UNL     1      -2.035  -6.960  -4.096  0.00  0.00    +0.028 C 
ENDROOT
BRANCH   4   7
ATOM      7  C   UNL     1      -5.304  -8.755  -3.575  0.00  0.00    +0.260 C 
ATOM      8  N   UNL     1      -5.045  -9.842  -2.604  0.00  0.00    -0.159 NA
ATOM      9  N   UNL     1      -5.934 -10.260  -1.888  0.00  0.00    -0.156 NA
ATOM     10  C   UNL     1      -7.299  -9.693  -1.970  0.00  0.00    +0.279 C 
ATOM     11  S   UNL     1      -6.945  -8.169  -2.957  0.00  0.00    -0.069 S 
BRANCH  10  12
ATOM     12  N   UNL     1      -7.820  -9.361  -0.641  0.00  0.00    -0.270 N 
ATOM     13  C   UNL     1      -7.019  -8.487   0.207  0.00  0.00    +0.111 C 
ATOM     14  C   UNL     1      -7.883  -7.876   1.311  0.00  0.00    +0.019 C 
ATOM     15  C   UNL     1      -8.652  -9.001   2.013  0.00  0.00    +0.011 C 
ATOM     16  C   UNL     1      -9.669  -9.581   1.025  0.00  0.00    +0.096 C 
ATOM     17  C   UNL     1      -8.999  -9.873  -0.286  0.00  0.00    +0.218 C 
ATOM     18  O   UNL     1      -9.559 -10.618  -1.063  0.00  0.00    -0.276 OA
ENDBRANCH  10  12
ENDBRANCH   4   7
BRANCH   1  20
ATOM     19  N   UNL     1      -0.530  -4.693  -1.515  0.00  0.00    -0.315 N 
ATOM     20  C   UNL     1      -0.878  -5.288  -2.673  0.00  0.00    +0.216 C 
ATOM     21  O   UNL     1      -0.449  -4.864  -3.725  0.00  0.00    -0.276 OA
ATOM     22  H   UNL     1      -0.874  -5.032  -0.673  0.00  0.00    +0.149 HD
BRANCH  19  23
ATOM     23  C   UNL     1       0.367  -3.535  -1.526  0.00  0.00    +0.108 C 
BRANCH  23  24
ATOM     24  C   UNL     1       0.599  -3.055  -0.092  0.00  0.00    +0.052 C 
BRANCH  24  31
ATOM     25  C   UNL     1      -0.175   1.467  -0.083  0.00  0.00    +0.001 A 
ATOM     26  C   UNL     1       0.995   2.238  -0.099  0.00  0.00    +0.002 A 
ATOM     27  C   UNL     1       2.229   1.690  -0.115  0.00  0.00    +0.026 A 
ATOM     28  C   UNL     1       2.388   0.277  -0.116  0.00  0.00    +0.043 A 
ATOM     29  N   UNL     1       3.457  -0.481  -0.131  0.00  0.00    -0.380 N 
ATOM     30  C   UNL     1       3.035  -1.886  -0.125  0.00  0.00    +0.144 C 
ATOM     31  C   UNL     1       1.522  -1.864  -0.104  0.00  0.00    -0.040 C 
ATOM     32  C   UNL     1       1.167  -0.559  -0.100  0.00  0.00    -0.001 A 
ATOM     33  C   UNL     1      -0.137   0.116  -0.082  0.00  0.00    +0.010 A 
ATOM     34  H   UNL     1       4.374  -0.166  -0.144  0.00  0.00    +0.160 HD
ENDBRANCH  24  31
ENDBRANCH  23  24
ENDBRANCH  19  23
ENDBRANCH   1  20
TORSDOF 6
