REMARK  Name = ZINC20285627
REMARK  8 active torsions:
REMARK  status: ('A' for Active; 'I' for Inactive)
REMARK    1  A    between atoms: C_1  and  C_2
REMARK    2  A    between atoms: C_5  and  S_8
REMARK    3  A    between atoms: S_8  and  C_11
REMARK    4  A    between atoms: N_21  and  C_22
REMARK    5  A    between atoms: C_25  and  O_30
REMARK    6  A    between atoms: C_26  and  O_28
REMARK    7  A    between atoms: O_28  and  C_29
REMARK    8  A    between atoms: O_30  and  C_31
REMARK                            x       y       z     vdW  Elec       q    Type
REMARK                         _______ _______ _______ _____ _____    ______ ____
ROOT
ATOM      1  C   UNL     1       1.138  -2.057  -0.225  0.00  0.00    +0.154 A 
ATOM      2  C   UNL     1       2.308  -2.730  -0.343  0.00  0.00    +0.044 A 
ATOM      3  C   UNL     1       3.557  -1.958  -0.348  0.00  0.00    +0.021 A 
ATOM      4  C   UNL     1       4.795  -2.595  -0.467  0.00  0.00    +0.031 A 
ATOM      5  C   UNL     1       5.951  -1.843  -0.470  0.00  0.00    +0.042 A 
ATOM      6  C   UNL     1       5.888  -0.462  -0.355  0.00  0.00    +0.023 A 
ATOM      7  C   UNL     1       4.671   0.179  -0.237  0.00  0.00    +0.048 A 
ATOM      8  C   UNL     1       3.496  -0.559  -0.232  0.00  0.00    +0.138 A 
ATOM      9  O   UNL     1       2.296   0.055  -0.123  0.00  0.00    -0.437 OA
ATOM     10  C   UNL     1       1.147  -0.647  -0.112  0.00  0.00    +0.225 A 
ATOM     11  N   UNL     1       0.002  -0.004   0.002  0.00  0.00    -0.324 N 
ATOM     12 CL   UNL     1       7.492  -2.628  -0.617  0.00  0.00    -0.084 Cl
ATOM     13  H   UNL     1      -0.938  -0.567   0.096  0.00  0.00    +0.169 HD
ENDROOT
BRANCH  11  14
ATOM     14  C   UNL     1      -0.017   1.363   0.003  0.00  0.00    +0.046 A 
ATOM     15  C   UNL     1      -0.048   2.064  -1.206  0.00  0.00    +0.029 A 
ATOM     16  C   UNL     1      -0.068   3.443  -1.202  0.00  0.00    +0.051 A 
ATOM     17  C   UNL     1      -0.056   4.138  -0.002  0.00  0.00    +0.162 A 
ATOM     18  C   UNL     1      -0.025   3.446   1.206  0.00  0.00    +0.163 A 
ATOM     19  C   UNL     1      -0.012   2.063   1.212  0.00  0.00    +0.075 A 
BRANCH  18  20
ATOM     20  O   UNL     1      -0.014   4.130   2.381  0.00  0.00    -0.491 OA
ATOM     21  C   UNL     1       0.018   3.357   3.583  0.00  0.00    +0.277 C 
ENDBRANCH  18  20
BRANCH  17  22
ATOM     22  O   UNL     1      -0.076   5.498  -0.005  0.00  0.00    -0.491 OA
ATOM     23  C   UNL     1      -0.108   6.144  -1.279  0.00  0.00    +0.277 C 
ENDBRANCH  17  22
ENDBRANCH  11  14
BRANCH   1  24
ATOM     24  S   UNL     1      -0.389  -2.935  -0.212  0.00  0.00    +0.030 S 
ATOM     25  O   UNL     1      -0.595  -3.372   1.124  0.00  0.00    -0.164 OA
ATOM     26  O   UNL     1      -1.330  -2.124  -0.902  0.00  0.00    -0.164 OA
BRANCH  24  31
ATOM     27  C   UNL     1       0.383  -7.902  -3.551  0.00  0.00    +0.044 C 
ATOM     28  C   UNL     1       0.189  -6.662  -2.717  0.00  0.00    -0.050 A 
ATOM     29  C   UNL     1       0.454  -6.692  -1.360  0.00  0.00    +0.005 A 
ATOM     30  C   UNL     1       0.278  -5.554  -0.596  0.00  0.00    +0.027 A 
ATOM     31  C   UNL     1      -0.164  -4.386  -1.187  0.00  0.00    +0.094 A 
ATOM     32  C   UNL     1      -0.434  -4.356  -2.543  0.00  0.00    +0.027 A 
ATOM     33  C   UNL     1      -0.253  -5.493  -3.308  0.00  0.00    +0.005 A 
ENDBRANCH  24  31
ENDBRANCH   1  24
TORSDOF 5
