REMARK  Name = ZINC20214696
REMARK  14 active torsions:
REMARK  status: ('A' for Active; 'I' for Inactive)
REMARK    1  A    between atoms: C_1  and  C_2
REMARK    2  A    between atoms: C_2  and  O_3
REMARK    3  A    between atoms: O_3  and  C_4
REMARK    4  A    between atoms: C_4  and  C_6
REMARK    5  A    between atoms: C_7  and  C_24
REMARK    6  A    between atoms: C_12  and  C_14
REMARK    7  A    between atoms: C_17  and  O_20
REMARK    8  A    between atoms: O_20  and  C_21
REMARK    9  A    between atoms: C_21  and  C_22
REMARK   10  A    between atoms: C_21  and  C_23
REMARK   11  A    between atoms: C_24  and  N_25
REMARK   12  A    between atoms: N_25  and  C_26
REMARK   13  A    between atoms: N_25  and  C_32
REMARK   14  A    between atoms: C_26  and  C_27
REMARK                            x       y       z     vdW  Elec       q    Type
REMARK                         _______ _______ _______ _____ _____    ______ ____
ROOT
ATOM      1  C   UNL     1      -5.969   2.800   2.992  0.00  0.00    +0.076 C 
ATOM      2  C   UNL     1      -5.154   1.724   3.051  0.00  0.00    +0.008 C 
ATOM      3  N   UNL     1      -4.888   1.106   4.240  0.00  0.00    -0.274 N 
ATOM      4  C   UNL     1      -5.389   1.509   5.414  0.00  0.00    +0.304 C 
ATOM      5  O   UNL     1      -5.090   0.897   6.421  0.00  0.00    -0.252 OA
ATOM      6  N   UNL     1      -6.217   2.567   5.516  0.00  0.00    -0.288 N 
ATOM      7  C   UNL     1      -6.572   3.300   4.289  0.00  0.00    +0.143 C 
ATOM      8  H   UNL     1      -4.229   0.226   4.266  0.00  0.00    +0.156 HD
ATOM      9  H   UNL     1      -6.626   2.887   6.486  0.00  0.00    +0.151 HD
ENDROOT
BRANCH   7  10
ATOM     10  C   UNL     1      -6.157   4.737   4.471  0.00  0.00    -0.022 A 
ATOM     11  C   UNL     1      -4.900   5.036   4.963  0.00  0.00    +0.009 A 
ATOM     12  C   UNL     1      -4.515   6.353   5.125  0.00  0.00    +0.046 A 
ATOM     13  C   UNL     1      -5.395   7.376   4.803  0.00  0.00    +0.121 A 
ATOM     14  C   UNL     1      -6.657   7.074   4.314  0.00  0.00    +0.046 A 
ATOM     15  C   UNL     1      -7.035   5.755   4.149  0.00  0.00    +0.009 A 
BRANCH  13  16
ATOM     16  O   UNL     1      -5.020   8.672   4.966  0.00  0.00    -0.489 OA
BRANCH  16  17
ATOM     17  C   UNL     1      -3.668   8.912   5.360  0.00  0.00    +0.167 C 
ATOM     18  C   UNL     1      -3.245  10.311   4.908  0.00  0.00    +0.051 C 
ATOM     19  C   UNL     1      -3.554   8.812   6.883  0.00  0.00    +0.051 C 
ENDBRANCH  16  17
ENDBRANCH  13  16
ENDBRANCH   7  10
BRANCH   1  20
ATOM     20  C   UNL     1      -6.250   3.437   1.761  0.00  0.00    +0.339 C 
ATOM     21  O   UNL     1      -5.837   2.960   0.721  0.00  0.00    -0.245 OA
BRANCH  20  22
ATOM     22  O   UNL     1      -6.976   4.575   1.741  0.00  0.00    -0.462 OA
BRANCH  22  24
ATOM     23  C   UNL     1      -8.055   6.436   0.639  0.00  0.00    +0.048 C 
ATOM     24  C   UNL     1      -7.222   5.165   0.463  0.00  0.00    +0.229 C 
ENDBRANCH  22  24
ENDBRANCH  20  22
ENDBRANCH   1  20
BRANCH   2  25
ATOM     25  C   UNL     1      -4.534   1.194   1.784  0.00  0.00    -0.025 C 
BRANCH  25  26
ATOM     26  N   UNL     1      -3.510   2.133   1.310  0.00  0.00    +0.390 N 
ATOM     27  H   UNL     1      -3.917   3.151   1.400  0.00  0.00    -0.080 HD
BRANCH  26  28
ATOM     28  C   UNL     1      -2.300   2.057   2.140  0.00  0.00    -0.067 C 
ATOM     29  C   UNL     1      -1.914   0.591   2.344  0.00  0.00    -0.015 C 
ATOM     30  C   UNL     1      -0.654   0.511   3.209  0.00  0.00    -0.002 C 
ATOM     31  C   UNL     1      -0.925   1.161   4.567  0.00  0.00    -0.000 C 
ATOM     32  C   UNL     1      -1.312   2.627   4.363  0.00  0.00    -0.002 C 
ATOM     33  C   UNL     1      -2.571   2.707   3.498  0.00  0.00    -0.015 C 
ENDBRANCH  26  28
BRANCH  26  34
ATOM     34  C   UNL     1      -3.193   1.897  -0.105  0.00  0.00    -0.002 C 
BRANCH  34  35
ATOM     35  C   UNL     1      -2.310   3.006  -0.614  0.00  0.00    +0.089 A 
ATOM     36  C   UNL     1      -0.967   3.036  -0.549  0.00  0.00    +0.042 A 
ATOM     37  C   UNL     1      -0.554   4.250  -1.145  0.00  0.00    +0.041 A 
ATOM     38  C   UNL     1      -1.670   4.891  -1.535  0.00  0.00    +0.195 A 
ATOM     39  O   UNL     1      -2.730   4.135  -1.208  0.00  0.00    -0.470 OA
ENDBRANCH  34  35
ENDBRANCH  26  34
ENDBRANCH  25  26
ENDBRANCH   2  25
TORSDOF 11
