REMARK  Name = ZINC00689246
REMARK  11 active torsions:
REMARK  status: ('A' for Active; 'I' for Inactive)
REMARK    1  A    between atoms: C_1  and  C_2
REMARK    2  A    between atoms: C_3  and  C_34
REMARK    3  A    between atoms: C_5  and  N_13
REMARK    4  A    between atoms: C_6  and  C_7
REMARK    5  A    between atoms: C_7  and  O_9
REMARK    6  A    between atoms: O_9  and  C_10
REMARK    7  A    between atoms: C_10  and  C_11
REMARK    8  A    between atoms: C_10  and  C_12
REMARK    9  A    between atoms: C_14  and  C_16
REMARK   10  A    between atoms: C_20  and  C_29
REMARK   11  A    between atoms: C_22  and  C_25
REMARK                            x       y       z     vdW  Elec       q    Type
REMARK                         _______ _______ _______ _____ _____    ______ ____
ROOT
ATOM      1  C   UNL     1       0.761   9.631   0.044  0.00  0.00    +0.150 A 
ATOM      2  C   UNL     1      -0.198   8.611   0.048  0.00  0.00    +0.083 A 
ATOM      3  C   UNL     1       0.478   7.401   0.036  0.00  0.00    +0.157 A 
ATOM      4  N   UNL     1       0.051   6.131   0.028  0.00  0.00    -0.227 NA
ATOM      5  C   UNL     1       0.913   5.128   0.021  0.00  0.00    +0.082 A 
ATOM      6  C   UNL     1       2.305   5.390   0.009  0.00  0.00    +0.061 A 
ATOM      7  C   UNL     1       2.737   6.669   0.011  0.00  0.00    +0.149 A 
ATOM      8  N   UNL     1       1.821   7.686   0.025  0.00  0.00    -0.209 N 
ATOM      9  N   UNL     1       1.964   9.079   0.030  0.00  0.00    -0.160 NA
ENDROOT
BRANCH   5  10
ATOM     10  C   UNL     1       0.425   3.737   0.018  0.00  0.00    +0.038 A 
ATOM     11  C   UNL     1      -0.867   3.274   0.028  0.00  0.00    +0.017 A 
ATOM     12  C   UNL     1      -1.082   1.916   0.017  0.00  0.00    +0.008 A 
ATOM     13  C   UNL     1      -0.013   1.076   0.008  0.00  0.00    +0.046 A 
ATOM     14  S   UNL     1       1.361   2.217   0.001  0.00  0.00    -0.095 S 
ENDBRANCH   5  10
BRANCH   1  16
ATOM     15  N   UNL     1       1.494  11.967   0.048  0.00  0.00    -0.274 N 
ATOM     16  C   UNL     1       0.478  11.082   0.053  0.00  0.00    +0.269 C 
ATOM     17  O   UNL     1      -0.672  11.476   0.066  0.00  0.00    -0.268 OA
ATOM     18  H   UNL     1       2.411  11.652   0.038  0.00  0.00    +0.156 HD
BRANCH  15  23
ATOM     19  C   UNL     1       2.455  16.937   0.061  0.00  0.00    +0.045 C 
ATOM     20  C   UNL     1       1.573  15.715   0.063  0.00  0.00    -0.025 A 
ATOM     21  C   UNL     1       0.233  15.818   0.075  0.00  0.00    -0.008 A 
ATOM     22  S   UNL     1      -0.309  14.121   0.066  0.00  0.00    -0.078 S 
ATOM     23  C   UNL     1       1.228  13.326   0.057  0.00  0.00    +0.087 A 
ATOM     24  C   UNL     1       2.133  14.383   0.053  0.00  0.00    +0.091 A 
ATOM     25  C   UNL     1      -0.609  17.068   0.088  0.00  0.00    +0.052 C 
BRANCH  24  26
ATOM     26  C   UNL     1       3.579  14.158   0.040  0.00  0.00    +0.342 C 
ATOM     27  O   UNL     1       4.171  14.068  -1.019  0.00  0.00    -0.245 OA
BRANCH  26  28
ATOM     28  O   UNL     1       4.255  14.048   1.202  0.00  0.00    -0.458 OA
BRANCH  28  29
ATOM     29  C   UNL     1       5.687  13.825   1.113  0.00  0.00    +0.171 C 
ATOM     30  C   UNL     1       6.376  14.444   2.331  0.00  0.00    +0.052 C 
ATOM     31  C   UNL     1       5.968  12.321   1.078  0.00  0.00    +0.052 C 
ENDBRANCH  28  29
ENDBRANCH  26  28
ENDBRANCH  24  26
ENDBRANCH  15  23
ENDBRANCH   1  16
BRANCH   7  32
ATOM     32  C   UNL     1       4.213   6.973  -0.002  0.00  0.00    +0.434 C 
ATOM     33  F   UNL     1       4.934   5.781  -0.130  0.00  0.00    -0.164 F 
ATOM     34  F   UNL     1       4.506   7.814  -1.081  0.00  0.00    -0.164 F 
ATOM     35  F   UNL     1       4.569   7.607   1.193  0.00  0.00    -0.164 F 
ENDBRANCH   7  32
TORSDOF 7
