REMARK  Name = ZINC20881734
REMARK  11 active torsions:
REMARK  status: ('A' for Active; 'I' for Inactive)
REMARK    1  A    between atoms: C_1  and  C_2
REMARK    2  A    between atoms: C_2  and  O_3
REMARK    3  A    between atoms: O_3  and  C_4
REMARK    4  A    between atoms: C_5  and  C_12
REMARK    5  A    between atoms: C_9  and  O_10
REMARK    6  A    between atoms: O_10  and  C_11
REMARK    7  A    between atoms: C_17  and  C_22
REMARK    8  A    between atoms: C_25  and  O_30
REMARK    9  A    between atoms: C_26  and  O_28
REMARK   10  A    between atoms: O_28  and  C_29
REMARK   11  A    between atoms: O_30  and  C_31
REMARK                            x       y       z     vdW  Elec       q    Type
REMARK                         _______ _______ _______ _____ _____    ______ ____
ROOT
ATOM      1  C   UNL     1      -5.679  -1.913   0.140  0.00  0.00    +0.140 C 
ATOM      2  C   UNL     1      -4.408  -1.106   0.019  0.00  0.00    +0.037 C 
ATOM      3  C   UNL     1      -3.827  -0.718  -1.128  0.00  0.00    +0.017 C 
ATOM      4  C   UNL     1      -2.529   0.072  -1.104  0.00  0.00    +0.059 C 
ATOM      5  C   UNL     1      -2.487   0.967   0.133  0.00  0.00    +0.032 C 
ATOM      6  C   UNL     1      -2.580   0.061   1.367  0.00  0.00    +0.088 C 
ATOM      7  C   UNL     1      -3.829  -0.761   1.263  0.00  0.00    +0.163 C 
ATOM      8  O   UNL     1      -4.364  -1.146   2.285  0.00  0.00    -0.292 OA
ATOM      9  N   UNL     1      -4.309  -0.979  -2.370  0.00  0.00    -0.316 N 
ATOM     10  C   UNL     1      -4.761  -2.221  -2.800  0.00  0.00    +0.052 A 
ATOM     11  C   UNL     1      -4.129  -2.931  -3.806  0.00  0.00    +0.025 A 
ATOM     12  C   UNL     1      -4.658  -4.142  -4.217  0.00  0.00    +0.002 A 
ATOM     13  C   UNL     1      -5.809  -4.636  -3.631  0.00  0.00    +0.002 A 
ATOM     14  C   UNL     1      -6.433  -3.935  -2.613  0.00  0.00    +0.025 A 
ATOM     15  C   UNL     1      -5.894  -2.733  -2.185  0.00  0.00    +0.049 A 
ATOM     16  N   UNL     1      -6.424  -2.046  -1.094  0.00  0.00    -0.331 N 
ATOM     17  H   UNL     1      -4.362  -0.175  -3.119  0.00  0.00    +0.152 HD
ATOM     18  H   UNL     1      -7.426  -1.601  -1.182  0.00  0.00    +0.147 HD
ENDROOT
BRANCH   1  20
ATOM     19  C   UNL     1      -6.294  -4.083   1.231  0.00  0.00    +0.167 A 
ATOM     20  C   UNL     1      -5.325  -3.291   0.636  0.00  0.00    +0.023 A 
ATOM     21  C   UNL     1      -4.036  -3.768   0.492  0.00  0.00    +0.009 A 
ATOM     22  C   UNL     1      -3.707  -5.030   0.951  0.00  0.00    +0.004 A 
ATOM     23  C   UNL     1      -4.668  -5.825   1.545  0.00  0.00    +0.049 A 
ATOM     24  C   UNL     1      -5.964  -5.356   1.688  0.00  0.00    +0.162 A 
BRANCH  24  25
ATOM     25  O   UNL     1      -6.912  -6.137   2.272  0.00  0.00    -0.491 OA
ATOM     26  C   UNL     1      -6.501  -7.432   2.717  0.00  0.00    +0.277 C 
ENDBRANCH  24  25
BRANCH  19  27
ATOM     27  O   UNL     1      -7.565  -3.618   1.369  0.00  0.00    -0.488 OA
BRANCH  27  29
ATOM     28  C   UNL     1      -9.838  -3.286   0.618  0.00  0.00    +0.048 C 
ATOM     29  C   UNL     1      -8.504  -3.990   0.358  0.00  0.00    +0.226 C 
ENDBRANCH  27  29
ENDBRANCH  19  27
ENDBRANCH   1  20
BRANCH   5  30
ATOM     30  C   UNL     1      -1.193   1.738   0.162  0.00  0.00    -0.040 A 
ATOM     31  C   UNL     1       0.013   1.063   0.167  0.00  0.00    +0.008 A 
ATOM     32  C   UNL     1       1.203   1.766   0.188  0.00  0.00    +0.049 A 
ATOM     33  C   UNL     1       1.188   3.151   0.210  0.00  0.00    +0.161 A 
ATOM     34  C   UNL     1      -0.026   3.832   0.211  0.00  0.00    +0.162 A 
ATOM     35  C   UNL     1      -1.215   3.120   0.189  0.00  0.00    +0.053 A 
BRANCH  34  36
ATOM     36  O   UNL     1      -0.045   5.191   0.233  0.00  0.00    -0.491 OA
ATOM     37  C   UNL     1      -1.327   5.822   0.232  0.00  0.00    +0.277 C 
ENDBRANCH  34  36
BRANCH  33  38
ATOM     38  O   UNL     1       2.358   3.845   0.230  0.00  0.00    -0.491 OA
ATOM     39  C   UNL     1       3.566   3.080   0.228  0.00  0.00    +0.277 C 
ENDBRANCH  33  38
ENDBRANCH   5  30
TORSDOF 7
