REMARK  Name = ZINC39704200
REMARK  15 active torsions:
REMARK  status: ('A' for Active; 'I' for Inactive)
REMARK    1  A    between atoms: C_1  and  C_2
REMARK    2  A    between atoms: C_4  and  C_31
REMARK    3  A    between atoms: C_6  and  N_14
REMARK    4  A    between atoms: C_9  and  C_11
REMARK    5  A    between atoms: C_15  and  C_17
REMARK    6  A    between atoms: C_17  and  S_18
REMARK    7  A    between atoms: S_18  and  C_19
REMARK    8  A    between atoms: C_23  and  C_26
REMARK    9  A    between atoms: C_26  and  C_27
REMARK   10  A    between atoms: C_27  and  C_28
REMARK   11  A    between atoms: C_31  and  O_33
REMARK   12  A    between atoms: O_33  and  C_34
REMARK   13  A    between atoms: C_34  and  C_35
REMARK   14  A    between atoms: C_35  and  O_36
REMARK   15  A    between atoms: O_36  and  C_37
REMARK                            x       y       z     vdW  Elec       q    Type
REMARK                         _______ _______ _______ _____ _____    ______ ____
ROOT
ATOM      1  C   UNL     1      -0.430   1.447   0.306  0.00  0.00    +0.010 C 
ATOM      2  C   UNL     1      -0.231  -0.066   0.192  0.00  0.00    +0.024 C 
ATOM      3  C   UNL     1      -1.567  -0.758   0.456  0.00  0.00    +0.132 C 
ATOM      4  C   UNL     1      -1.332  -2.178   1.043  0.00  0.00    +0.146 C 
ATOM      5  S   UNL     1       0.087  -1.815   2.168  0.00  0.00    -0.125 S 
ATOM      6  C   UNL     1       0.882  -0.492   1.169  0.00  0.00    +0.137 C 
ENDROOT
BRANCH   6   7
ATOM      7  C   UNL     1       1.291   0.662   2.047  0.00  0.00    +0.224 C 
ATOM      8  O   UNL     1       2.208   1.382   1.713  0.00  0.00    -0.275 OA
ATOM      9  N   UNL     1       0.637   0.896   3.202  0.00  0.00    -0.328 N 
ATOM     10  H   UNL     1      -0.097   0.320   3.468  0.00  0.00    +0.145 HD
ATOM     11  H   UNL     1       0.900   1.639   3.767  0.00  0.00    +0.145 HD
ENDBRANCH   6   7
BRANCH   4  12
ATOM     12  N   UNL     1      -2.501  -2.647   1.790  0.00  0.00    -0.302 N 
ATOM     13  C   UNL     1      -2.953  -3.904   1.615  0.00  0.00    +0.224 C 
ATOM     14  O   UNL     1      -2.392  -4.648   0.838  0.00  0.00    -0.275 OA
ATOM     15  H   UNL     1      -2.950  -2.052   2.412  0.00  0.00    +0.150 HD
BRANCH  13  16
ATOM     16  C   UNL     1      -4.156  -4.387   2.384  0.00  0.00    +0.173 C 
BRANCH  16  17
ATOM     17  S   UNL     1      -4.513  -6.107   1.931  0.00  0.00    -0.075 S 
BRANCH  17  18
ATOM     18  C   UNL     1      -5.925  -6.519   2.901  0.00  0.00    +0.213 A 
ATOM     19  N   UNL     1      -6.455  -7.732   2.807  0.00  0.00    -0.180 NA
ATOM     20  C   UNL     1      -7.520  -8.037   3.541  0.00  0.00    +0.296 A 
ATOM     21  O   UNL     1      -8.081  -9.268   3.466  0.00  0.00    -0.264 OA
ATOM     22  C   UNL     1      -8.048  -7.064   4.391  0.00  0.00    +0.130 A 
ATOM     23  N   UNL     1      -7.479  -5.875   4.441  0.00  0.00    -0.146 NA
ATOM     24  N   UNL     1      -6.445  -5.613   3.721  0.00  0.00    -0.122 NA
BRANCH  22  25
ATOM     25  C   UNL     1      -9.256  -7.369   5.240  0.00  0.00    +0.074 C 
BRANCH  25  26
ATOM     26  C   UNL     1      -8.802  -7.930   6.589  0.00  0.00    +0.131 C 
BRANCH  26  27
ATOM     27  C   UNL     1     -10.009  -8.234   7.438  0.00  0.00    +0.356 C 
ATOM     28  O   UNL     1     -11.129  -8.022   7.004  0.00  0.00    -0.246 OA
ATOM     29  O   UNL     1      -9.867  -8.693   8.558  0.00  0.00    -0.246 OA
ENDBRANCH  26  27
ENDBRANCH  25  26
ENDBRANCH  22  25
ENDBRANCH  17  18
ENDBRANCH  16  17
ENDBRANCH  13  16
ENDBRANCH   4  12
BRANCH   3  30
ATOM     30  C   UNL     1      -2.332  -0.875  -0.837  0.00  0.00    +0.313 C 
ATOM     31  O   UNL     1      -1.855  -0.448  -1.862  0.00  0.00    -0.250 OA
BRANCH  30  32
ATOM     32  O   UNL     1      -3.543  -1.453  -0.851  0.00  0.00    -0.462 OA
BRANCH  32  33
ATOM     33  C   UNL     1      -4.212  -1.530  -2.111  0.00  0.00    +0.260 C 
BRANCH  33  34
ATOM     34  C   UNL     1      -5.567  -2.215  -1.929  0.00  0.00    +0.200 C 
BRANCH  34  35
ATOM     35  O   UNL     1      -6.405  -1.402  -1.106  0.00  0.00    -0.380 OA
ATOM     36  C   UNL     1      -7.702  -1.954  -0.872  0.00  0.00    +0.194 C 
ENDBRANCH  34  35
ENDBRANCH  33  34
ENDBRANCH  32  33
ENDBRANCH  30  32
ENDBRANCH   3  30
TORSDOF 13
