REMARK  Name = ZINC36395448
REMARK  7 active torsions:
REMARK  status: ('A' for Active; 'I' for Inactive)
REMARK    1  A    between atoms: C_1  and  C_2
REMARK    2  A    between atoms: C_3  and  C_14
REMARK    3  A    between atoms: C_4  and  C_13
REMARK    4  A    between atoms: N_5  and  C_7
REMARK    5  A    between atoms: N_21  and  C_22
REMARK    6  A    between atoms: C_22  and  C_23
REMARK    7  A    between atoms: C_33  and  C_35
REMARK                            x       y       z     vdW  Elec       q    Type
REMARK                         _______ _______ _______ _____ _____    ______ ____
ROOT
ATOM      1  C   UNL     1       0.122  -0.382  -2.577  0.00  0.00    +0.054 C 
ATOM      2  C   UNL     1       1.556  -0.219  -2.992  0.00  0.00    +0.204 C 
ATOM      3  O   UNL     1       2.362  -1.054  -2.640  0.00  0.00    -0.277 OA
ATOM      4  N   UNL     1       1.981   0.810  -3.734  0.00  0.00    -0.318 N 
ATOM      5  C   UNL     1       1.090   1.878  -4.182  0.00  0.00    +0.085 C 
ATOM      6  C   UNL     1      -0.366   1.423  -4.067  0.00  0.00    -0.058 C 
ATOM      7  N   UNL     1      -0.590   0.895  -2.713  0.00  0.00    +0.397 N 
ATOM      8  H   UNL     1       2.917   0.849  -3.985  0.00  0.00    +0.149 HD
ATOM      9  H   UNL     1      -0.240   1.551  -2.031  0.00  0.00    -0.079 HD
ENDROOT
BRANCH   1  12
ATOM     10  C   UNL     1      -0.600  -3.299  -1.571  0.00  0.00    +0.068 C 
ATOM     11  C   UNL     1      -0.252  -2.123  -0.696  0.00  0.00    +0.063 A 
ATOM     12  C   UNL     1       0.065  -0.835  -1.141  0.00  0.00    -0.009 A 
ATOM     13  C   UNL     1       0.314  -0.068  -0.054  0.00  0.00    +0.044 A 
ATOM     14  N   UNL     1       0.159  -0.845   1.042  0.00  0.00    -0.237 N 
ATOM     15  N   UNL     1      -0.201  -2.129   0.612  0.00  0.00    -0.171 NA
ATOM     16  C   UNL     1       0.696   1.390  -0.064  0.00  0.00    +0.066 C 
BRANCH  14  17
ATOM     17  C   UNL     1       0.325  -0.437   2.373  0.00  0.00    +0.066 A 
ATOM     18  C   UNL     1      -0.169   0.792   2.790  0.00  0.00    +0.028 A 
ATOM     19  C   UNL     1      -0.004   1.191   4.102  0.00  0.00    +0.002 A 
ATOM     20  C   UNL     1       0.653   0.369   4.999  0.00  0.00    +0.000 A 
ATOM     21  C   UNL     1       1.146  -0.855   4.586  0.00  0.00    +0.002 A 
ATOM     22  C   UNL     1       0.979  -1.263   3.277  0.00  0.00    +0.028 A 
ENDBRANCH  14  17
ENDBRANCH   1  12
BRANCH   7  23
ATOM     23  C   UNL     1      -2.028   0.682  -2.502  0.00  0.00    +0.021 C 
BRANCH  23  24
ATOM     24  C   UNL     1      -2.740   2.010  -2.520  0.00  0.00    +0.204 C 
ATOM     25  O   UNL     1      -2.111   3.033  -2.692  0.00  0.00    -0.277 OA
ATOM     26  N   UNL     1      -4.075   2.061  -2.345  0.00  0.00    -0.270 N 
ATOM     27  C   UNL     1      -4.899   0.951  -2.134  0.00  0.00    +0.040 A 
ATOM     28  C   UNL     1      -4.559  -0.401  -2.057  0.00  0.00    +0.024 A 
ATOM     29  C   UNL     1      -5.534  -1.352  -1.840  0.00  0.00    +0.002 A 
ATOM     30  C   UNL     1      -6.856  -0.973  -1.696  0.00  0.00    +0.000 A 
ATOM     31  C   UNL     1      -7.200   0.364  -1.771  0.00  0.00    +0.005 A 
ATOM     32  C   UNL     1      -6.226   1.320  -1.988  0.00  0.00    -0.024 A 
ATOM     33  C   UNL     1      -6.324   2.824  -2.111  0.00  0.00    +0.059 C 
ATOM     34  C   UNL     1      -4.876   3.288  -2.343  0.00  0.00    +0.083 C 
ATOM     35  C   UNL     1      -4.759   4.001  -3.691  0.00  0.00    +0.029 C 
ENDBRANCH  23  24
ENDBRANCH   7  23
TORSDOF 4
