REMARK  Name = ZINC08922854
REMARK  10 active torsions:
REMARK  status: ('A' for Active; 'I' for Inactive)
REMARK    1  A    between atoms: C_1  and  C_2
REMARK    2  A    between atoms: C_2  and  C_3
REMARK    3  A    between atoms: C_2  and  N_64
REMARK    4  A    between atoms: C_11  and  O_36
REMARK    5  A    between atoms: C_13  and  C_16
REMARK    6  A    between atoms: C_19  and  O_24
REMARK    7  A    between atoms: C_20  and  O_22
REMARK    8  A    between atoms: O_22  and  C_23
REMARK    9  A    between atoms: O_24  and  C_25
REMARK   10  A    between atoms: C_25  and  C_27
REMARK                            x       y       z     vdW  Elec       q    Type
REMARK                         _______ _______ _______ _____ _____    ______ ____
ROOT
ATOM      1  C   UNL     1      -7.028   6.155  -6.464  0.00  0.00    -0.073 C 
ATOM      2  C   UNL     1      -7.185   6.770  -5.071  0.00  0.00    +0.018 C 
ATOM      3  C   UNL     1      -7.439   5.642  -4.077  0.00  0.00    -0.027 A 
ATOM      4  C   UNL     1      -7.841   4.427  -4.522  0.00  0.00    -0.021 A 
ATOM      5  S   UNL     1      -8.011   3.440  -3.060  0.00  0.00    -0.080 S 
ATOM      6  C   UNL     1      -7.565   4.612  -1.895  0.00  0.00    +0.080 A 
ATOM      7  C   UNL     1      -7.279   5.763  -2.641  0.00  0.00    +0.067 A 
ATOM      8  C   UNL     1      -6.845   6.969  -1.889  0.00  0.00    +0.220 C 
ATOM      9  N   UNL     1      -6.566   6.828  -0.624  0.00  0.00    -0.223 NA
ATOM     10  C   UNL     1      -6.552   5.557   0.089  0.00  0.00    +0.224 C 
ATOM     11  N   UNL     1      -7.466   4.578  -0.525  0.00  0.00    -0.313 N 
ATOM     12  C   UNL     1      -8.082   4.036  -5.946  0.00  0.00    -0.035 C 
ATOM     13  H   UNL     1      -7.971   3.944   0.008  0.00  0.00    +0.149 HD
ATOM     14  N   UNL     1      -8.184   5.280  -6.747  0.00  0.00    +0.384 N 
ATOM     15  H   UNL     1      -9.047   5.773  -6.491  0.00  0.00    -0.081 HD
ENDROOT
BRANCH  10  16
ATOM     16  C   UNL     1      -5.152   5.000   0.073  0.00  0.00    -0.002 A 
ATOM     17  C   UNL     1      -4.953   3.632   0.118  0.00  0.00    +0.011 A 
ATOM     18  C   UNL     1      -3.671   3.115   0.098  0.00  0.00    +0.050 A 
ATOM     19  C   UNL     1      -2.581   3.969   0.043  0.00  0.00    +0.173 A 
ATOM     20  C   UNL     1      -2.781   5.346  -0.003  0.00  0.00    +0.163 A 
ATOM     21  C   UNL     1      -4.069   5.857   0.013  0.00  0.00    +0.056 A 
BRANCH  20  22
ATOM     22  O   UNL     1      -1.714   6.187  -0.062  0.00  0.00    -0.491 OA
ATOM     23  C   UNL     1      -1.995   7.588  -0.106  0.00  0.00    +0.277 C 
ENDBRANCH  20  22
BRANCH  19  24
ATOM     24  O   UNL     1      -1.319   3.463   0.027  0.00  0.00    -0.419 OA
BRANCH  24  25
ATOM     25  C   UNL     1      -0.688   3.356   1.213  0.00  0.00    +0.345 C 
ATOM     26  O   UNL     1      -1.211   3.790   2.221  0.00  0.00    -0.245 OA
BRANCH  25  27
ATOM     27  C   UNL     1       0.637   2.713   1.288  0.00  0.00    +0.063 A 
ATOM     28  C   UNL     1       1.237   2.209   0.131  0.00  0.00    +0.019 A 
ATOM     29  C   UNL     1       2.473   1.604   0.204  0.00  0.00    +0.050 A 
ATOM     30  C   UNL     1       3.125   1.492   1.425  0.00  0.00    +0.166 A 
ATOM     31  C   UNL     1       2.531   1.993   2.584  0.00  0.00    +0.167 A 
ATOM     32  C   UNL     1       1.293   2.601   2.517  0.00  0.00    +0.064 A 
ATOM     33  O   UNL     1       3.367   1.760   3.638  0.00  0.00    -0.453 OA
ATOM     34  C   UNL     1       4.287   0.751   3.182  0.00  0.00    +0.466 C 
ATOM     35  O   UNL     1       4.331   0.947   1.756  0.00  0.00    -0.453 OA
ENDBRANCH  25  27
ENDBRANCH  24  25
ENDBRANCH  19  24
ENDBRANCH  10  16
BRANCH  14  37
ATOM     36  C   UNL     1      -6.963   4.198  -8.604  0.00  0.00    -0.014 C 
ATOM     37  C   UNL     1      -8.228   4.951  -8.188  0.00  0.00    -0.074 C 
ATOM     38  C   UNL     1      -9.454   4.078  -8.462  0.00  0.00    -0.014 C 
ENDBRANCH  14  37
BRANCH   8  39
ATOM     39  O   UNL     1      -6.742   8.173  -2.498  0.00  0.00    -0.492 OA
ATOM     40  H   UNL     1      -6.451   8.886  -1.913  0.00  0.00    +0.294 HD
ENDBRANCH   8  39
TORSDOF 7
