REMARK  Name = ZINC12296228
REMARK  16 active torsions:
REMARK  status: ('A' for Active; 'I' for Inactive)
REMARK    1  A    between atoms: C_1  and  C_2
REMARK    2  A    between atoms: C_8  and  C_42
REMARK    3  A    between atoms: C_8  and  C_43
REMARK    4  A    between atoms: C_12  and  C_41
REMARK    5  A    between atoms: C_13  and  C_15
REMARK    6  A    between atoms: C_15  and  C_16
REMARK    7  A    between atoms: C_16  and  C_17
REMARK    8  A    between atoms: C_17  and  C_40
REMARK    9  A    between atoms: C_18  and  C_19
REMARK   10  A    between atoms: C_19  and  C_20
REMARK   11  A    between atoms: C_20  and  C_21
REMARK   12  A    between atoms: C_21  and  C_23
REMARK   13  A    between atoms: C_23  and  C_24
REMARK   14  A    between atoms: C_31  and  O_32
REMARK   15  A    between atoms: O_32  and  C_33
REMARK   16  A    between atoms: C_39  and  N_93
REMARK                            x       y       z     vdW  Elec       q    Type
REMARK                         _______ _______ _______ _____ _____    ______ ____
ROOT
ATOM      1  C   UNL     1       4.615   0.286   2.035  0.00  0.00    +0.078 C 
ENDROOT
BRANCH   1   2
ATOM      2  C   UNL     1       3.320  -0.359   2.453  0.00  0.00    +0.132 C 
ATOM      3  O   UNL     1       2.619  -0.897   1.630  0.00  0.00    -0.297 OA
BRANCH   2   4
ATOM      4  C   UNL     1       2.898  -0.334   3.900  0.00  0.00    +0.064 C 
BRANCH   4   5
ATOM      5  C   UNL     1       1.587  -1.106   4.063  0.00  0.00    -0.027 C 
ATOM      6  C   UNL     1       0.548  -0.520   3.143  0.00  0.00    -0.012 A 
ATOM      7  C   UNL     1      -0.311  -1.317   2.415  0.00  0.00    -0.040 A 
ATOM      8  C   UNL     1      -1.257  -0.736   1.584  0.00  0.00    +0.053 A 
ATOM      9  C   UNL     1      -1.348   0.641   1.476  0.00  0.00    +0.170 A 
ATOM     10  C   UNL     1      -0.481   1.448   2.206  0.00  0.00    +0.208 A 
ATOM     11  C   UNL     1       0.464   0.864   3.038  0.00  0.00    +0.167 A 
ATOM     12  O   UNL     1      -0.765   2.756   1.931  0.00  0.00    -0.449 OA
ATOM     13  C   UNL     1      -1.540   2.733   0.717  0.00  0.00    +0.467 C 
ATOM     14  O   UNL     1      -2.176   1.441   0.743  0.00  0.00    -0.452 OA
ATOM     15  C   UNL     1      -0.249  -2.821   2.490  0.00  0.00    +0.017 C 
ATOM     16  C   UNL     1       0.538  -3.250   3.728  0.00  0.00    -0.074 C 
ATOM     17  C   UNL     1       2.756  -3.127   4.697  0.00  0.00    -0.095 C 
ATOM     18  N   UNL     1       1.823  -2.519   3.723  0.00  0.00    +0.383 N 
ATOM     19  H   UNL     1       2.236  -2.574   2.785  0.00  0.00    -0.081 HD
BRANCH  11  20
ATOM     20  O   UNL     1       1.312   1.650   3.754  0.00  0.00    -0.491 OA
ATOM     21  C   UNL     1       0.903   2.009   5.075  0.00  0.00    +0.277 C 
ENDBRANCH  11  20
ENDBRANCH   4   5
ENDBRANCH   2   4
ENDBRANCH   1   2
BRANCH   1  22
ATOM     22  C   UNL     1       4.804   0.120   0.526  0.00  0.00    +0.034 C 
BRANCH  22  24
ATOM     23  C   UNL     1       6.992   0.073  -0.556  0.00  0.00    -0.077 C 
ATOM     24  C   UNL     1       6.100   0.765   0.107  0.00  0.00    -0.027 C 
ATOM     25  C   UNL     1       8.351   0.663  -0.831  0.00  0.00    +0.039 C 
BRANCH  23  26
ATOM     26  C   UNL     1       6.660  -1.314  -1.043  0.00  0.00    +0.030 C 
BRANCH  26  27
ATOM     27  C   UNL     1       7.133  -2.343  -0.014  0.00  0.00    +0.008 C 
BRANCH  27  38
ATOM     28  C   UNL     1       5.424  -4.300   1.364  0.00  0.00    +0.008 C 
ATOM     29  C   UNL     1       6.696  -4.711   0.610  0.00  0.00    -0.010 C 
ATOM     30  C   UNL     1       6.539  -6.150   0.122  0.00  0.00    +0.004 C 
ATOM     31  C   UNL     1       7.770  -6.557  -0.699  0.00  0.00    +0.005 C 
ATOM     32  C   UNL     1       7.886  -5.603  -1.887  0.00  0.00    +0.001 C 
ATOM     33  C   UNL     1       8.847  -6.109  -2.942  0.00  0.00    -0.032 C 
ATOM     34  C   UNL     1       9.045  -5.092  -4.066  0.00  0.00    +0.007 C 
ATOM     35  C   UNL     1       9.380  -3.711  -3.516  0.00  0.00    +0.001 C 
ATOM     36  C   UNL     1       8.256  -3.234  -2.596  0.00  0.00    +0.007 C 
ATOM     37  C   UNL     1       8.124  -4.181  -1.401  0.00  0.00    -0.026 C 
ATOM     38  C   UNL     1       6.907  -3.755  -0.563  0.00  0.00    -0.002 C 
ATOM     39  C   UNL     1       9.370  -4.058  -0.525  0.00  0.00    +0.012 C 
ATOM     40  C   UNL     1      10.201  -6.512  -2.360  0.00  0.00    +0.011 C 
ATOM     41  C   UNL     1       8.233  -7.371  -3.594  0.00  0.00    +0.011 C 
ENDBRANCH  27  38
ENDBRANCH  26  27
ENDBRANCH  23  26
ENDBRANCH  22  24
ENDBRANCH   1  22
TORSDOF 9
