REMARK  Name = ZINC13197112
REMARK  13 active torsions:
REMARK  status: ('A' for Active; 'I' for Inactive)
REMARK    1  A    between atoms: C_1  and  C_2
REMARK    2  A    between atoms: C_2  and  C_3
REMARK    3  A    between atoms: C_3  and  C_5
REMARK    4  A    between atoms: C_3  and  N_6
REMARK    5  A    between atoms: N_6  and  C_7
REMARK    6  A    between atoms: C_15  and  C_17
REMARK    7  A    between atoms: C_17  and  S_18
REMARK    8  A    between atoms: S_18  and  C_19
REMARK    9  A    between atoms: C_22  and  C_28
REMARK   10  A    between atoms: N_23  and  C_24
REMARK   11  A    between atoms: C_24  and  C_25
REMARK   12  A    between atoms: C_25  and  C_26
REMARK   13  A    between atoms: C_31  and  C_34
REMARK                            x       y       z     vdW  Elec       q    Type
REMARK                         _______ _______ _______ _____ _____    ______ ____
ROOT
ATOM      1  C   UNL     1      -0.334   0.501  -0.963  0.00  0.00    +0.192 A 
ATOM      2  N   UNL     1      -0.328   1.812  -0.871  0.00  0.00    -0.122 NA
ATOM      3  N   UNL     1       0.880   2.251  -0.894  0.00  0.00    -0.128 NA
ATOM      4  C   UNL     1       1.719   1.247  -1.002  0.00  0.00    +0.165 A 
ATOM      5  N   UNL     1       0.968   0.096  -1.050  0.00  0.00    -0.302 N 
ENDROOT
BRANCH   4   6
ATOM      6  C   UNL     1       3.194   1.337  -1.062  0.00  0.00    +0.019 A 
ATOM      7  C   UNL     1       3.941   0.274  -1.571  0.00  0.00    +0.012 A 
ATOM      8  C   UNL     1       5.316   0.366  -1.628  0.00  0.00    +0.004 A 
ATOM      9  C   UNL     1       5.955   1.505  -1.173  0.00  0.00    -0.050 A 
ATOM     10  C   UNL     1       5.221   2.561  -0.662  0.00  0.00    +0.004 A 
ATOM     11  C   UNL     1       3.845   2.483  -0.604  0.00  0.00    +0.012 A 
ATOM     12  C   UNL     1       7.458   1.596  -1.233  0.00  0.00    +0.044 C 
ENDBRANCH   4   6
BRANCH   1  13
ATOM     13  S   UNL     1      -1.756  -0.539  -0.974  0.00  0.00    -0.077 S 
BRANCH  13  14
ATOM     14  C   UNL     1      -3.059   0.708  -0.828  0.00  0.00    +0.173 C 
BRANCH  14  16
ATOM     15  N   UNL     1      -5.523   0.753  -0.611  0.00  0.00    -0.293 N 
ATOM     16  C   UNL     1      -4.405   0.029  -0.816  0.00  0.00    +0.226 C 
ATOM     17  O   UNL     1      -4.481  -1.168  -0.992  0.00  0.00    -0.275 OA
BRANCH  15  18
ATOM     18  C   UNL     1      -6.819   0.081  -0.488  0.00  0.00    +0.099 C 
ATOM     19  C   UNL     1      -7.118  -0.691  -1.784  0.00  0.00    +0.046 C 
ATOM     20  C   UNL     1      -8.324  -1.636  -1.517  0.00  0.00    +0.168 C 
ATOM     21  S   UNL     1      -7.909  -2.243   0.173  0.00  0.00    -0.029 S 
ATOM     22  O   UNL     1      -7.169  -3.451   0.061  0.00  0.00    -0.174 OA
ATOM     23  O   UNL     1      -9.081  -2.212   0.976  0.00  0.00    -0.174 OA
ATOM     24  C   UNL     1      -6.779  -0.896   0.711  0.00  0.00    +0.188 C 
ENDBRANCH  15  18
BRANCH  15  25
ATOM     25  C   UNL     1      -5.442   2.213  -0.511  0.00  0.00    +0.073 C 
ATOM     26  C   UNL     1      -6.361   2.847  -1.557  0.00  0.00    +0.028 C 
BRANCH  25  28
ATOM     27  C   UNL     1      -4.888   2.124   1.923  0.00  0.00    +0.005 C 
ATOM     28  C   UNL     1      -5.881   2.653   0.887  0.00  0.00    +0.019 C 
ENDBRANCH  25  28
ENDBRANCH  15  25
ENDBRANCH  14  16
ENDBRANCH  13  14
ENDBRANCH   1  13
BRANCH   5  29
ATOM     29  C   UNL     1       1.460  -1.279  -1.169  0.00  0.00    +0.137 C 
BRANCH  29  30
ATOM     30  C   UNL     1       1.509  -1.677  -2.645  0.00  0.00    +0.147 C 
BRANCH  30  31
ATOM     31  C   UNL     1       2.016  -3.091  -2.768  0.00  0.00    +0.358 C 
ATOM     32  O   UNL     1       2.308  -3.716  -1.776  0.00  0.00    -0.246 OA
ATOM     33  O   UNL     1       2.143  -3.655  -3.979  0.00  0.00    -0.246 OA
ENDBRANCH  30  31
ENDBRANCH  29  30
ENDBRANCH   5  29
TORSDOF 10
