REMARK  Name = ZINC02129790
REMARK  5 active torsions:
REMARK  status: ('A' for Active; 'I' for Inactive)
REMARK    1  A    between atoms: C_1  and  C_2
REMARK    2  A    between atoms: C_13  and  C_32
REMARK    3  A    between atoms: N_20  and  C_23
REMARK    4  A    between atoms: C_23  and  C_24
REMARK    5  A    between atoms: C_24  and  C_25
REMARK                            x       y       z     vdW  Elec       q    Type
REMARK                         _______ _______ _______ _____ _____    ______ ____
ROOT
ATOM      1  C   UNL     1       6.478   0.376  -1.459  0.00  0.00    +0.048 C 
ATOM      2  C   UNL     1       5.995   0.750  -0.057  0.00  0.00    +0.151 C 
ATOM      3  C   UNL     1       4.485   0.727  -0.038  0.00  0.00    +0.054 A 
ATOM      4  C   UNL     1       3.729   1.847  -0.021  0.00  0.00    -0.008 A 
ATOM      5  C   UNL     1       2.344   1.421  -0.012  0.00  0.00    +0.004 A 
ATOM      6  C   UNL     1       1.136   2.126   0.003  0.00  0.00    +0.010 A 
ATOM      7  C   UNL     1      -0.017   1.381   0.010  0.00  0.00    +0.001 A 
ATOM      8  C   UNL     1       0.002  -0.004   0.002  0.00  0.00    +0.002 A 
ATOM      9  C   UNL     1       1.182  -0.727  -0.014  0.00  0.00    +0.026 A 
ATOM     10  C   UNL     1       2.369   0.003  -0.021  0.00  0.00    +0.047 A 
ATOM     11  N   UNL     1       3.680  -0.380  -0.037  0.00  0.00    -0.356 N 
ATOM     12  H   UNL     1       3.993  -1.298  -0.048  0.00  0.00    +0.166 HD
ATOM     13  C   UNL     1       4.277   3.251  -0.006  0.00  0.00    +0.069 C 
ATOM     14  C   UNL     1       5.741   3.223  -0.461  0.00  0.00    +0.122 C 
ATOM     15  N   UNL     1       6.432   2.117   0.229  0.00  0.00    -0.280 N 
ATOM     16  C   UNL     1       7.410   2.396   1.094  0.00  0.00    +0.234 C 
ATOM     17  O   UNL     1       7.797   3.543   1.161  0.00  0.00    -0.274 OA
ATOM     18  C   UNL     1       8.059   1.386   1.984  0.00  0.00    +0.203 C 
ATOM     19  N   UNL     1       7.473   0.065   1.832  0.00  0.00    -0.290 N 
ATOM     20  C   UNL     1       6.546  -0.233   0.922  0.00  0.00    +0.245 C 
ATOM     21  O   UNL     1       6.125  -1.370   0.887  0.00  0.00    -0.273 OA
ENDROOT
BRANCH  13  22
ATOM     22  C   UNL     1       4.192   3.811   1.390  0.00  0.00    -0.038 A 
ATOM     23  C   UNL     1       4.852   3.180   2.429  0.00  0.00    +0.006 A 
ATOM     24  C   UNL     1       4.779   3.696   3.709  0.00  0.00    +0.020 A 
ATOM     25  C   UNL     1       4.037   4.838   3.953  0.00  0.00    +0.041 A 
ATOM     26  C   UNL     1       3.373   5.465   2.915  0.00  0.00    +0.020 A 
ATOM     27  C   UNL     1       3.450   4.951   1.634  0.00  0.00    +0.006 A 
ATOM     28 CL   UNL     1       3.939   5.482   5.562  0.00  0.00    -0.084 Cl
ENDBRANCH  13  22
BRANCH  19  29
ATOM     29  C   UNL     1       7.928  -1.000   2.729  0.00  0.00    +0.113 C 
BRANCH  29  30
ATOM     30  C   UNL     1       9.122  -1.722   2.100  0.00  0.00    +0.054 C 
BRANCH  30  31
ATOM     31  C   UNL     1       9.590  -2.817   3.023  0.00  0.00    -0.046 A 
ATOM     32  C   UNL     1      10.555  -2.552   3.977  0.00  0.00    +0.005 A 
ATOM     33  C   UNL     1      10.981  -3.555   4.828  0.00  0.00    +0.020 A 
ATOM     34  C   UNL     1      10.449  -4.827   4.717  0.00  0.00    +0.041 A 
ATOM     35  C   UNL     1       9.488  -5.094   3.758  0.00  0.00    +0.020 A 
ATOM     36  C   UNL     1       9.059  -4.088   2.912  0.00  0.00    +0.005 A 
ATOM     37 CL   UNL     1      10.989  -6.090   5.779  0.00  0.00    -0.084 Cl
ENDBRANCH  30  31
ENDBRANCH  29  30
ENDBRANCH  19  29
TORSDOF 4
