REMARK  Name = ZINC01868344
REMARK  10 active torsions:
REMARK  status: ('A' for Active; 'I' for Inactive)
REMARK    1  A    between atoms: C_1  and  O_2
REMARK    2  A    between atoms: O_2  and  C_3
REMARK    3  A    between atoms: C_6  and  C_11
REMARK    4  A    between atoms: C_8  and  O_9
REMARK    5  A    between atoms: O_9  and  C_10
REMARK    6  A    between atoms: C_11  and  C_12
REMARK    7  A    between atoms: C_12  and  N_13
REMARK    8  A    between atoms: C_21  and  C_25
REMARK    9  A    between atoms: C_21  and  N_29
REMARK   10  A    between atoms: C_30  and  C_32
REMARK                            x       y       z     vdW  Elec       q    Type
REMARK                         _______ _______ _______ _____ _____    ______ ____
ROOT
ATOM      1  N   UNL     1      -6.775  -3.633  -1.160  0.00  0.00    -0.281 N 
ATOM      2  C   UNL     1      -7.914  -2.860  -1.234  0.00  0.00    +0.120 A 
ATOM      3  C   UNL     1      -9.122  -3.490  -1.290  0.00  0.00    +0.096 A 
ATOM      4  C   UNL     1      -9.189  -4.888  -1.271  0.00  0.00    +0.262 A 
ATOM      5  N   UNL     1      -8.047  -5.604  -1.197  0.00  0.00    -0.275 N 
ATOM      6  C   UNL     1      -6.858  -4.974  -1.148  0.00  0.00    +0.331 A 
ATOM      7  O   UNL     1      -5.838  -5.634  -1.088  0.00  0.00    -0.246 OA
ATOM      8  O   UNL     1     -10.268  -5.454  -1.319  0.00  0.00    -0.267 OA
ATOM      9  C   UNL     1     -10.172  -2.406  -1.364  0.00  0.00    +0.240 C 
ATOM     10  C   UNL     1      -9.361  -1.126  -1.341  0.00  0.00    +0.256 C 
ATOM     11  O   UNL     1      -9.791   0.007  -1.383  0.00  0.00    -0.272 OA
ATOM     12  N   UNL     1      -8.070  -1.495  -1.265  0.00  0.00    -0.269 N 
ATOM     13  H   UNL     1      -8.083  -6.573  -1.183  0.00  0.00    +0.173 HD
ATOM     14  H   UNL     1      -7.331  -0.868  -1.234  0.00  0.00    +0.156 HD
ENDROOT
BRANCH   9  15
ATOM     15  C   UNL     1     -11.104  -2.475  -0.153  0.00  0.00    +0.424 C 
ATOM     16  F   UNL     1     -10.346  -2.436   1.022  0.00  0.00    -0.167 F 
ATOM     17  F   UNL     1     -11.982  -1.386  -0.178  0.00  0.00    -0.167 F 
ATOM     18  F   UNL     1     -11.837  -3.666  -0.196  0.00  0.00    -0.167 F 
ENDBRANCH   9  15
BRANCH   9  19
ATOM     19  N   UNL     1     -10.934  -2.511  -2.611  0.00  0.00    -0.284 N 
ATOM     20  C   UNL     1     -10.296  -2.471  -3.797  0.00  0.00    +0.281 C 
ATOM     21  O   UNL     1      -9.080  -2.434  -3.832  0.00  0.00    -0.267 OA
ATOM     22  H   UNL     1     -11.899  -2.609  -2.582  0.00  0.00    +0.151 HD
BRANCH  20  23
ATOM     23  C   UNL     1     -11.066  -2.471  -5.045  0.00  0.00    +0.189 A 
ATOM     24  C   UNL     1     -10.547  -2.438  -6.308  0.00  0.00    +0.054 A 
ATOM     25  C   UNL     1     -11.637  -2.453  -7.192  0.00  0.00    +0.042 A 
ATOM     26  C   UNL     1     -12.759  -2.493  -6.439  0.00  0.00    +0.196 A 
ATOM     27  O   UNL     1     -12.411  -2.509  -5.146  0.00  0.00    -0.458 OA
ENDBRANCH  20  23
ENDBRANCH   9  19
BRANCH   1  28
ATOM     28  C   UNL     1      -5.462  -2.987  -1.100  0.00  0.00    +0.133 C 
BRANCH  28  29
ATOM     29  C   UNL     1      -5.082  -2.739   0.361  0.00  0.00    +0.057 C 
BRANCH  29  33
ATOM     30  C   UNL     1      -1.250  -0.847   0.537  0.00  0.00    +0.161 A 
ATOM     31  C   UNL     1      -2.402  -0.080   0.463  0.00  0.00    +0.049 A 
ATOM     32  C   UNL     1      -3.639  -0.695   0.405  0.00  0.00    +0.007 A 
ATOM     33  C   UNL     1      -3.731  -2.074   0.423  0.00  0.00    -0.042 A 
ATOM     34  C   UNL     1      -2.586  -2.845   0.498  0.00  0.00    +0.053 A 
ATOM     35  C   UNL     1      -1.342  -2.235   0.549  0.00  0.00    +0.162 A 
BRANCH  30  37
ATOM     36  C   UNL     1      -0.015   1.185   0.577  0.00  0.00    +0.277 C 
ATOM     37  O   UNL     1      -0.033  -0.244   0.593  0.00  0.00    -0.491 OA
ENDBRANCH  30  37
BRANCH  35  38
ATOM     38  O   UNL     1      -0.215  -2.992   0.617  0.00  0.00    -0.491 OA
ATOM     39  C   UNL     1      -0.385  -4.411   0.625  0.00  0.00    +0.277 C 
ENDBRANCH  35  38
ENDBRANCH  29  33
ENDBRANCH  28  29
ENDBRANCH   1  28
TORSDOF 8
