REMARK  Name = ZINC09408992
REMARK  13 active torsions:
REMARK  status: ('A' for Active; 'I' for Inactive)
REMARK    1  A    between atoms: C_1  and  C_2
REMARK    2  A    between atoms: C_2  and  C_3
REMARK    3  A    between atoms: C_2  and  C_4
REMARK    4  A    between atoms: C_4  and  C_5
REMARK    5  A    between atoms: C_5  and  O_6
REMARK    6  A    between atoms: O_6  and  C_7
REMARK    7  A    between atoms: C_10  and  C_15
REMARK    8  A    between atoms: C_12  and  O_13
REMARK    9  A    between atoms: O_13  and  C_14
REMARK   10  A    between atoms: C_18  and  C_32
REMARK   11  A    between atoms: N_25  and  C_26
REMARK   12  A    between atoms: C_26  and  C_27
REMARK   13  A    between atoms: C_37  and  O_38
REMARK                            x       y       z     vdW  Elec       q    Type
REMARK                         _______ _______ _______ _____ _____    ______ ____
ROOT
ATOM      1  C   UNL     1      -6.271   0.704  -5.511  0.00  0.00    +0.142 C 
ATOM      2  C   UNL     1      -7.096   1.961  -5.547  0.00  0.00    +0.035 A 
ATOM      3  C   UNL     1      -8.094   2.734  -4.944  0.00  0.00    +0.102 A 
ATOM      4  N   UNL     1      -8.252   3.817  -5.680  0.00  0.00    -0.173 NA
ATOM      5  N   UNL     1      -7.453   3.804  -6.686  0.00  0.00    -0.272 N 
ATOM      6  H   UNL     1      -7.395   4.499  -7.360  0.00  0.00    +0.189 HD
ATOM      7  C   UNL     1      -6.697   2.667  -6.666  0.00  0.00    +0.126 A 
ATOM      8  C   UNL     1      -5.645   1.905  -7.347  0.00  0.00    +0.266 C 
ATOM      9  O   UNL     1      -5.083   2.256  -8.367  0.00  0.00    -0.268 OA
ATOM     10  N   UNL     1      -5.389   0.760  -6.685  0.00  0.00    -0.278 N 
ENDROOT
BRANCH   1  14
ATOM     11  C   UNL     1      -3.945   0.568  -1.925  0.00  0.00    +0.162 A 
ATOM     12  C   UNL     1      -4.989  -0.324  -2.111  0.00  0.00    +0.050 A 
ATOM     13  C   UNL     1      -5.739  -0.278  -3.272  0.00  0.00    +0.009 A 
ATOM     14  C   UNL     1      -5.450   0.658  -4.248  0.00  0.00    -0.019 A 
ATOM     15  C   UNL     1      -4.410   1.551  -4.068  0.00  0.00    +0.055 A 
ATOM     16  C   UNL     1      -3.659   1.513  -2.905  0.00  0.00    +0.162 A 
BRANCH  16  17
ATOM     17  O   UNL     1      -2.639   2.395  -2.724  0.00  0.00    -0.491 OA
ATOM     18  C   UNL     1      -2.402   3.337  -3.772  0.00  0.00    +0.277 C 
ENDBRANCH  16  17
BRANCH  11  19
ATOM     19  O   UNL     1      -3.207   0.524  -0.783  0.00  0.00    -0.488 OA
BRANCH  19  20
ATOM     20  C   UNL     1      -3.558  -0.473   0.178  0.00  0.00    +0.229 C 
BRANCH  20  21
ATOM     21  C   UNL     1      -2.624  -0.368   1.385  0.00  0.00    +0.044 C 
BRANCH  21  23
ATOM     22  C   UNL     1      -2.747  -2.824   1.826  0.00  0.00    +0.007 C 
ATOM     23  C   UNL     1      -3.000  -1.435   2.415  0.00  0.00    -0.014 C 
ATOM     24  C   UNL     1      -2.149  -1.252   3.674  0.00  0.00    +0.007 C 
ENDBRANCH  21  23
ENDBRANCH  20  21
ENDBRANCH  19  20
ENDBRANCH  11  19
ENDBRANCH   1  14
BRANCH   3  25
ATOM     25  C   UNL     1      -8.838   2.397  -3.705  0.00  0.00    +0.044 A 
ATOM     26  C   UNL     1      -8.656   1.158  -3.095  0.00  0.00    +0.014 A 
ATOM     27  C   UNL     1      -9.351   0.850  -1.943  0.00  0.00    +0.001 A 
ATOM     28  C   UNL     1     -10.228   1.766  -1.391  0.00  0.00    +0.004 A 
ATOM     29  C   UNL     1     -10.417   2.998  -1.989  0.00  0.00    +0.046 A 
ATOM     30  C   UNL     1      -9.721   3.323  -3.143  0.00  0.00    +0.126 A 
BRANCH  30  31
ATOM     31  O   UNL     1      -9.900   4.536  -3.728  0.00  0.00    -0.506 OA
ATOM     32  H   UNL     1     -10.611   4.555  -4.384  0.00  0.00    +0.292 HD
ENDBRANCH  30  31
ENDBRANCH   3  25
BRANCH  10  33
ATOM     33  C   UNL     1      -4.402  -0.253  -7.067  0.00  0.00    +0.183 C 
BRANCH  33  34
ATOM     34  C   UNL     1      -5.050  -1.269  -7.971  0.00  0.00    +0.122 A 
ATOM     35  C   UNL     1      -5.107  -1.205  -9.313  0.00  0.00    +0.046 A 
ATOM     36  C   UNL     1      -5.801  -2.357  -9.749  0.00  0.00    +0.041 A 
ATOM     37  C   UNL     1      -6.126  -3.057  -8.648  0.00  0.00    +0.195 A 
ATOM     38  O   UNL     1      -5.664  -2.396  -7.574  0.00  0.00    -0.466 OA
ENDBRANCH  33  34
ENDBRANCH  10  33
TORSDOF 10
