REMARK  Name = ZINC19990206
REMARK  6 active torsions:
REMARK  status: ('A' for Active; 'I' for Inactive)
REMARK    1  A    between atoms: C_1  and  C_2
REMARK    2  A    between atoms: N_6  and  C_15
REMARK    3  A    between atoms: C_15  and  C_16
REMARK    4  A    between atoms: N_18  and  C_19
REMARK    5  A    between atoms: C_19  and  C_21
REMARK    6  A    between atoms: C_19  and  C_22
REMARK                            x       y       z     vdW  Elec       q    Type
REMARK                         _______ _______ _______ _____ _____    ______ ____
ROOT
ATOM      1  C   UNL     1       0.002  -0.004   0.002  0.00  0.00    +0.062 C 
ATOM      2  C   UNL     1      -0.019   1.526   0.010  0.00  0.00    +0.256 C 
ATOM      3  C   UNL     1       1.396   2.047  -0.000  0.00  0.00    +0.261 C 
ATOM      4  O   UNL     1       1.969   2.273   1.044  0.00  0.00    -0.271 OA
ATOM      5  N   UNL     1       2.022   2.260  -1.178  0.00  0.00    -0.256 N 
ATOM      6  C   UNL     1       1.325   2.024  -2.371  0.00  0.00    +0.080 A 
ATOM      7  C   UNL     1       2.000   1.918  -3.576  0.00  0.00    +0.047 A 
ATOM      8  C   UNL     1       1.293   1.684  -4.742  0.00  0.00    +0.043 A 
ATOM      9  C   UNL     1      -0.085   1.558  -4.707  0.00  0.00    +0.024 A 
ATOM     10  C   UNL     1      -0.763   1.663  -3.506  0.00  0.00    +0.049 A 
ATOM     11  C   UNL     1      -0.062   1.895  -2.336  0.00  0.00    +0.143 A 
ATOM     12  O   UNL     1      -0.714   1.999  -1.146  0.00  0.00    -0.478 OA
ATOM     13 CL   UNL     1       2.135   1.550  -6.254  0.00  0.00    -0.083 Cl
ENDROOT
BRANCH   5  14
ATOM     14  C   UNL     1       3.409   2.731  -1.208  0.00  0.00    +0.209 C 
BRANCH  14  15
ATOM     15  C   UNL     1       4.342   1.547  -1.219  0.00  0.00    +0.231 C 
ATOM     16  O   UNL     1       3.892   0.421  -1.203  0.00  0.00    -0.274 OA
ATOM     17  N   UNL     1       5.675   1.740  -1.246  0.00  0.00    -0.307 N 
ATOM     18  H   UNL     1       6.083   2.761  -1.260  0.00  0.00    +0.149 HD
BRANCH  17  19
ATOM     19  C   UNL     1       6.582   0.589  -1.257  0.00  0.00    +0.100 C 
ATOM     20  C   UNL     1       6.826   0.119   0.178  0.00  0.00    +0.033 C 
BRANCH  19  21
ATOM     21  C   UNL     1       7.892   0.987  -1.886  0.00  0.00    -0.027 A 
ATOM     22  C   UNL     1       8.440   2.227  -1.615  0.00  0.00    +0.005 A 
ATOM     23  C   UNL     1       9.644   2.591  -2.188  0.00  0.00    +0.000 A 
ATOM     24  C   UNL     1      10.296   1.718  -3.039  0.00  0.00    +0.000 A 
ATOM     25  C   UNL     1       9.746   0.479  -3.313  0.00  0.00    +0.000 A 
ATOM     26  C   UNL     1       8.544   0.114  -2.737  0.00  0.00    +0.005 A 
ENDBRANCH  19  21
ENDBRANCH  17  19
ENDBRANCH  14  15
ENDBRANCH   5  14
TORSDOF 4
