REMARK  Name = ZINC61589301
REMARK  4 active torsions:
REMARK  status: ('A' for Active; 'I' for Inactive)
REMARK    1  A    between atoms: C_5  and  O_10
REMARK    2  A    between atoms: C_6  and  N_7
REMARK    3  A    between atoms: O_10  and  C_11
REMARK    4  A    between atoms: C_11  and  C_17
REMARK                            x       y       z     vdW  Elec       q    Type
REMARK                         _______ _______ _______ _____ _____    ______ ____
ROOT
ATOM      1  C   UNL     1      -1.361   0.538  -0.480  0.00  0.00    +0.074 A 
ATOM      2  C   UNL     1      -0.625   1.693  -0.274  0.00  0.00    +0.127 A 
ATOM      3  C   UNL     1       0.715   1.611   0.062  0.00  0.00    +0.057 A 
ATOM      4  C   UNL     1       1.321   0.375   0.192  0.00  0.00    +0.065 A 
ATOM      5  C   UNL     1       0.584  -0.783  -0.014  0.00  0.00    +0.166 A 
ATOM      6  C   UNL     1      -0.759  -0.698  -0.350  0.00  0.00    +0.171 A 
ATOM      7 BR   UNL     1       3.152   0.262   0.651  0.00  0.00    -0.046 Br
ATOM      8  F   UNL     1      -1.216   2.901  -0.402  0.00  0.00    -0.205 F 
ENDROOT
BRANCH   6   9
ATOM      9  N   UNL     1      -1.546  -1.932  -0.571  0.00  0.00    +0.060 N 
ATOM     10  O   UNL     1      -2.714  -1.858  -0.875  0.00  0.00    -0.126 OA
ATOM     11  O   UNL     1      -1.022  -3.014  -0.446  0.00  0.00    -0.126 OA
ENDBRANCH   6   9
BRANCH   5  12
ATOM     12  O   UNL     1       1.178  -1.999   0.114  0.00  0.00    -0.470 OA
BRANCH  12  13
ATOM     13  C   UNL     1       1.280  -2.536   1.434  0.00  0.00    +0.219 C 
ATOM     14  C   UNL     1       1.470  -4.048   1.353  0.00  0.00    +0.061 C 
ATOM     15  C   UNL     1       2.573  -4.403   0.360  0.00  0.00    +0.015 C 
ATOM     16  C   UNL     1       3.938  -4.013   0.935  0.00  0.00    +0.069 C 
ATOM     17  S   UNL     1       3.975  -2.212   1.178  0.00  0.00    -0.156 S 
ATOM     18  C   UNL     1       2.473  -1.898   2.152  0.00  0.00    +0.129 C 
BRANCH  13  19
ATOM     19  C   UNL     1       0.016  -2.233   2.197  0.00  0.00    +0.400 C 
ATOM     20  O   UNL     1      -0.830  -1.504   1.709  0.00  0.00    -0.242 OA
ATOM     21  O   UNL     1      -0.160  -2.717   3.302  0.00  0.00    -0.242 OA
ENDBRANCH  13  19
ENDBRANCH  12  13
ENDBRANCH   5  12
TORSDOF 4
