REMARK  Name = ZINC00861448
REMARK  11 active torsions:
REMARK  status: ('A' for Active; 'I' for Inactive)
REMARK    1  A    between atoms: C_1  and  C_2
REMARK    2  A    between atoms: C_3  and  C_33
REMARK    3  A    between atoms: C_4  and  C_23
REMARK    4  A    between atoms: C_10  and  C_15
REMARK    5  A    between atoms: C_18  and  O_21
REMARK    6  A    between atoms: O_21  and  C_22
REMARK    7  A    between atoms: C_25  and  O_31
REMARK    8  A    between atoms: C_26  and  O_30
REMARK    9  A    between atoms: O_31  and  C_32
REMARK   10  A    between atoms: C_33  and  O_35
REMARK   11  A    between atoms: O_35  and  C_36
REMARK                            x       y       z     vdW  Elec       q    Type
REMARK                         _______ _______ _______ _____ _____    ______ ____
ROOT
ATOM      1  C   UNL     1      -1.635   9.969   3.972  0.00  0.00    +0.061 C 
ATOM      2  C   UNL     1      -1.266   9.499   2.589  0.00  0.00    +0.016 C 
ATOM      3  C   UNL     1      -1.409  10.329   1.541  0.00  0.00    +0.065 C 
ATOM      4  C   UNL     1      -1.046   9.899   0.151  0.00  0.00    +0.092 C 
ATOM      5  C   UNL     1      -0.947   8.397   0.058  0.00  0.00    +0.024 C 
ATOM      6  C   UNL     1      -0.822   7.644   1.171  0.00  0.00    +0.016 C 
ATOM      7  N   UNL     1      -0.789   8.231   2.407  0.00  0.00    -0.321 N 
ATOM      8  C   UNL     1      -0.719   6.141   1.085  0.00  0.00    +0.059 C 
ATOM      9  C   UNL     1      -0.040   5.747  -0.229  0.00  0.00    +0.032 C 
ATOM     10  C   UNL     1      -0.862   6.316  -1.390  0.00  0.00    +0.088 C 
ATOM     11  C   UNL     1      -0.985   7.806  -1.218  0.00  0.00    +0.162 C 
ATOM     12  O   UNL     1      -1.118   8.511  -2.198  0.00  0.00    -0.292 OA
ATOM     13  H   UNL     1      -0.373   7.673   3.259  0.00  0.00    +0.152 HD
ENDROOT
BRANCH   4  14
ATOM     14  C   UNL     1       0.282  10.506  -0.223  0.00  0.00    -0.030 A 
ATOM     15  C   UNL     1       0.365  11.374  -1.296  0.00  0.00    +0.054 A 
ATOM     16  C   UNL     1       1.585  11.933  -1.642  0.00  0.00    +0.163 A 
ATOM     17  C   UNL     1       2.724  11.620  -0.906  0.00  0.00    +0.177 A 
ATOM     18  C   UNL     1       2.634  10.750   0.169  0.00  0.00    +0.086 A 
ATOM     19  C   UNL     1       1.411  10.199   0.511  0.00  0.00    +0.028 A 
ATOM     20 CL   UNL     1       4.052  10.356   1.089  0.00  0.00    -0.080 Cl
BRANCH  17  21
ATOM     21  O   UNL     1       3.924  12.168  -1.241  0.00  0.00    -0.502 OA
ATOM     22  H   UNL     1       4.823  11.919  -0.659  0.00  0.00    +0.292 HD
ENDBRANCH  17  21
BRANCH  16  23
ATOM     23  O   UNL     1       1.669  12.786  -2.698  0.00  0.00    -0.491 OA
ATOM     24  C   UNL     1       0.459  13.061  -3.407  0.00  0.00    +0.277 C 
ENDBRANCH  16  23
ENDBRANCH   4  14
BRANCH   9  25
ATOM     25  C   UNL     1       0.017   4.245  -0.339  0.00  0.00    -0.043 A 
ATOM     26  C   UNL     1       1.240   3.607  -0.443  0.00  0.00    +0.007 A 
ATOM     27  C   UNL     1       1.295   2.230  -0.544  0.00  0.00    +0.046 A 
ATOM     28  C   UNL     1       0.123   1.488  -0.540  0.00  0.00    +0.120 A 
ATOM     29  C   UNL     1      -1.102   2.131  -0.441  0.00  0.00    +0.046 A 
ATOM     30  C   UNL     1      -1.152   3.507  -0.335  0.00  0.00    +0.007 A 
BRANCH  28  31
ATOM     31  O   UNL     1       0.175   0.133  -0.640  0.00  0.00    -0.495 OA
ATOM     32  C   UNL     1      -1.071  -0.566  -0.629  0.00  0.00    +0.277 C 
ENDBRANCH  28  31
ENDBRANCH   9  25
BRANCH   3  33
ATOM     33  C   UNL     1      -1.912  11.634   1.754  0.00  0.00    +0.337 C 
ATOM     34  O   UNL     1      -2.309  11.961   2.857  0.00  0.00    -0.245 OA
BRANCH  33  35
ATOM     35  O   UNL     1      -1.952  12.517   0.734  0.00  0.00    -0.465 OA
ATOM     36  C   UNL     1      -2.473  13.816   1.021  0.00  0.00    +0.280 C 
ENDBRANCH  33  35
ENDBRANCH   3  33
TORSDOF 7
