REMARK  Name = ZINC39552556
REMARK  8 active torsions:
REMARK  status: ('A' for Active; 'I' for Inactive)
REMARK    1  A    between atoms: C_4  and  C_7
REMARK    2  A    between atoms: C_10  and  C_13
REMARK    3  A    between atoms: C_13  and  N_14
REMARK    4  A    between atoms: C_15  and  C_17
REMARK    5  A    between atoms: C_17  and  C_18
REMARK    6  A    between atoms: C_18  and  C_19
REMARK    7  A    between atoms: C_19  and  C_25
REMARK    8  A    between atoms: C_25  and  C_26
REMARK                            x       y       z     vdW  Elec       q    Type
REMARK                         _______ _______ _______ _____ _____    ______ ____
ROOT
ATOM      1  C   UNL     1       1.678  -6.630   3.259  0.00  0.00    +0.098 C 
ENDROOT
BRANCH   1   3
ATOM      2  N   UNL     1       2.732  -5.145   1.584  0.00  0.00    -0.310 N 
ATOM      3  C   UNL     1       2.838  -5.813   2.750  0.00  0.00    +0.213 C 
ATOM      4  O   UNL     1       3.867  -5.758   3.389  0.00  0.00    -0.276 OA
ATOM      5  H   UNL     1       1.909  -5.190   1.073  0.00  0.00    +0.149 HD
BRANCH   2   6
ATOM      6  C   UNL     1       3.860  -4.352   1.089  0.00  0.00    +0.161 C 
BRANCH   6   9
ATOM      7  C   UNL     1       2.983  -2.275  -1.881  0.00  0.00    +0.153 C 
ATOM      8  C   UNL     1       3.372  -2.395  -0.417  0.00  0.00    +0.030 C 
ATOM      9  C   UNL     1       3.486  -3.711  -0.222  0.00  0.00    +0.076 C 
ATOM     10  N   UNL     1       3.221  -4.390  -1.360  0.00  0.00    -0.181 NA
ATOM     11  N   UNL     1       2.935  -3.677  -2.330  0.00  0.00    -0.297 N 
ATOM     12  H   UNL     1       2.717  -3.983  -3.225  0.00  0.00    +0.183 HD
BRANCH   7  16
ATOM     13  C   UNL     1      -0.848  -0.429  -2.282  0.00  0.00    +0.000 A 
ATOM     14  C   UNL     1       0.300   0.303  -2.522  0.00  0.00    +0.000 A 
ATOM     15  C   UNL     1       1.540  -0.295  -2.392  0.00  0.00    +0.006 A 
ATOM     16  C   UNL     1       1.631  -1.623  -2.021  0.00  0.00    -0.020 A 
ATOM     17  C   UNL     1       0.483  -2.355  -1.781  0.00  0.00    +0.006 A 
ATOM     18  C   UNL     1      -0.756  -1.758  -1.912  0.00  0.00    +0.000 A 
ENDBRANCH   7  16
ENDBRANCH   6   9
ENDBRANCH   2   6
ENDBRANCH   1   3
BRANCH   1  19
ATOM     19  C   UNL     1       2.058  -7.280   4.590  0.00  0.00    +0.035 C 
BRANCH  19  20
ATOM     20  C   UNL     1       0.930  -8.210   5.043  0.00  0.00    +0.039 C 
ATOM     21  C   UNL     1      -0.377  -7.411   5.236  0.00  0.00    +0.035 C 
ATOM     22  C   UNL     1      -1.442  -8.429   4.766  0.00  0.00    +0.098 C 
ATOM     23  C   UNL     1      -0.690  -9.344   3.825  0.00  0.00    +0.214 C 
ATOM     24  O   UNL     1      -1.207 -10.100   3.029  0.00  0.00    -0.276 OA
ATOM     25  N   UNL     1       0.635  -9.197   3.997  0.00  0.00    -0.309 N 
ATOM     26  H   UNL     1       1.310  -9.681   3.495  0.00  0.00    +0.149 HD
BRANCH  20  27
ATOM     27  C   UNL     1       1.318  -8.917   6.343  0.00  0.00    +0.061 C 
BRANCH  27  28
ATOM     28  C   UNL     1       2.526  -9.785   6.103  0.00  0.00    -0.042 A 
ATOM     29  C   UNL     1       2.369 -11.064   5.604  0.00  0.00    +0.007 A 
ATOM     30  C   UNL     1       3.474 -11.864   5.381  0.00  0.00    +0.050 A 
ATOM     31  C   UNL     1       4.744 -11.384   5.658  0.00  0.00    +0.166 A 
ATOM     32  C   UNL     1       4.903 -10.095   6.161  0.00  0.00    +0.166 A 
ATOM     33  C   UNL     1       3.791  -9.297   6.376  0.00  0.00    +0.053 A 
ATOM     34  O   UNL     1       6.235  -9.861   6.349  0.00  0.00    -0.453 OA
ATOM     35  C   UNL     1       6.857 -11.159   6.343  0.00  0.00    +0.466 C 
ATOM     36  O   UNL     1       5.976 -11.957   5.531  0.00  0.00    -0.453 OA
ENDBRANCH  27  28
ENDBRANCH  20  27
ENDBRANCH  19  20
ENDBRANCH   1  19
TORSDOF 8
