REMARK  Name = ZINC35870263
REMARK  6 active torsions:
REMARK  status: ('A' for Active; 'I' for Inactive)
REMARK    1  A    between atoms: C_1  and  C_2
REMARK    2  A    between atoms: C_2  and  C_4
REMARK    3  A    between atoms: C_2  and  N_10
REMARK    4  A    between atoms: C_11  and  C_13
REMARK    5  A    between atoms: C_18  and  N_36
REMARK    6  A    between atoms: N_26  and  C_29
REMARK                            x       y       z     vdW  Elec       q    Type
REMARK                         _______ _______ _______ _____ _____    ______ ____
ROOT
ATOM      1  C   UNL     1      -3.442  -1.177   1.191  0.00  0.00    +0.101 C 
ATOM      2  C   UNL     1      -4.334  -0.243   0.374  0.00  0.00    +0.051 C 
ATOM      3  C   UNL     1      -4.361   1.107   1.043  0.00  0.00    -0.023 A 
ATOM      4  C   UNL     1      -4.552   2.244   0.278  0.00  0.00    +0.038 A 
ATOM      5  C   UNL     1      -4.568   3.488   0.881  0.00  0.00    +0.127 A 
ATOM      6  C   UNL     1      -4.392   3.598   2.248  0.00  0.00    +0.034 A 
ATOM      7  C   UNL     1      -4.205   2.466   3.015  0.00  0.00    +0.025 A 
ATOM      8  C   UNL     1      -4.195   1.212   2.412  0.00  0.00    +0.033 A 
ATOM      9  N   UNL     1      -4.029   0.076   3.224  0.00  0.00    -0.323 N 
ATOM     10  C   UNL     1      -3.948  -1.247   2.636  0.00  0.00    +0.103 C 
ATOM     11  C   UNL     1      -3.048  -2.195   3.412  0.00  0.00    +0.128 C 
ATOM     12  N   UNL     1      -3.054  -1.943   4.839  0.00  0.00    -0.325 N 
ATOM     13  C   UNL     1      -3.042  -0.600   5.396  0.00  0.00    +0.124 C 
ATOM     14  C   UNL     1      -4.004   0.306   4.667  0.00  0.00    +0.124 C 
ENDROOT
BRANCH  12  15
ATOM     15  C   UNL     1      -3.073  -3.032   5.713  0.00  0.00    +0.048 A 
ATOM     16  C   UNL     1      -1.880  -3.586   6.162  0.00  0.00    +0.024 A 
ATOM     17  C   UNL     1      -1.902  -4.662   7.026  0.00  0.00    +0.002 A 
ATOM     18  C   UNL     1      -3.109  -5.190   7.446  0.00  0.00    +0.002 A 
ATOM     19  C   UNL     1      -4.299  -4.642   7.003  0.00  0.00    +0.022 A 
ATOM     20  C   UNL     1      -4.285  -3.561   6.142  0.00  0.00    +0.062 A 
ATOM     21 CL   UNL     1      -5.778  -2.870   5.590  0.00  0.00    -0.082 Cl
ENDBRANCH  12  15
BRANCH   1  23
ATOM     22  N   UNL     1      -1.372  -0.511   0.012  0.00  0.00    -0.308 N 
ATOM     23  C   UNL     1      -2.029  -0.655   1.181  0.00  0.00    +0.219 C 
ATOM     24  O   UNL     1      -1.481  -0.365   2.224  0.00  0.00    -0.275 OA
ATOM     25  H   UNL     1      -1.810  -0.743  -0.822  0.00  0.00    +0.149 HD
BRANCH  22  27
ATOM     26  C   UNL     1      -0.019   1.526   0.010  0.00  0.00    +0.033 C 
ATOM     27  C   UNL     1       0.002  -0.004   0.002  0.00  0.00    +0.100 C 
BRANCH  27  28
ATOM     28  C   UNL     1       0.707  -0.490  -1.238  0.00  0.00    -0.027 A 
ATOM     29  C   UNL     1       0.038  -0.522  -2.447  0.00  0.00    +0.005 A 
ATOM     30  C   UNL     1       0.685  -0.967  -3.584  0.00  0.00    +0.000 A 
ATOM     31  C   UNL     1       2.002  -1.381  -3.513  0.00  0.00    +0.000 A 
ATOM     32  C   UNL     1       2.672  -1.349  -2.304  0.00  0.00    +0.000 A 
ATOM     33  C   UNL     1       2.026  -0.899  -1.167  0.00  0.00    +0.005 A 
ENDBRANCH  27  28
ENDBRANCH  22  27
ENDBRANCH   1  23
BRANCH   5  34
ATOM     34  N   UNL     1      -4.773   4.703   0.062  0.00  0.00    +0.056 N 
ATOM     35  O   UNL     1      -4.927   4.608  -1.133  0.00  0.00    -0.126 OA
ATOM     36  O   UNL     1      -4.788   5.792   0.588  0.00  0.00    -0.126 OA
ENDBRANCH   5  34
TORSDOF 5
