REMARK  Name = ZINC49473110
REMARK  6 active torsions:
REMARK  status: ('A' for Active; 'I' for Inactive)
REMARK    1  A    between atoms: C_1  and  C_2
REMARK    2  A    between atoms: C_2  and  C_3
REMARK    3  A    between atoms: C_2  and  C_4
REMARK    4  A    between atoms: C_14  and  N_16
REMARK    5  A    between atoms: C_17  and  C_19
REMARK    6  A    between atoms: C_20  and  C_21
REMARK                            x       y       z     vdW  Elec       q    Type
REMARK                         _______ _______ _______ _____ _____    ______ ____
ROOT
ATOM      1  C   UNL     1      -3.109   0.241  -1.649  0.00  0.00    -0.031 A 
ATOM      2  C   UNL     1      -3.700  -0.314  -2.738  0.00  0.00    +0.074 A 
ATOM      3  C   UNL     1      -5.065  -0.667  -2.702  0.00  0.00    +0.249 A 
ATOM      4  O   UNL     1      -5.576  -1.163  -3.691  0.00  0.00    -0.268 OA
ATOM      5  N   UNL     1      -5.816  -0.471  -1.605  0.00  0.00    -0.322 N 
ATOM      6  H   UNL     1      -6.752  -0.727  -1.614  0.00  0.00    +0.169 HD
ATOM      7  C   UNL     1      -5.275   0.087  -0.465  0.00  0.00    +0.051 A 
ATOM      8  C   UNL     1      -3.914   0.453  -0.448  0.00  0.00    +0.002 A 
ATOM      9  C   UNL     1      -3.356   1.016   0.706  0.00  0.00    +0.012 A 
ATOM     10  C   UNL     1      -4.131   1.203   1.813  0.00  0.00    +0.024 A 
ATOM     11  C   UNL     1      -5.478   0.838   1.804  0.00  0.00    +0.036 A 
ATOM     12  C   UNL     1      -6.051   0.288   0.668  0.00  0.00    +0.049 A 
ENDROOT
BRANCH  11  13
ATOM     13  N   UNL     1      -6.256   1.036   2.944  0.00  0.00    -0.282 N 
ATOM     14  C   UNL     1      -7.234   0.162   3.253  0.00  0.00    +0.241 C 
ATOM     15  O   UNL     1      -7.381  -0.848   2.588  0.00  0.00    -0.270 OA
ATOM     16  H   UNL     1      -6.093   1.803   3.515  0.00  0.00    +0.155 HD
BRANCH  14  17
ATOM     17  C   UNL     1      -8.120   0.425   4.386  0.00  0.00    +0.068 C 
ATOM     18  C   UNL     1      -9.010  -0.510   4.779  0.00  0.00    +0.013 C 
BRANCH  18  19
ATOM     19  C   UNL     1      -8.939  -1.870   4.227  0.00  0.00    -0.021 A 
ATOM     20  C   UNL     1      -7.707  -2.529   4.138  0.00  0.00    +0.012 A 
ATOM     21  C   UNL     1      -7.644  -3.803   3.620  0.00  0.00    +0.050 A 
ATOM     22  C   UNL     1      -8.799  -4.440   3.185  0.00  0.00    +0.166 A 
ATOM     23  C   UNL     1     -10.031  -3.789   3.270  0.00  0.00    +0.167 A 
ATOM     24  C   UNL     1     -10.104  -2.514   3.793  0.00  0.00    +0.057 A 
ATOM     25  O   UNL     1     -10.997  -4.622   2.782  0.00  0.00    -0.453 OA
ATOM     26  C   UNL     1     -10.294  -5.622   2.022  0.00  0.00    +0.466 C 
ATOM     27  O   UNL     1      -8.997  -5.676   2.644  0.00  0.00    -0.453 OA
ENDBRANCH  18  19
ENDBRANCH  14  17
ENDBRANCH  11  13
BRANCH   1  29
ATOM     28  C   UNL     1      -0.839  -0.408  -0.891  0.00  0.00    +0.012 C 
ATOM     29  C   UNL     1      -1.651   0.623  -1.677  0.00  0.00    +0.014 C 
ATOM     30  C   UNL     1      -1.161   0.662  -3.126  0.00  0.00    +0.012 C 
ENDBRANCH   1  29
TORSDOF 4
