REMARK  Name = ZINC09754508
REMARK  8 active torsions:
REMARK  status: ('A' for Active; 'I' for Inactive)
REMARK    1  A    between atoms: C_1  and  C_2
REMARK    2  A    between atoms: C_4  and  C_18
REMARK    3  A    between atoms: C_5  and  C_17
REMARK    4  A    between atoms: N_6  and  C_7
REMARK    5  A    between atoms: C_18  and  C_20
REMARK    6  A    between atoms: C_20  and  N_21
REMARK    7  A    between atoms: C_24  and  C_28
REMARK    8  A    between atoms: C_24  and  C_29
REMARK                            x       y       z     vdW  Elec       q    Type
REMARK                         _______ _______ _______ _____ _____    ______ ____
ROOT
ATOM      1  C   UNL     1      -6.771  -1.835  -1.396  0.00  0.00    +0.183 C 
ATOM      2  O   UNL     1      -6.923  -1.322  -2.485  0.00  0.00    -0.290 OA
ENDROOT
BRANCH   1   6
ATOM      3  C   UNL     1      -3.277  -1.823   2.313  0.00  0.00    +0.064 C 
ATOM      4  C   UNL     1      -4.029  -1.560   1.034  0.00  0.00    +0.022 A 
ATOM      5  C   UNL     1      -5.222  -2.086   0.710  0.00  0.00    +0.034 A 
ATOM      6  C   UNL     1      -5.564  -1.553  -0.616  0.00  0.00    +0.040 A 
ATOM      7  C   UNL     1      -4.515  -0.727  -0.974  0.00  0.00    +0.031 A 
ATOM      8  N   UNL     1      -3.607  -0.747   0.020  0.00  0.00    -0.317 N 
ATOM      9  C   UNL     1      -4.406   0.058  -2.256  0.00  0.00    +0.064 C 
BRANCH   8  10
ATOM     10  C   UNL     1      -2.400  -0.032   0.017  0.00  0.00    +0.050 A 
ATOM     11  C   UNL     1      -2.416   1.356   0.026  0.00  0.00    +0.030 A 
ATOM     12  C   UNL     1      -1.228   2.062   0.019  0.00  0.00    +0.051 A 
ATOM     13  C   UNL     1      -0.017   1.386   0.010  0.00  0.00    +0.162 A 
ATOM     14  C   UNL     1       0.002  -0.004   0.002  0.00  0.00    +0.164 A 
ATOM     15  C   UNL     1      -1.190  -0.711   0.004  0.00  0.00    +0.075 A 
ATOM     16  O   UNL     1       1.181  -0.685  -0.007  0.00  0.00    -0.485 OA
ATOM     17  C   UNL     1       2.347   0.053  -0.388  0.00  0.00    +0.270 C 
ATOM     18  C   UNL     1       2.335   1.391   0.364  0.00  0.00    +0.270 C 
ATOM     19  O   UNL     1       1.144   2.098   0.002  0.00  0.00    -0.485 OA
ENDBRANCH   8  10
ENDBRANCH   1   6
BRANCH   1  20
ATOM     20  C   UNL     1      -7.823  -2.763  -0.846  0.00  0.00    +0.197 C 
BRANCH  20  21
ATOM     21  N   UNL     1      -8.922  -2.880  -1.808  0.00  0.00    -0.216 N 
ATOM     22  C   UNL     1      -8.977  -3.806  -2.785  0.00  0.00    +0.251 C 
ATOM     23  O   UNL     1      -8.157  -4.667  -3.026  0.00  0.00    -0.272 OA
ATOM     24  C   UNL     1     -10.277  -3.548  -3.522  0.00  0.00    +0.135 C 
ATOM     25  N   UNL     1     -10.857  -2.399  -2.807  0.00  0.00    -0.281 N 
ATOM     26  C   UNL     1      -9.997  -2.084  -1.821  0.00  0.00    +0.310 C 
ATOM     27  O   UNL     1     -10.175  -1.176  -1.033  0.00  0.00    -0.252 OA
ATOM     28  C   UNL     1     -11.199  -4.766  -3.429  0.00  0.00    +0.047 C 
ATOM     29  H   UNL     1     -11.697  -1.957  -3.006  0.00  0.00    +0.152 HD
BRANCH  24  30
ATOM     30  C   UNL     1     -10.009  -3.196  -4.963  0.00  0.00    -0.016 A 
ATOM     31  C   UNL     1      -8.896  -3.707  -5.603  0.00  0.00    +0.006 A 
ATOM     32  C   UNL     1      -8.652  -3.388  -6.926  0.00  0.00    +0.000 A 
ATOM     33  C   UNL     1      -9.517  -2.550  -7.605  0.00  0.00    +0.000 A 
ATOM     34  C   UNL     1     -10.627  -2.035  -6.963  0.00  0.00    +0.000 A 
ATOM     35  C   UNL     1     -10.873  -2.358  -5.641  0.00  0.00    +0.006 A 
ENDBRANCH  24  30
ENDBRANCH  20  21
ENDBRANCH   1  20
TORSDOF 5
