REMARK  Name = ZINC39661356
REMARK  6 active torsions:
REMARK  status: ('A' for Active; 'I' for Inactive)
REMARK    1  A    between atoms: C_1  and  C_2
REMARK    2  A    between atoms: C_12  and  O_13
REMARK    3  A    between atoms: O_13  and  C_14
REMARK    4  A    between atoms: C_14  and  C_15
REMARK    5  A    between atoms: C_19  and  C_28
REMARK    6  A    between atoms: N_30  and  C_31
REMARK                            x       y       z     vdW  Elec       q    Type
REMARK                         _______ _______ _______ _____ _____    ______ ____
ROOT
ATOM      1  C   UNL     1       0.143  -6.577   3.309  0.00  0.00    +0.253 C 
ATOM      2  O   UNL     1       0.089  -7.038   2.188  0.00  0.00    -0.272 OA
ATOM      3  N   UNL     1       0.125  -7.398   4.377  0.00  0.00    -0.297 N 
ATOM      4  C   UNL     1       0.175  -7.025   5.811  0.00  0.00    +0.121 C 
ATOM      5  C   UNL     1      -0.808  -7.996   6.502  0.00  0.00    +0.100 C 
ATOM      6  C   UNL     1      -0.885  -9.211   5.562  0.00  0.00    -0.004 C 
ATOM      7  C   UNL     1       0.043  -8.879   4.385  0.00  0.00    +0.115 C 
ATOM      8  C   UNL     1      -0.399 -10.466   6.280  0.00  0.00    -0.010 C 
ATOM      9  C   UNL     1      -0.540 -11.671   5.345  0.00  0.00    -0.082 C 
ATOM     10  N   UNL     1      -1.944 -11.823   4.948  0.00  0.00    +0.379 N 
ATOM     11  C   UNL     1      -2.376 -10.651   4.177  0.00  0.00    -0.082 C 
ATOM     12  C   UNL     1      -2.314  -9.403   5.063  0.00  0.00    -0.010 C 
ATOM     13  H   UNL     1      -2.044 -12.652   4.381  0.00  0.00    -0.086 HD
ATOM     14  H   UNL     1      -2.518 -11.912   5.773  0.00  0.00    -0.086 HD
ENDROOT
BRANCH   5  15
ATOM     15  C   UNL     1      -0.279  -8.406   7.852  0.00  0.00    +0.219 C 
ATOM     16  O   UNL     1       0.917  -8.472   8.040  0.00  0.00    -0.275 OA
ATOM     17  N   UNL     1      -1.135  -8.700   8.850  0.00  0.00    -0.304 N 
ATOM     18  H   UNL     1      -2.092  -8.648   8.700  0.00  0.00    +0.149 HD
BRANCH  17  19
ATOM     19  C   UNL     1      -0.621  -9.099  10.162  0.00  0.00    +0.151 C 
ATOM     20  C   UNL     1      -1.658  -9.984  10.856  0.00  0.00    +0.042 C 
ATOM     21  C   UNL     1      -1.395  -9.913  12.379  0.00  0.00    +0.079 C 
ATOM     22  S   UNL     1      -0.689  -8.229  12.556  0.00  0.00    -0.086 S 
ATOM     23  C   UNL     1      -0.310  -7.859  10.966  0.00  0.00    +0.209 C 
ATOM     24  O   UNL     1       0.128  -6.807  10.546  0.00  0.00    -0.283 OA
ENDBRANCH  17  19
ENDBRANCH   5  15
BRANCH   1  25
ATOM     25  C   UNL     1       0.231  -5.085   3.506  0.00  0.00    +0.324 C 
BRANCH  25  26
ATOM     26  O   UNL     1       0.234  -4.436   2.233  0.00  0.00    -0.479 OA
BRANCH  26  38
ATOM     27  C   UNL     1       0.486   1.253  -0.263  0.00  0.00    +0.045 C 
ATOM     28  C   UNL     1       0.403  -0.251  -0.230  0.00  0.00    -0.033 A 
ATOM     29  C   UNL     1       0.335  -0.971  -1.379  0.00  0.00    +0.096 A 
ATOM     30  C   UNL     1       0.259  -2.379  -1.321  0.00  0.00    +0.338 A 
ATOM     31  O   UNL     1       0.199  -3.014  -2.358  0.00  0.00    -0.245 OA
ATOM     32  O   UNL     1       0.252  -3.037  -0.151  0.00  0.00    -0.418 OA
ATOM     33  C   UNL     1       0.318  -2.380   1.027  0.00  0.00    +0.181 A 
ATOM     34  C   UNL     1       0.401  -0.978   1.043  0.00  0.00    +0.024 A 
ATOM     35  C   UNL     1       0.475  -0.295   2.262  0.00  0.00    +0.012 A 
ATOM     36  C   UNL     1       0.471  -1.004   3.442  0.00  0.00    +0.004 A 
ATOM     37  C   UNL     1       0.394  -2.389   3.429  0.00  0.00    +0.049 A 
ATOM     38  C   UNL     1       0.310  -3.079   2.233  0.00  0.00    +0.164 A 
ENDBRANCH  26  38
ENDBRANCH  25  26
ENDBRANCH   1  25
TORSDOF 5
