REMARK  Name = ZINC09776252
REMARK  6 active torsions:
REMARK  status: ('A' for Active; 'I' for Inactive)
REMARK    1  A    between atoms: C_1  and  O_2
REMARK    2  A    between atoms: O_2  and  C_3
REMARK    3  A    between atoms: C_6  and  C_9
REMARK    4  A    between atoms: C_11  and  C_28
REMARK    5  A    between atoms: N_21  and  C_22
REMARK    6  A    between atoms: N_33  and  C_36
REMARK                            x       y       z     vdW  Elec       q    Type
REMARK                         _______ _______ _______ _____ _____    ______ ____
ROOT
ATOM      1  C   UNL     1       4.670   0.118  -0.844  0.00  0.00    +0.123 C 
ATOM      2  C   UNL     1       3.711  -0.720  -0.002  0.00  0.00    +0.131 C 
ATOM      3  C   UNL     1       2.371  -0.038   0.090  0.00  0.00    -0.021 A 
ATOM      4  C   UNL     1       1.210  -0.777   0.172  0.00  0.00    +0.005 A 
ATOM      5  C   UNL     1      -0.012  -0.135   0.273  0.00  0.00    +0.000 A 
ATOM      6  C   UNL     1      -0.078   1.247   0.298  0.00  0.00    +0.001 A 
ATOM      7  C   UNL     1       1.078   1.998   0.216  0.00  0.00    +0.013 A 
ATOM      8  C   UNL     1       2.309   1.356   0.105  0.00  0.00    +0.041 A 
ATOM      9  C   UNL     1       3.563   2.131  -0.009  0.00  0.00    +0.248 C 
ATOM     10  O   UNL     1       3.573   3.322   0.234  0.00  0.00    -0.270 OA
ATOM     11  N   UNL     1       4.694   1.504  -0.384  0.00  0.00    -0.286 N 
ENDROOT
BRANCH   2  12
ATOM     12  C   UNL     1       3.539  -2.073  -0.643  0.00  0.00    +0.225 C 
ATOM     13  O   UNL     1       2.649  -2.256  -1.446  0.00  0.00    -0.275 OA
ATOM     14  N   UNL     1       4.376  -3.081  -0.324  0.00  0.00    -0.298 N 
ATOM     15  C   UNL     1       5.399  -2.911   0.719  0.00  0.00    +0.126 C 
ATOM     16  C   UNL     1       5.276  -4.080   1.709  0.00  0.00    +0.125 C 
ATOM     17  N   UNL     1       5.346  -5.349   0.973  0.00  0.00    -0.314 N 
ATOM     18  C   UNL     1       4.219  -5.486   0.040  0.00  0.00    +0.125 C 
ATOM     19  C   UNL     1       4.295  -4.377  -1.015  0.00  0.00    +0.126 C 
BRANCH  17  20
ATOM     20  C   UNL     1       5.404  -6.429   1.845  0.00  0.00    +0.099 A 
ATOM     21  C   UNL     1       6.410  -6.486   2.805  0.00  0.00    +0.042 A 
ATOM     22  C   UNL     1       6.454  -7.564   3.671  0.00  0.00    +0.005 A 
ATOM     23  C   UNL     1       5.493  -8.558   3.540  0.00  0.00    +0.018 A 
ATOM     24  C   UNL     1       4.527  -8.440   2.561  0.00  0.00    +0.084 A 
ATOM     25  N   UNL     1       4.450  -7.393   1.697  0.00  0.00    -0.350 N 
ATOM     26  H   UNL     1       3.720  -7.331   0.978  0.00  0.00    +0.166 HD
ENDBRANCH  17  20
ENDBRANCH   2  12
BRANCH   1  30
ATOM     27  C   UNL     1       3.412   0.014  -4.927  0.00  0.00    +0.120 A 
ATOM     28  C   UNL     1       4.450  -0.801  -4.498  0.00  0.00    +0.046 A 
ATOM     29  C   UNL     1       4.855  -0.765  -3.178  0.00  0.00    +0.009 A 
ATOM     30  C   UNL     1       4.226   0.081  -2.284  0.00  0.00    -0.026 A 
ATOM     31  C   UNL     1       3.188   0.890  -2.707  0.00  0.00    +0.009 A 
ATOM     32  C   UNL     1       2.783   0.863  -4.027  0.00  0.00    +0.046 A 
BRANCH  27  34
ATOM     33  C   UNL     1       1.938   0.848  -6.595  0.00  0.00    +0.277 C 
ATOM     34  O   UNL     1       3.013  -0.018  -6.225  0.00  0.00    -0.495 OA
ENDBRANCH  27  34
ENDBRANCH   1  30
BRANCH  11  35
ATOM     35  C   UNL     1       5.969   2.224  -0.330  0.00  0.00    +0.077 C 
ATOM     36  C   UNL     1       6.244   2.668   1.108  0.00  0.00    +0.022 C 
ATOM     37  C   UNL     1       7.575   3.420   1.164  0.00  0.00    +0.002 C 
ATOM     38  C   UNL     1       7.506   4.648   0.255  0.00  0.00    +0.000 C 
ATOM     39  C   UNL     1       7.232   4.204  -1.183  0.00  0.00    +0.002 C 
ATOM     40  C   UNL     1       5.900   3.453  -1.239  0.00  0.00    +0.022 C 
ENDBRANCH  11  35
TORSDOF 5
