REMARK  Name = ZINC18195466
REMARK  3 active torsions:
REMARK  status: ('A' for Active; 'I' for Inactive)
REMARK    1  A    between atoms: C_4  and  O_24
REMARK    2  A    between atoms: C_5  and  C_7
REMARK    3  A    between atoms: C_14  and  O_15
REMARK                            x       y       z     vdW  Elec       q    Type
REMARK                         _______ _______ _______ _____ _____    ______ ____
ROOT
ATOM      1  C   UNL     1       1.149   3.593   0.010  0.00  0.00    +0.096 C 
ATOM      2  C   UNL     1       0.427   4.089  -1.211  0.00  0.00    +0.067 A 
ATOM      3  C   UNL     1      -0.831   4.628  -1.152  0.00  0.00    +0.126 A 
ATOM      4  N   UNL     1      -1.193   4.966  -2.404  0.00  0.00    -0.260 N 
ATOM      5  H   UNL     1      -2.062   5.380  -2.675  0.00  0.00    +0.190 HD
ATOM      6  N   UNL     1      -0.131   4.634  -3.260  0.00  0.00    -0.134 NA
ATOM      7  C   UNL     1       0.837   4.109  -2.541  0.00  0.00    +0.237 A 
ATOM      8  N   UNL     1      -1.510   4.750   0.054  0.00  0.00    -0.303 N 
ATOM      9  C   UNL     1      -0.801   4.613   1.222  0.00  0.00    +0.017 C 
ATOM     10  C   UNL     1       0.439   4.080   1.255  0.00  0.00    +0.024 C 
ATOM     11  C   UNL     1       1.136   3.951   2.470  0.00  0.00    +0.162 C 
ATOM     12  O   UNL     1       2.254   3.475   2.466  0.00  0.00    -0.292 OA
ATOM     13  C   UNL     1       0.528   4.388   3.774  0.00  0.00    +0.080 C 
ATOM     14  C   UNL     1      -0.996   4.261   3.676  0.00  0.00    +0.014 C 
ATOM     15  C   UNL     1      -1.472   5.096   2.487  0.00  0.00    +0.051 C 
ATOM     16  H   UNL     1      -2.464   4.927   0.071  0.00  0.00    +0.153 HD
ENDROOT
BRANCH   1  21
ATOM     17  C   UNL     1       0.002  -0.004   0.002  0.00  0.00    +0.001 A 
ATOM     18  C   UNL     1       1.208  -0.681  -0.014  0.00  0.00    +0.004 A 
ATOM     19  C   UNL     1       2.396   0.022  -0.022  0.00  0.00    +0.046 A 
ATOM     20  C   UNL     1       2.380   1.409  -0.014  0.00  0.00    +0.121 A 
ATOM     21  C   UNL     1       1.170   2.086   0.002  0.00  0.00    +0.006 A 
ATOM     22  C   UNL     1      -0.017   1.378   0.010  0.00  0.00    +0.008 A 
BRANCH  20  23
ATOM     23  O   UNL     1       3.548   2.104  -0.021  0.00  0.00    -0.506 OA
ATOM     24  H   UNL     1       3.878   2.310  -0.907  0.00  0.00    +0.292 HD
ENDBRANCH  20  23
ENDBRANCH   1  21
BRANCH   7  25
ATOM     25  O   UNL     1       2.031   3.663  -3.014  0.00  0.00    -0.491 OA
ATOM     26  H   UNL     1       2.067   3.794  -4.005  0.00  0.00    +0.294 HD
ENDBRANCH   7  25
TORSDOF 3
