REMARK  Name = ZINC44689525
REMARK  4 active torsions:
REMARK  status: ('A' for Active; 'I' for Inactive)
REMARK    1  A    between atoms: C_8  and  N_13
REMARK    2  A    between atoms: C_9  and  N_12
REMARK    3  A    between atoms: N_13  and  C_14
REMARK    4  A    between atoms: N_18  and  C_20
REMARK                            x       y       z     vdW  Elec       q    Type
REMARK                         _______ _______ _______ _____ _____    ______ ____
ROOT
ATOM      1  C   UNL     1      -0.734  -3.197  -2.179  0.00  0.00    +0.017 A 
ATOM      2  C   UNL     1      -0.365  -1.987  -2.683  0.00  0.00    +0.027 A 
ATOM      3  C   UNL     1       0.844  -1.399  -2.272  0.00  0.00    +0.048 A 
ATOM      4  C   UNL     1       1.659  -2.083  -1.337  0.00  0.00    +0.022 A 
ATOM      5  C   UNL     1       1.249  -3.328  -0.838  0.00  0.00    +0.027 A 
ATOM      6  C   UNL     1       0.070  -3.867  -1.259  0.00  0.00    +0.019 A 
ATOM      7 BR   UNL     1      -0.482  -5.546  -0.586  0.00  0.00    -0.050 Br
ATOM      8  C   UNL     1       2.874  -1.491  -0.925  0.00  0.00    +0.059 A 
ATOM      9  C   UNL     1       3.211  -0.255  -1.465  0.00  0.00    +0.062 A 
ATOM     10  C   UNL     1       2.354   0.353  -2.381  0.00  0.00    +0.107 A 
ATOM     11  N   UNL     1       1.228  -0.211  -2.752  0.00  0.00    -0.359 N 
ATOM     12  H   UNL     1       0.660   0.245  -3.393  0.00  0.00    +0.165 HD
ENDROOT
BRANCH   9  13
ATOM     13  N   UNL     1       4.405   0.377  -1.090  0.00  0.00    -0.355 N 
ATOM     14  H   UNL     1       5.042  -0.086  -0.523  0.00  0.00    +0.142 HD
ATOM     15  H   UNL     1       4.595   1.278  -1.397  0.00  0.00    +0.142 HD
ENDBRANCH   9  13
BRANCH   8  16
ATOM     16  N   UNL     1       3.707  -2.125  -0.008  0.00  0.00    -0.341 N 
ATOM     17  H   UNL     1       3.472  -2.136   0.933  0.00  0.00    +0.146 HD
BRANCH  16  18
ATOM     18  C   UNL     1       4.938  -2.775  -0.464  0.00  0.00    +0.052 C 
ATOM     19  C   UNL     1       5.882  -3.063   0.733  0.00  0.00    +0.002 C 
ATOM     20  C   UNL     1       6.700  -4.267   0.204  0.00  0.00    -0.077 C 
ATOM     21  N   UNL     1       5.732  -5.068  -0.574  0.00  0.00    +0.383 N 
ATOM     22  C   UNL     1       4.638  -4.182  -1.022  0.00  0.00    -0.056 C 
ATOM     23  H   UNL     1       5.358  -5.806   0.005  0.00  0.00    -0.081 HD
BRANCH  21  24
ATOM     24  C   UNL     1       6.401  -5.652  -1.745  0.00  0.00    -0.069 C 
ATOM     25  C   UNL     1       6.219  -7.151  -1.988  0.00  0.00    -0.017 C 
ATOM     26  C   UNL     1       7.562  -6.615  -1.488  0.00  0.00    -0.017 C 
ENDBRANCH  21  24
ENDBRANCH  16  18
ENDBRANCH   8  16
TORSDOF 4
