REMARK  Name = ZINC40020895
REMARK  6 active torsions:
REMARK  status: ('A' for Active; 'I' for Inactive)
REMARK    1  A    between atoms: C_1  and  C_2
REMARK    2  A    between atoms: C_2  and  C_3
REMARK    3  A    between atoms: C_3  and  C_4
REMARK    4  A    between atoms: C_4  and  N_5
REMARK    5  A    between atoms: C_6  and  C_22
REMARK    6  A    between atoms: C_26  and  O_28
REMARK                            x       y       z     vdW  Elec       q    Type
REMARK                         _______ _______ _______ _____ _____    ______ ____
ROOT
ATOM      1  N   UNL     1      -2.787  -2.571   0.015  0.00  0.00    -0.284 N 
ATOM      2  C   UNL     1      -3.589  -2.871   1.212  0.00  0.00    +0.145 C 
ATOM      3  C   UNL     1      -4.908  -3.357   0.708  0.00  0.00    +0.072 A 
ATOM      4  C   UNL     1      -6.106  -3.813   1.419  0.00  0.00    +0.199 A 
ATOM      5  O   UNL     1      -6.254  -3.693   2.623  0.00  0.00    -0.287 OA
ATOM      6  C   UNL     1      -7.123  -4.434   0.533  0.00  0.00    +0.066 A 
ATOM      7  C   UNL     1      -8.225  -5.094   1.078  0.00  0.00    +0.035 A 
ATOM      8  C   UNL     1      -9.157  -5.669   0.241  0.00  0.00    +0.042 A 
ATOM      9  C   UNL     1      -8.996  -5.591  -1.137  0.00  0.00    +0.023 A 
ATOM     10  C   UNL     1      -7.913  -4.941  -1.685  0.00  0.00    +0.048 A 
ATOM     11  C   UNL     1      -6.958  -4.349  -0.859  0.00  0.00    +0.140 A 
ATOM     12  O   UNL     1      -5.909  -3.708  -1.424  0.00  0.00    -0.450 OA
ATOM     13  C   UNL     1      -4.866  -3.333  -0.658  0.00  0.00    +0.199 A 
ATOM     14  C   UNL     1      -3.541  -2.839  -1.071  0.00  0.00    +0.283 C 
ATOM     15  O   UNL     1      -3.179  -2.696  -2.222  0.00  0.00    -0.267 OA
ATOM     16 CL   UNL     1     -10.532  -6.491   0.909  0.00  0.00    -0.084 Cl
ENDROOT
BRANCH   2  17
ATOM     17  C   UNL     1      -3.775  -1.625   2.039  0.00  0.00    -0.019 A 
ATOM     18  C   UNL     1      -4.018  -0.413   1.418  0.00  0.00    +0.006 A 
ATOM     19  C   UNL     1      -4.189   0.732   2.174  0.00  0.00    +0.004 A 
ATOM     20  C   UNL     1      -4.117   0.668   3.553  0.00  0.00    +0.045 A 
ATOM     21  C   UNL     1      -3.873  -0.546   4.178  0.00  0.00    +0.117 A 
ATOM     22  C   UNL     1      -3.708  -1.695   3.417  0.00  0.00    +0.051 A 
BRANCH  21  23
ATOM     23  O   UNL     1      -3.802  -0.611   5.533  0.00  0.00    -0.507 OA
ATOM     24  H   UNL     1      -4.650  -0.785   5.964  0.00  0.00    +0.292 HD
ENDBRANCH  21  23
ENDBRANCH   2  17
BRANCH   1  25
ATOM     25  C   UNL     1      -1.413  -2.063   0.004  0.00  0.00    +0.109 C 
BRANCH  25  26
ATOM     26  C   UNL     1      -1.433  -0.534   0.013  0.00  0.00    +0.019 C 
BRANCH  26  28
ATOM     27  C   UNL     1      -0.019   1.526   0.010  0.00  0.00    +0.004 C 
ATOM     28  C   UNL     1       0.002  -0.004   0.002  0.00  0.00    -0.002 C 
ENDBRANCH  26  28
ENDBRANCH  25  26
ENDBRANCH   1  25
TORSDOF 5
