REMARK  Name = ZINC44098280
REMARK  3 active torsions:
REMARK  status: ('A' for Active; 'I' for Inactive)
REMARK    1  A    between atoms: C_4  and  N_8
REMARK    2  A    between atoms: C_20  and  C_23
REMARK    3  A    between atoms: C_25  and  C_28
REMARK                            x       y       z     vdW  Elec       q    Type
REMARK                         _______ _______ _______ _____ _____    ______ ____
ROOT
ATOM      1  N   UNL     1       3.642  -0.622  -0.020  0.00  0.00    -0.265 N 
ATOM      2  C   UNL     1       3.699  -1.917   0.350  0.00  0.00    +0.307 C 
ATOM      3  O   UNL     1       2.675  -2.520   0.610  0.00  0.00    -0.252 OA
ATOM      4  N   UNL     1       4.889  -2.543   0.431  0.00  0.00    -0.282 N 
ATOM      5  C   UNL     1       6.141  -1.798   0.237  0.00  0.00    +0.128 C 
ATOM      6  C   UNL     1       7.034  -2.012   1.465  0.00  0.00    +0.125 C 
ATOM      7  N   UNL     1       7.104  -3.452   1.750  0.00  0.00    -0.314 N 
ATOM      8  C   UNL     1       5.852  -4.197   1.944  0.00  0.00    +0.125 C 
ATOM      9  C   UNL     1       4.959  -3.982   0.721  0.00  0.00    +0.128 C 
ATOM     10  C   UNL     1       8.330  -4.097   1.834  0.00  0.00    +0.099 A 
ATOM     11  C   UNL     1       9.496  -3.401   1.521  0.00  0.00    +0.042 A 
ATOM     12  C   UNL     1      10.711  -4.050   1.607  0.00  0.00    +0.016 A 
ATOM     13  C   UNL     1      10.723  -5.391   2.007  0.00  0.00    +0.038 A 
ATOM     14  C   UNL     1       9.517  -6.020   2.304  0.00  0.00    +0.095 A 
ATOM     15  N   UNL     1       8.377  -5.365   2.215  0.00  0.00    -0.349 N 
ATOM     16  H   UNL     1       4.447  -0.165  -0.309  0.00  0.00    +0.157 HD
ATOM     17  H   UNL     1       7.551  -5.824   2.430  0.00  0.00    +0.167 HD
ENDROOT
BRANCH   1  21
ATOM     18  C   UNL     1       0.005   1.419   0.079  0.00  0.00    +0.006 A 
ATOM     19  C   UNL     1       1.139   2.004   0.612  0.00  0.00    +0.040 A 
ATOM     20  C   UNL     1       2.347   1.330   0.582  0.00  0.00    +0.147 A 
ATOM     21  C   UNL     1       2.420   0.064   0.013  0.00  0.00    +0.106 A 
ATOM     22  C   UNL     1       1.278  -0.520  -0.521  0.00  0.00    +0.147 A 
ATOM     23  C   UNL     1       0.074   0.160  -0.487  0.00  0.00    +0.040 A 
ATOM     24  F   UNL     1       1.344  -1.751  -1.075  0.00  0.00    -0.203 F 
ATOM     25  F   UNL     1       3.454   1.903   1.103  0.00  0.00    -0.203 F 
ENDBRANCH   1  21
BRANCH  13  26
ATOM     26  C   UNL     1      12.004  -6.132   2.115  0.00  0.00    +0.204 A 
ATOM     27  N   UNL     1      12.137  -7.419   2.482  0.00  0.00    -0.184 NA
ATOM     28  C   UNL     1      13.395  -7.758   2.472  0.00  0.00    +0.332 A 
ATOM     29  O   UNL     1      14.118  -6.695   2.095  0.00  0.00    -0.328 OA
ATOM     30  N   UNL     1      13.193  -5.644   1.861  0.00  0.00    -0.056 NA
BRANCH  28  31
ATOM     31  C   UNL     1      13.944  -9.116   2.825  0.00  0.00    +0.472 C 
ATOM     32  F   UNL     1      14.003  -9.909   1.673  0.00  0.00    -0.162 F 
ATOM     33  F   UNL     1      15.229  -8.975   3.361  0.00  0.00    -0.162 F 
ATOM     34  F   UNL     1      13.110  -9.726   3.768  0.00  0.00    -0.162 F 
ENDBRANCH  28  31
ENDBRANCH  13  26
TORSDOF 3
