REMARK  Name = ZINC05298033
REMARK  4 active torsions:
REMARK  status: ('A' for Active; 'I' for Inactive)
REMARK    1  A    between atoms: C_3  and  C_11
REMARK    2  A    between atoms: C_5  and  C_7
REMARK    3  A    between atoms: C_18  and  C_20
REMARK    4  A    between atoms: C_23  and  N_26
REMARK                            x       y       z     vdW  Elec       q    Type
REMARK                         _______ _______ _______ _____ _____    ______ ____
ROOT
ATOM      1  C   UNL     1       1.244   1.750  -0.000  0.00  0.00    +0.106 A 
ATOM      2  C   UNL     1       2.089   0.641  -0.014  0.00  0.00    +0.132 A 
ATOM      3  N   UNL     1       1.301  -0.463  -0.013  0.00  0.00    -0.229 N 
ATOM      4  C   UNL     1       0.002  -0.004   0.002  0.00  0.00    +0.192 A 
ATOM      5  N   UNL     1      -0.016   1.303   0.009  0.00  0.00    -0.219 NA
ATOM      6  S   UNL     1      -1.252  -1.262   0.007  0.00  0.00    -0.056 S 
ATOM      7  C   UNL     1      -0.593  -2.869  -0.008  0.00  0.00    +0.074 C 
ATOM      8  C   UNL     1       0.831  -2.904  -0.021  0.00  0.00    +0.061 C 
ATOM      9  N   UNL     1       1.606  -1.815  -0.023  0.00  0.00    -0.250 N 
ATOM     10 BR   UNL     1       3.980   0.671  -0.033  0.00  0.00    -0.027 Br
ATOM     11  H   UNL     1       2.557  -2.006  -0.034  0.00  0.00    +0.173 HD
ENDROOT
BRANCH   1  14
ATOM     12  C   UNL     1       3.207   4.880   0.685  0.00  0.00    +0.001 A 
ATOM     13  C   UNL     1       2.816   3.557   0.690  0.00  0.00    +0.010 A 
ATOM     14  C   UNL     1       1.665   3.170   0.003  0.00  0.00    +0.004 A 
ATOM     15  C   UNL     1       0.910   4.127  -0.677  0.00  0.00    +0.022 A 
ATOM     16  C   UNL     1       1.309   5.447  -0.671  0.00  0.00    +0.055 A 
ATOM     17  C   UNL     1       2.454   5.824   0.009  0.00  0.00    +0.012 A 
BRANCH  16  18
ATOM     18  C   UNL     1       0.495   6.482  -1.404  0.00  0.00    +0.417 C 
ATOM     19  F   UNL     1      -0.471   7.012  -0.543  0.00  0.00    -0.166 F 
ATOM     20  F   UNL     1       1.336   7.507  -1.849  0.00  0.00    -0.166 F 
ATOM     21  F   UNL     1      -0.135   5.887  -2.502  0.00  0.00    -0.166 F 
ENDBRANCH  16  18
ENDBRANCH   1  14
BRANCH   8  22
ATOM     22  C   UNL     1       1.487  -4.216  -0.035  0.00  0.00    -0.002 A 
ATOM     23  C   UNL     1       2.888  -4.306  -0.054  0.00  0.00    +0.012 A 
ATOM     24  C   UNL     1       3.494  -5.542  -0.062  0.00  0.00    +0.033 A 
ATOM     25  C   UNL     1       2.726  -6.695  -0.061  0.00  0.00    +0.126 A 
ATOM     26  C   UNL     1       1.343  -6.618  -0.047  0.00  0.00    +0.033 A 
ATOM     27  C   UNL     1       0.718  -5.391  -0.034  0.00  0.00    +0.012 A 
BRANCH  25  28
ATOM     28  N   UNL     1       3.388  -8.019  -0.076  0.00  0.00    +0.056 N 
ATOM     29  O   UNL     1       2.663  -9.118  -0.076  0.00  0.00    -0.126 OA
ATOM     30  O   UNL     1       4.703  -8.098  -0.090  0.00  0.00    -0.126 OA
ENDBRANCH  25  28
ENDBRANCH   8  22
TORSDOF 4
