REMARK  Name = ZINC34779128
REMARK  12 active torsions:
REMARK  status: ('A' for Active; 'I' for Inactive)
REMARK    1  A    between atoms: C_1  and  C_2
REMARK    2  A    between atoms: C_2  and  N_3
REMARK    3  A    between atoms: N_3  and  C_4
REMARK    4  A    between atoms: C_4  and  C_5
REMARK    5  A    between atoms: C_6  and  C_8
REMARK    6  A    between atoms: C_8  and  N_9
REMARK    7  A    between atoms: C_13  and  C_34
REMARK    8  A    between atoms: C_14  and  C_31
REMARK    9  A    between atoms: N_17  and  C_20
REMARK   10  A    between atoms: C_20  and  C_21
REMARK   11  A    between atoms: N_23  and  C_24
REMARK   12  A    between atoms: C_24  and  C_25
REMARK                            x       y       z     vdW  Elec       q    Type
REMARK                         _______ _______ _______ _____ _____    ______ ____
ROOT
ATOM      1  N   UNL     1      -0.282  -1.361  -4.653  0.00  0.00    -0.251 N 
ATOM      2  C   UNL     1      -0.898  -2.547  -4.797  0.00  0.00    +0.266 A 
ATOM      3  O   UNL     1      -0.650  -3.466  -4.039  0.00  0.00    -0.267 OA
ATOM      4  C   UNL     1      -1.885  -2.721  -5.891  0.00  0.00    +0.074 A 
ATOM      5  C   UNL     1      -2.633  -3.857  -6.218  0.00  0.00    -0.015 A 
ATOM      6  C   UNL     1      -3.488  -3.752  -7.293  0.00  0.00    +0.106 A 
ATOM      7  S   UNL     1      -3.234  -2.072  -7.830  0.00  0.00    -0.063 S 
ATOM      8  C   UNL     1      -2.094  -1.596  -6.705  0.00  0.00    +0.098 A 
ATOM      9  N   UNL     1      -1.420  -0.430  -6.481  0.00  0.00    -0.278 N 
ATOM     10  C   UNL     1      -0.538  -0.326  -5.469  0.00  0.00    +0.334 A 
ATOM     11  O   UNL     1       0.042   0.728  -5.293  0.00  0.00    -0.246 OA
ATOM     12  C   UNL     1      -2.509  -5.135  -5.430  0.00  0.00    +0.046 C 
ENDROOT
BRANCH   6  13
ATOM     13  C   UNL     1      -4.352  -4.734  -7.836  0.00  0.00    +0.393 C 
ATOM     14  O   UNL     1      -4.401  -5.851  -7.336  0.00  0.00    -0.240 OA
ATOM     15  O   UNL     1      -5.051  -4.466  -8.806  0.00  0.00    -0.240 OA
ENDBRANCH   6  13
BRANCH   1  16
ATOM     16  C   UNL     1       0.692  -1.190  -3.572  0.00  0.00    +0.225 C 
BRANCH  16  18
ATOM     17  N   UNL     1       0.688  -0.476  -1.203  0.00  0.00    -0.301 N 
ATOM     18  C   UNL     1      -0.013  -0.705  -2.332  0.00  0.00    +0.236 C 
ATOM     19  O   UNL     1      -1.211  -0.518  -2.349  0.00  0.00    -0.274 OA
BRANCH  17  21
ATOM     20  C   UNL     1      -0.019   1.526   0.010  0.00  0.00    +0.024 C 
ATOM     21  C   UNL     1       0.002  -0.004   0.002  0.00  0.00    +0.104 C 
ENDBRANCH  17  21
BRANCH  17  22
ATOM     22  C   UNL     1       2.135  -0.701  -1.182  0.00  0.00    +0.104 C 
ATOM     23  C   UNL     1       2.421  -2.145  -0.763  0.00  0.00    +0.024 C 
ENDBRANCH  17  22
ENDBRANCH  16  18
ENDBRANCH   1  16
BRANCH   9  24
ATOM     24  C   UNL     1      -1.663   0.725  -7.350  0.00  0.00    +0.223 C 
BRANCH  24  25
ATOM     25  C   UNL     1      -2.784   1.554  -6.781  0.00  0.00    +0.233 C 
ATOM     26  O   UNL     1      -3.328   1.215  -5.751  0.00  0.00    -0.274 OA
ATOM     27  N   UNL     1      -3.184   2.674  -7.417  0.00  0.00    -0.310 N 
ATOM     28  H   UNL     1      -2.750   2.945  -8.240  0.00  0.00    +0.149 HD
BRANCH  27  29
ATOM     29  C   UNL     1      -4.275   3.481  -6.864  0.00  0.00    +0.139 C 
BRANCH  29  30
ATOM     30  C   UNL     1      -4.524   4.668  -7.758  0.00  0.00    -0.030 A 
ATOM     31  C   UNL     1      -3.842   5.851  -7.542  0.00  0.00    +0.005 A 
ATOM     32  C   UNL     1      -4.072   6.940  -8.362  0.00  0.00    +0.000 A 
ATOM     33  C   UNL     1      -4.982   6.846  -9.398  0.00  0.00    +0.000 A 
ATOM     34  C   UNL     1      -5.664   5.662  -9.614  0.00  0.00    +0.000 A 
ATOM     35  C   UNL     1      -5.431   4.572  -8.796  0.00  0.00    +0.005 A 
ENDBRANCH  29  30
ENDBRANCH  27  29
ENDBRANCH  24  25
ENDBRANCH   9  24
TORSDOF 9
