REMARK  Name = ZINC01916783
REMARK  8 active torsions:
REMARK  status: ('A' for Active; 'I' for Inactive)
REMARK    1  A    between atoms: C_1  and  C_2
REMARK    2  A    between atoms: N_6  and  N_7
REMARK    3  A    between atoms: C_10  and  C_17
REMARK    4  A    between atoms: C_11  and  C_13
REMARK    5  A    between atoms: C_13  and  O_15
REMARK    6  A    between atoms: O_15  and  C_16
REMARK    7  A    between atoms: C_19  and  C_25
REMARK    8  A    between atoms: C_23  and  C_24
REMARK                            x       y       z     vdW  Elec       q    Type
REMARK                         _______ _______ _______ _____ _____    ______ ____
ROOT
ATOM      1  C   UNL     1      -4.899   4.024   9.035  0.00  0.00    +0.044 C 
ATOM      2  C   UNL     1      -3.393   4.089   9.071  0.00  0.00    -0.047 A 
ATOM      3  C   UNL     1      -2.657   3.640   7.990  0.00  0.00    +0.017 A 
ATOM      4  C   UNL     1      -1.271   3.704   8.033  0.00  0.00    +0.044 A 
ATOM      5  C   UNL     1      -0.439   3.229   6.898  0.00  0.00    +0.096 A 
ATOM      6  N   UNL     1      -0.956   2.958   5.722  0.00  0.00    -0.180 NA
ATOM      7  C   UNL     1       1.003   3.075   7.173  0.00  0.00    +0.076 A 
ATOM      8  C   UNL     1       1.498   3.620   8.310  0.00  0.00    +0.138 A 
ATOM      9  O   UNL     1       0.733   4.294   9.188  0.00  0.00    -0.455 OA
ATOM     10  C   UNL     1      -0.616   4.222   9.158  0.00  0.00    +0.138 A 
ATOM     11  C   UNL     1      -1.371   4.665  10.234  0.00  0.00    +0.050 A 
ATOM     12  C   UNL     1      -2.750   4.597  10.186  0.00  0.00    -0.044 A 
ATOM     13  C   UNL     1      -3.563   5.082  11.359  0.00  0.00    +0.044 C 
ENDROOT
BRANCH   6  14
ATOM     14  N   UNL     1      -0.131   2.512   4.681  0.00  0.00    -0.215 N 
ATOM     15  C   UNL     1      -0.672   2.228   3.449  0.00  0.00    +0.179 A 
ATOM     16  N   UNL     1      -0.060   1.800   2.353  0.00  0.00    -0.228 NA
ATOM     17  C   UNL     1      -0.718   1.572   1.248  0.00  0.00    +0.062 A 
ATOM     18  C   UNL     1      -2.089   1.798   1.252  0.00  0.00    +0.120 A 
ATOM     19  S   UNL     1      -2.328   2.338   2.939  0.00  0.00    -0.044 S 
ATOM     20  C   UNL     1      -0.013   1.086   0.008  0.00  0.00    +0.067 C 
ATOM     21  H   UNL     1       0.822   2.405   4.828  0.00  0.00    +0.176 HD
BRANCH  18  22
ATOM     22  C   UNL     1      -3.035   1.641   0.209  0.00  0.00    +0.347 C 
ATOM     23  O   UNL     1      -2.675   1.254  -0.887  0.00  0.00    -0.244 OA
BRANCH  22  24
ATOM     24  O   UNL     1      -4.337   1.920   0.431  0.00  0.00    -0.464 OA
ATOM     25  C   UNL     1      -5.236   1.740  -0.665  0.00  0.00    +0.280 C 
ENDBRANCH  22  24
ENDBRANCH  18  22
ENDBRANCH   6  14
BRANCH   8  26
ATOM     26  C   UNL     1       2.936   3.461   8.601  0.00  0.00    +0.017 A 
ATOM     27  C   UNL     1       3.759   2.762   7.714  0.00  0.00    +0.011 A 
ATOM     28  C   UNL     1       5.103   2.623   7.990  0.00  0.00    +0.001 A 
ATOM     29  C   UNL     1       5.635   3.163   9.147  0.00  0.00    +0.000 A 
ATOM     30  C   UNL     1       4.825   3.852  10.033  0.00  0.00    +0.001 A 
ATOM     31  C   UNL     1       3.480   4.004   9.767  0.00  0.00    +0.011 A 
ENDBRANCH   8  26
TORSDOF 4
