REMARK  Name = ZINC12588244
REMARK  9 active torsions:
REMARK  status: ('A' for Active; 'I' for Inactive)
REMARK    1  A    between atoms: C_1  and  O_2
REMARK    2  A    between atoms: O_2  and  C_3
REMARK    3  A    between atoms: C_6  and  C_9
REMARK    4  A    between atoms: C_19  and  C_21
REMARK    5  A    between atoms: C_24  and  O_27
REMARK    6  A    between atoms: O_27  and  C_28
REMARK    7  A    between atoms: C_29  and  C_31
REMARK    8  A    between atoms: C_31  and  S_32
REMARK    9  A    between atoms: S_32  and  C_33
REMARK                            x       y       z     vdW  Elec       q    Type
REMARK                         _______ _______ _______ _____ _____    ______ ____
ROOT
ATOM      1  C   UNL     1      -4.552   2.249  -0.796  0.00  0.00    +0.013 C 
ATOM      2  C   UNL     1      -3.354   1.999  -1.366  0.00  0.00    -0.024 C 
ATOM      3  C   UNL     1      -3.229   2.004  -2.862  0.00  0.00    +0.037 C 
ATOM      4  C   UNL     1      -1.805   1.899  -3.368  0.00  0.00    +0.005 C 
ATOM      5  C   UNL     1      -0.903   1.051  -2.474  0.00  0.00    +0.012 C 
ATOM      6  C   UNL     1      -0.812   1.728  -1.105  0.00  0.00    +0.066 C 
ATOM      7  C   UNL     1      -2.231   1.737  -0.545  0.00  0.00    +0.068 C 
ATOM      8  N   UNL     1      -2.180   1.412   0.700  0.00  0.00    -0.181 NA
ATOM      9  N   UNL     1      -0.906   1.016   1.123  0.00  0.00    -0.184 N 
ATOM     10  C   UNL     1      -0.063   0.854  -0.085  0.00  0.00    +0.140 C 
ATOM     11  C   UNL     1      -0.516   0.818   2.397  0.00  0.00    +0.246 C 
ATOM     12  O   UNL     1       0.622   0.473   2.637  0.00  0.00    -0.273 OA
ENDROOT
BRANCH   1  16
ATOM     13  C   UNL     1      -8.017   2.618  -3.217  0.00  0.00    +0.120 A 
ATOM     14  C   UNL     1      -7.101   1.605  -3.470  0.00  0.00    +0.046 A 
ATOM     15  C   UNL     1      -5.974   1.481  -2.687  0.00  0.00    +0.011 A 
ATOM     16  C   UNL     1      -5.753   2.377  -1.636  0.00  0.00    -0.024 A 
ATOM     17  C   UNL     1      -6.682   3.391  -1.381  0.00  0.00    +0.011 A 
ATOM     18  C   UNL     1      -7.803   3.511  -2.174  0.00  0.00    +0.046 A 
BRANCH  13  20
ATOM     19  C   UNL     1     -10.027   3.800  -3.677  0.00  0.00    +0.277 C 
ATOM     20  O   UNL     1      -9.126   2.737  -3.992  0.00  0.00    -0.495 OA
ENDBRANCH  13  20
ENDBRANCH   1  16
BRANCH  10  21
ATOM     21  C   UNL     1       1.330   1.377   0.155  0.00  0.00    -0.024 A 
ATOM     22  C   UNL     1       1.522   2.492   0.950  0.00  0.00    +0.009 A 
ATOM     23  C   UNL     1       2.798   2.969   1.176  0.00  0.00    +0.046 A 
ATOM     24  C   UNL     1       3.887   2.336   0.595  0.00  0.00    +0.120 A 
ATOM     25  C   UNL     1       3.692   1.221  -0.207  0.00  0.00    +0.046 A 
ATOM     26  C   UNL     1       2.414   0.744  -0.425  0.00  0.00    +0.009 A 
BRANCH  24  27
ATOM     27  O   UNL     1       5.143   2.807   0.811  0.00  0.00    -0.495 OA
ATOM     28  C   UNL     1       5.269   3.959   1.648  0.00  0.00    +0.277 C 
ENDBRANCH  24  27
ENDBRANCH  10  21
BRANCH  11  29
ATOM     29  C   UNL     1      -1.494   1.024   3.525  0.00  0.00    +0.175 C 
BRANCH  29  30
ATOM     30  S   UNL     1      -0.676   0.682   5.103  0.00  0.00    -0.077 S 
BRANCH  30  31
ATOM     31  C   UNL     1      -2.010   0.993   6.212  0.00  0.00    +0.192 A 
ATOM     32  N   UNL     1      -3.183   1.370   5.724  0.00  0.00    -0.230 NA
ATOM     33  C   UNL     1      -4.206   1.617   6.527  0.00  0.00    +0.119 A 
ATOM     34  C   UNL     1      -4.043   1.477   7.893  0.00  0.00    +0.092 A 
ATOM     35  C   UNL     1      -2.797   1.079   8.377  0.00  0.00    +0.274 A 
ATOM     36  N   UNL     1      -1.816   0.843   7.515  0.00  0.00    -0.183 NA
ATOM     37  O   UNL     1      -2.593   0.931   9.708  0.00  0.00    -0.266 OA
ENDBRANCH  30  31
ENDBRANCH  29  30
ENDBRANCH  11  29
TORSDOF 7
