REMARK  Name = ZINC38857928
REMARK  7 active torsions:
REMARK  status: ('A' for Active; 'I' for Inactive)
REMARK    1  A    between atoms: C_1  and  O_2
REMARK    2  A    between atoms: O_2  and  C_3
REMARK    3  A    between atoms: C_3  and  C_5
REMARK    4  A    between atoms: C_9  and  N_10
REMARK    5  A    between atoms: C_11  and  C_13
REMARK    6  A    between atoms: N_18  and  C_20
REMARK    7  A    between atoms: C_20  and  C_21
REMARK                            x       y       z     vdW  Elec       q    Type
REMARK                         _______ _______ _______ _____ _____    ______ ____
ROOT
ATOM      1  N   UNL     1       2.829  -2.275   0.084  0.00  0.00    -0.279 N 
ATOM      2  C   UNL     1       3.770  -3.118   0.552  0.00  0.00    +0.219 C 
ATOM      3  O   UNL     1       3.645  -4.314   0.395  0.00  0.00    -0.275 OA
ATOM      4  H   UNL     1       2.929  -1.318   0.210  0.00  0.00    +0.155 HD
ENDROOT
BRANCH   1   9
ATOM      5  C   UNL     1       0.659  -2.064  -1.123  0.00  0.00    +0.091 A 
ATOM      6  C   UNL     1      -0.388  -2.831  -1.776  0.00  0.00    -0.021 A 
ATOM      7  C   UNL     1      -0.188  -4.166  -1.759  0.00  0.00    -0.004 A 
ATOM      8  S   UNL     1       1.345  -4.379  -0.902  0.00  0.00    -0.077 S 
ATOM      9  C   UNL     1       1.718  -2.775  -0.578  0.00  0.00    +0.086 A 
ATOM     10  C   UNL     1      -1.080  -5.217  -2.343  0.00  0.00    +0.043 C 
ATOM     11  C   UNL     1      -2.447  -4.580  -2.636  0.00  0.00    +0.005 C 
ATOM     12  C   UNL     1      -2.230  -3.260  -3.380  0.00  0.00    +0.005 C 
ATOM     13  C   UNL     1      -1.619  -2.224  -2.434  0.00  0.00    +0.037 C 
BRANCH   5  14
ATOM     14  C   UNL     1       0.601  -0.603  -1.048  0.00  0.00    +0.342 C 
ATOM     15  O   UNL     1       1.094   0.071  -1.932  0.00  0.00    -0.245 OA
BRANCH  14  17
ATOM     16  C   UNL     1      -0.017   1.425   0.010  0.00  0.00    +0.280 C 
ATOM     17  O   UNL     1       0.002  -0.004   0.002  0.00  0.00    -0.464 OA
ENDBRANCH  14  17
ENDBRANCH   5  14
ENDBRANCH   1   9
BRANCH   2  18
ATOM     18  C   UNL     1       4.978  -2.575   1.272  0.00  0.00    +0.059 C 
ATOM     19  C   UNL     1       4.527  -1.800   2.514  0.00  0.00    +0.009 C 
ATOM     20  C   UNL     1       5.763  -1.319   3.279  0.00  0.00    -0.018 C 
ATOM     21  C   UNL     1       6.638  -2.524   3.633  0.00  0.00    -0.078 C 
ATOM     22  N   UNL     1       7.057  -3.207   2.404  0.00  0.00    +0.383 N 
ATOM     23  C   UNL     1       5.882  -3.733   1.699  0.00  0.00    -0.066 C 
ATOM     24  H   UNL     1       7.541  -2.554   1.806  0.00  0.00    -0.081 HD
BRANCH  22  25
ATOM     25  C   UNL     1       7.959  -4.316   2.744  0.00  0.00    -0.043 C 
BRANCH  25  26
ATOM     26  C   UNL     1       9.226  -3.766   3.347  0.00  0.00    -0.063 A 
ATOM     27  C   UNL     1      10.296  -3.444   2.533  0.00  0.00    +0.002 A 
ATOM     28  C   UNL     1      11.458  -2.939   3.085  0.00  0.00    +0.001 A 
ATOM     29  C   UNL     1      11.551  -2.757   4.453  0.00  0.00    +0.015 A 
ATOM     30  C   UNL     1      10.480  -3.078   5.267  0.00  0.00    +0.018 A 
ATOM     31  C   UNL     1       9.316  -3.578   4.713  0.00  0.00    +0.017 A 
ATOM     32 BR   UNL     1      10.607  -2.830   7.138  0.00  0.00    -0.050 Br
ENDBRANCH  25  26
ENDBRANCH  22  25
ENDBRANCH   2  18
TORSDOF 6
