REMARK  Name = ZINC16959007
REMARK  9 active torsions:
REMARK  status: ('A' for Active; 'I' for Inactive)
REMARK    1  A    between atoms: C_1  and  C_2
REMARK    2  A    between atoms: C_2  and  O_3
REMARK    3  A    between atoms: O_3  and  C_4
REMARK    4  A    between atoms: C_4  and  C_6
REMARK    5  A    between atoms: C_7  and  C_31
REMARK    6  A    between atoms: N_8  and  C_24
REMARK    7  A    between atoms: C_12  and  C_14
REMARK    8  A    between atoms: C_17  and  O_23
REMARK    9  A    between atoms: C_18  and  N_20
REMARK                            x       y       z     vdW  Elec       q    Type
REMARK                         _______ _______ _______ _____ _____    ______ ____
ROOT
ATOM      1  C   UNL     1       1.731  -2.269  -2.373  0.00  0.00    +0.078 C 
ATOM      2  C   UNL     1       2.039  -3.581  -2.466  0.00  0.00    +0.027 C 
ATOM      3  N   UNL     1       2.386  -4.140  -3.664  0.00  0.00    -0.255 N 
ATOM      4  C   UNL     1       2.449  -3.454  -4.812  0.00  0.00    +0.142 C 
ATOM      5  S   UNL     1       2.899  -4.278  -6.244  0.00  0.00    -0.018 S 
ATOM      6  N   UNL     1       2.169  -2.138  -4.878  0.00  0.00    -0.315 N 
ATOM      7  C   UNL     1       1.778  -1.441  -3.641  0.00  0.00    +0.141 C 
ATOM      8  C   UNL     1       1.999  -4.442  -1.230  0.00  0.00    +0.062 C 
ATOM      9  H   UNL     1       2.221  -1.661  -5.721  0.00  0.00    +0.149 HD
ENDROOT
BRANCH   3  10
ATOM     10  C   UNL     1       2.694  -5.506  -3.692  0.00  0.00    +0.041 A 
ATOM     11  C   UNL     1       4.013  -5.924  -3.571  0.00  0.00    +0.024 A 
ATOM     12  C   UNL     1       4.314  -7.272  -3.598  0.00  0.00    +0.003 A 
ATOM     13  C   UNL     1       3.304  -8.205  -3.746  0.00  0.00    +0.015 A 
ATOM     14  C   UNL     1       1.989  -7.791  -3.866  0.00  0.00    +0.020 A 
ATOM     15  C   UNL     1       1.681  -6.444  -3.834  0.00  0.00    +0.039 A 
ATOM     16 BR   UNL     1       0.611  -9.071  -4.068  0.00  0.00    -0.050 Br
ENDBRANCH   3  10
BRANCH   7  17
ATOM     17  C   UNL     1       0.414  -0.838  -3.853  0.00  0.00    -0.020 A 
ATOM     18  C   UNL     1      -0.600  -1.602  -4.401  0.00  0.00    +0.009 A 
ATOM     19  C   UNL     1      -1.852  -1.052  -4.597  0.00  0.00    +0.048 A 
ATOM     20  C   UNL     1      -2.091   0.268  -4.243  0.00  0.00    +0.147 A 
ATOM     21  C   UNL     1      -1.073   1.032  -3.694  0.00  0.00    +0.168 A 
ATOM     22  C   UNL     1       0.176   0.475  -3.495  0.00  0.00    +0.042 A 
BRANCH  21  23
ATOM     23  N   UNL     1      -1.324   2.441  -3.316  0.00  0.00    +0.060 N 
ATOM     24  O   UNL     1      -0.436   3.106  -2.836  0.00  0.00    -0.126 OA
ATOM     25  O   UNL     1      -2.419   2.926  -3.486  0.00  0.00    -0.126 OA
ENDBRANCH  21  23
BRANCH  20  26
ATOM     26  O   UNL     1      -3.322   0.812  -4.436  0.00  0.00    -0.504 OA
ATOM     27  H   UNL     1      -3.920   0.709  -3.682  0.00  0.00    +0.292 HD
ENDBRANCH  20  26
ENDBRANCH   7  17
BRANCH   1  28
ATOM     28  C   UNL     1       1.371  -1.689  -1.134  0.00  0.00    +0.339 C 
ATOM     29  O   UNL     1       1.318  -2.378  -0.132  0.00  0.00    -0.245 OA
BRANCH  28  30
ATOM     30  O   UNL     1       1.086  -0.372  -1.063  0.00  0.00    -0.462 OA
BRANCH  30  32
ATOM     31  C   UNL     1       0.444   1.645   0.103  0.00  0.00    +0.048 C 
ATOM     32  C   UNL     1       0.730   0.146   0.220  0.00  0.00    +0.229 C 
ENDBRANCH  30  32
ENDBRANCH  28  30
ENDBRANCH   1  28
TORSDOF 7
