REMARK  Name = ZINC65183415
REMARK  7 active torsions:
REMARK  status: ('A' for Active; 'I' for Inactive)
REMARK    1  A    between atoms: C_1  and  C_2
REMARK    2  A    between atoms: C_5  and  C_34
REMARK    3  A    between atoms: C_6  and  C_8
REMARK    4  A    between atoms: N_16  and  C_20
REMARK    5  A    between atoms: C_20  and  C_21
REMARK    6  A    between atoms: N_23  and  C_24
REMARK    7  A    between atoms: C_24  and  C_25
REMARK                            x       y       z     vdW  Elec       q    Type
REMARK                         _______ _______ _______ _____ _____    ______ ____
ROOT
ATOM      1  C   UNL     1       0.168  -2.441   2.680  0.00  0.00    +0.144 C 
ATOM      2  C   UNL     1      -1.203  -2.966   3.051  0.00  0.00    +0.082 C 
ATOM      3  C   UNL     1      -1.804  -2.445   4.142  0.00  0.00    +0.065 C 
ATOM      4  C   UNL     1      -3.136  -3.147   4.264  0.00  0.00    +0.284 C 
ATOM      5  O   UNL     1      -3.184  -4.065   3.164  0.00  0.00    -0.455 OA
ATOM      6  C   UNL     1      -2.038  -3.938   2.469  0.00  0.00    +0.339 C 
ATOM      7  O   UNL     1      -1.761  -4.578   1.472  0.00  0.00    -0.245 OA
ATOM      8  N   UNL     1      -1.196  -1.477   4.887  0.00  0.00    -0.247 N 
ATOM      9  C   UNL     1       0.014  -0.976   4.606  0.00  0.00    +0.307 C 
ATOM     10  O   UNL     1       0.476  -0.114   5.328  0.00  0.00    -0.252 OA
ATOM     11  N   UNL     1       0.736  -1.396   3.549  0.00  0.00    -0.288 N 
ATOM     12  H   UNL     1       1.610  -1.018   3.365  0.00  0.00    +0.151 HD
ENDROOT
BRANCH   1  18
ATOM     13  C   UNL     1      -2.514  -0.510  -1.079  0.00  0.00    +0.044 C 
ATOM     14  C   UNL     1      -1.191  -0.968  -0.519  0.00  0.00    -0.050 A 
ATOM     15  C   UNL     1      -0.048  -0.883  -1.291  0.00  0.00    +0.003 A 
ATOM     16  C   UNL     1       1.165  -1.303  -0.778  0.00  0.00    +0.004 A 
ATOM     17  C   UNL     1       1.235  -1.807   0.507  0.00  0.00    -0.045 A 
ATOM     18  C   UNL     1       0.092  -1.891   1.279  0.00  0.00    -0.019 A 
ATOM     19  C   UNL     1      -1.121  -1.467   0.768  0.00  0.00    +0.009 A 
ATOM     20  C   UNL     1       2.557  -2.265   1.066  0.00  0.00    +0.044 C 
ENDBRANCH   1  18
BRANCH   8  21
ATOM     21  C   UNL     1      -1.906  -0.957   6.059  0.00  0.00    +0.210 C 
BRANCH  21  22
ATOM     22  C   UNL     1      -1.548  -1.779   7.269  0.00  0.00    +0.231 C 
ATOM     23  O   UNL     1      -0.775  -2.708   7.165  0.00  0.00    -0.274 OA
ATOM     24  N   UNL     1      -2.085  -1.482   8.469  0.00  0.00    -0.310 N 
ATOM     25  H   UNL     1      -2.703  -0.739   8.553  0.00  0.00    +0.149 HD
BRANCH  24  26
ATOM     26  C   UNL     1      -1.737  -2.281   9.646  0.00  0.00    +0.139 C 
BRANCH  26  27
ATOM     27  C   UNL     1      -2.467  -1.746  10.851  0.00  0.00    -0.027 A 
ATOM     28  C   UNL     1      -1.886  -0.761  11.628  0.00  0.00    +0.009 A 
ATOM     29  C   UNL     1      -2.552  -0.266  12.734  0.00  0.00    +0.050 A 
ATOM     30  C   UNL     1      -3.804  -0.758  13.066  0.00  0.00    +0.166 A 
ATOM     31  C   UNL     1      -4.389  -1.750  12.284  0.00  0.00    +0.167 A 
ATOM     32  C   UNL     1      -3.718  -2.237  11.174  0.00  0.00    +0.054 A 
ATOM     33  O   UNL     1      -5.608  -2.062  12.814  0.00  0.00    -0.453 OA
ATOM     34  C   UNL     1      -5.587  -1.544  14.157  0.00  0.00    +0.466 C 
ATOM     35  O   UNL     1      -4.657  -0.448  14.086  0.00  0.00    -0.453 OA
ENDBRANCH  26  27
ENDBRANCH  24  26
ENDBRANCH  21  22
ENDBRANCH   8  21
TORSDOF 5
