REMARK  Name = ZINC64637859
REMARK  6 active torsions:
REMARK  status: ('A' for Active; 'I' for Inactive)
REMARK    1  A    between atoms: C_1  and  C_2
REMARK    2  A    between atoms: C_8  and  C_10
REMARK    3  A    between atoms: C_13  and  S_15
REMARK    4  A    between atoms: S_15  and  N_18
REMARK    5  A    between atoms: C_22  and  C_25
REMARK    6  A    between atoms: N_27  and  C_28
REMARK                            x       y       z     vdW  Elec       q    Type
REMARK                         _______ _______ _______ _____ _____    ______ ____
ROOT
ATOM      1  S   UNL     1       1.069  -6.385   6.100  0.00  0.00    +0.059 S 
ATOM      2  O   UNL     1       2.320  -6.008   6.658  0.00  0.00    -0.153 OA
ATOM      3  O   UNL     1      -0.123  -6.442   6.872  0.00  0.00    -0.153 OA
ENDROOT
BRANCH   1   4
ATOM      4  N   UNL     1       1.278  -7.889   5.441  0.00  0.00    -0.176 NA
ATOM      5  C   UNL     1       0.132  -8.787   5.245  0.00  0.00    +0.109 C 
ATOM      6  C   UNL     1       0.105  -9.241   3.782  0.00  0.00    +0.018 C 
ATOM      7  C   UNL     1       1.458  -9.859   3.419  0.00  0.00    +0.015 C 
ATOM      8  C   UNL     1       2.560  -8.810   3.579  0.00  0.00    +0.091 C 
ATOM      9  C   UNL     1       2.614  -8.349   5.034  0.00  0.00    +0.122 C 
BRANCH   8  10
ATOM     10  C   UNL     1       3.886  -9.410   3.189  0.00  0.00    +0.218 C 
ATOM     11  O   UNL     1       4.788  -9.463   3.998  0.00  0.00    -0.275 OA
ATOM     12  N   UNL     1       4.070  -9.887   1.942  0.00  0.00    -0.312 N 
ATOM     13  H   UNL     1       3.348  -9.844   1.296  0.00  0.00    +0.149 HD
BRANCH  12  14
ATOM     14  C   UNL     1       5.359 -10.470   1.564  0.00  0.00    +0.073 C 
ATOM     15  C   UNL     1       6.332  -9.332   1.190  0.00  0.00    +0.022 C 
ATOM     16  C   UNL     1       7.740  -9.851   1.301  0.00  0.00    +0.002 C 
ATOM     17  C   UNL     1       8.284 -10.372  -0.043  0.00  0.00    +0.000 C 
ATOM     18  C   UNL     1       7.244 -11.188  -0.833  0.00  0.00    +0.000 C 
ATOM     19  C   UNL     1       6.452 -12.117   0.047  0.00  0.00    +0.002 C 
ATOM     20  C   UNL     1       5.151 -11.404   0.468  0.00  0.00    +0.022 C 
ENDBRANCH  12  14
ENDBRANCH   8  10
ENDBRANCH   1   4
BRANCH   1  24
ATOM     21  C   UNL     1      -0.184  -4.027   2.986  0.00  0.00    +0.109 C 
ATOM     22  N   UNL     1       1.044  -3.682   3.244  0.00  0.00    -0.253 NA
ATOM     23  C   UNL     1       1.593  -4.373   4.248  0.00  0.00    +0.135 C 
ATOM     24  C   UNL     1       0.754  -5.272   4.771  0.00  0.00    +0.107 C 
ATOM     25  C   UNL     1      -0.530  -5.123   3.975  0.00  0.00    +0.118 C 
BRANCH  21  33
ATOM     26  C   UNL     1       1.461  -1.829  -2.599  0.00  0.00    +0.007 C 
ATOM     27  C   UNL     1       0.723  -1.641  -1.272  0.00  0.00    -0.011 C 
ATOM     28  C   UNL     1       1.528  -2.291  -0.145  0.00  0.00    +0.022 C 
ATOM     29  C   UNL     1       0.803  -2.071   1.187  0.00  0.00    +0.108 C 
ATOM     30  N   UNL     1      -0.574  -2.569   1.064  0.00  0.00    -0.297 N 
ATOM     31  C   UNL     1      -1.407  -2.077  -0.042  0.00  0.00    +0.108 C 
ATOM     32  C   UNL     1      -0.657  -2.297  -1.359  0.00  0.00    +0.022 C 
ATOM     33  C   UNL     1      -1.063  -3.461   1.948  0.00  0.00    +0.261 C 
ATOM     34  O   UNL     1      -2.229  -3.799   1.889  0.00  0.00    -0.269 OA
ENDBRANCH  21  33
ENDBRANCH   1  24
TORSDOF 5
