REMARK  Name = ZINC35665730
REMARK  8 active torsions:
REMARK  status: ('A' for Active; 'I' for Inactive)
REMARK    1  A    between atoms: C_1  and  C_2
REMARK    2  A    between atoms: C_2  and  C_3
REMARK    3  A    between atoms: C_2  and  C_4
REMARK    4  A    between atoms: C_4  and  C_5
REMARK    5  A    between atoms: N_9  and  C_27
REMARK    6  A    between atoms: N_14  and  S_17
REMARK    7  A    between atoms: S_17  and  C_20
REMARK    8  A    between atoms: C_27  and  C_28
REMARK                            x       y       z     vdW  Elec       q    Type
REMARK                         _______ _______ _______ _____ _____    ______ ____
ROOT
ATOM      1  C   UNL     1      -2.367  -1.825  -2.202  0.00  0.00    +0.019 C 
ATOM      2  C   UNL     1      -3.877  -1.822  -2.298  0.00  0.00    +0.201 C 
ATOM      3  O   UNL     1      -4.577  -2.793  -2.497  0.00  0.00    -0.277 OA
ATOM      4  N   UNL     1      -4.315  -0.558  -2.125  0.00  0.00    -0.309 N 
ATOM      5  C   UNL     1      -3.169   0.332  -1.917  0.00  0.00    +0.006 C 
ATOM      6  N   UNL     1      -2.024  -0.534  -1.558  0.00  0.00    +0.401 N 
ATOM      7  C   UNL     1      -2.852   1.095  -3.202  0.00  0.00    +0.023 C 
ATOM      8  C   UNL     1      -4.057   1.959  -3.589  0.00  0.00    +0.109 C 
ATOM      9  N   UNL     1      -4.417   2.808  -2.445  0.00  0.00    -0.177 NA
ATOM     10  C   UNL     1      -4.667   2.173  -1.144  0.00  0.00    +0.109 C 
ATOM     11  C   UNL     1      -3.457   1.307  -0.777  0.00  0.00    +0.023 C 
ATOM     12  H   UNL     1      -1.959  -0.642  -0.557  0.00  0.00    -0.082 HD
ATOM     13  H   UNL     1      -1.164  -0.166  -1.935  0.00  0.00    -0.082 HD
ENDROOT
BRANCH   9  14
ATOM     14  S   UNL     1      -4.537   4.450  -2.618  0.00  0.00    +0.061 S 
ATOM     15  O   UNL     1      -4.335   5.011  -1.329  0.00  0.00    -0.153 OA
ATOM     16  O   UNL     1      -3.733   4.801  -3.736  0.00  0.00    -0.153 OA
BRANCH  14  17
ATOM     17  C   UNL     1      -6.204   4.806  -3.066  0.00  0.00    +0.107 A 
ATOM     18  C   UNL     1      -6.570   4.839  -4.398  0.00  0.00    +0.028 A 
ATOM     19  C   UNL     1      -7.878   5.118  -4.750  0.00  0.00    +0.003 A 
ATOM     20  C   UNL     1      -8.820   5.364  -3.769  0.00  0.00    +0.020 A 
ATOM     21  C   UNL     1      -8.454   5.332  -2.435  0.00  0.00    +0.043 A 
ATOM     22  C   UNL     1      -7.147   5.046  -2.084  0.00  0.00    +0.048 A 
ATOM     23 CL   UNL     1      -9.637   5.642  -1.203  0.00  0.00    -0.083 Cl
ENDBRANCH  14  17
ENDBRANCH   9  14
BRANCH   1  24
ATOM     24  C   UNL     1      -1.891  -2.995  -1.338  0.00  0.00    -0.004 C 
BRANCH  24  26
ATOM     25  C   UNL     1       0.119  -4.159  -0.418  0.00  0.00    +0.007 C 
ATOM     26  C   UNL     1      -0.363  -3.071  -1.380  0.00  0.00    -0.018 C 
ATOM     27  C   UNL     1       0.091  -3.409  -2.802  0.00  0.00    +0.007 C 
ENDBRANCH  24  26
ENDBRANCH   1  24
BRANCH   4  28
ATOM     28  C   UNL     1      -5.718  -0.138  -2.143  0.00  0.00    +0.141 C 
BRANCH  28  29
ATOM     29  C   UNL     1      -6.368  -0.500  -0.833  0.00  0.00    -0.030 A 
ATOM     30  C   UNL     1      -6.407  -1.819  -0.422  0.00  0.00    +0.008 A 
ATOM     31  C   UNL     1      -7.002  -2.152   0.780  0.00  0.00    +0.038 A 
ATOM     32  C   UNL     1      -7.559  -1.163   1.574  0.00  0.00    +0.123 A 
ATOM     33  C   UNL     1      -7.518   0.158   1.161  0.00  0.00    +0.038 A 
ATOM     34  C   UNL     1      -6.918   0.489  -0.039  0.00  0.00    +0.008 A 
ATOM     35  F   UNL     1      -8.141  -1.487   2.749  0.00  0.00    -0.205 F 
ENDBRANCH  28  29
ENDBRANCH   4  28
TORSDOF 6
