REMARK  Name = ZINC00115378
REMARK  6 active torsions:
REMARK  status: ('A' for Active; 'I' for Inactive)
REMARK    1  A    between atoms: C_1  and  C_2
REMARK    2  A    between atoms: C_2  and  C_3
REMARK    3  A    between atoms: C_3  and  C_4
REMARK    4  A    between atoms: C_11  and  N_23
REMARK    5  A    between atoms: C_12  and  C_21
REMARK    6  A    between atoms: C_13  and  C_15
REMARK                            x       y       z     vdW  Elec       q    Type
REMARK                         _______ _______ _______ _____ _____    ______ ____
ROOT
ATOM      1  C   UNL     1       0.755  -1.570  -1.023  0.00  0.00    +0.070 A 
ATOM      2  C   UNL     1       1.691  -2.554  -0.733  0.00  0.00    +0.045 A 
ATOM      3  C   UNL     1       1.136  -3.767  -1.029  0.00  0.00    +0.222 A 
ATOM      4  N   UNL     1      -0.105  -3.544  -1.490  0.00  0.00    -0.246 N 
ATOM      5  H   UNL     1      -0.737  -4.221  -1.780  0.00  0.00    +0.192 HD
ATOM      6  N   UNL     1      -0.328  -2.158  -1.472  0.00  0.00    -0.176 NA
ATOM      7  O   UNL     1       1.798  -4.938  -0.853  0.00  0.00    -0.423 OA
ATOM      8  C   UNL     1       2.929  -4.912  -0.119  0.00  0.00    +0.200 C 
ATOM      9  C   UNL     1       3.576  -3.776   0.226  0.00  0.00    +0.094 C 
ATOM     10  C   UNL     1       3.089  -2.410  -0.188  0.00  0.00    +0.075 C 
ENDROOT
BRANCH  10  11
ATOM     11  C   UNL     1       4.008  -1.840  -1.270  0.00  0.00    +0.002 C 
ATOM     12  C   UNL     1       5.386  -1.554  -0.670  0.00  0.00    +0.004 C 
ATOM     13  C   UNL     1       6.306  -0.984  -1.752  0.00  0.00    +0.000 C 
ATOM     14  C   UNL     1       6.445  -1.999  -2.889  0.00  0.00    +0.000 C 
ATOM     15  C   UNL     1       5.067  -2.286  -3.489  0.00  0.00    +0.000 C 
ATOM     16  C   UNL     1       4.148  -2.855  -2.407  0.00  0.00    +0.004 C 
ENDBRANCH  10  11
BRANCH   8  17
ATOM     17  N   UNL     1       3.454  -6.108   0.303  0.00  0.00    -0.328 N 
ATOM     18  H   UNL     1       3.012  -6.940   0.071  0.00  0.00    +0.145 HD
ATOM     19  H   UNL     1       4.266  -6.121   0.833  0.00  0.00    +0.145 HD
ENDBRANCH   8  17
BRANCH   9  20
ATOM     20  C   UNL     1       4.768  -3.874   1.013  0.00  0.00    +0.100 C 
ATOM     21  N   UNL     1       5.714  -3.951   1.637  0.00  0.00    -0.191 NA
ENDBRANCH   9  20
BRANCH   1  22
ATOM     22  C   UNL     1       0.947  -0.086  -0.846  0.00  0.00    +0.057 C 
BRANCH  22  24
ATOM     23  C   UNL     1       0.580   1.850   0.691  0.00  0.00    +0.004 C 
ATOM     24  C   UNL     1       0.385   0.343   0.511  0.00  0.00    +0.003 C 
ENDBRANCH  22  24
ENDBRANCH   1  22
TORSDOF 5
