REMARK  Name = ZINC05819389
REMARK  4 active torsions:
REMARK  status: ('A' for Active; 'I' for Inactive)
REMARK    1  A    between atoms: C_6  and  C_7
REMARK    2  A    between atoms: C_10  and  C_21
REMARK    3  A    between atoms: C_16  and  N_20
REMARK    4  A    between atoms: C_17  and  C_18
REMARK                            x       y       z     vdW  Elec       q    Type
REMARK                         _______ _______ _______ _____ _____    ______ ____
ROOT
ATOM      1  C   UNL     1      -1.282  -0.793   0.011  0.00  0.00    +0.102 C 
ATOM      2  C   UNL     1      -1.349  -1.668  -1.214  0.00  0.00    +0.058 A 
ATOM      3  C   UNL     1      -1.565  -1.312  -2.539  0.00  0.00    +0.173 A 
ATOM      4  N   UNL     1      -1.540  -2.404  -3.264  0.00  0.00    -0.167 NA
ATOM      5  N   UNL     1      -1.305  -3.496  -2.414  0.00  0.00    -0.246 N 
ATOM      6  H   UNL     1      -1.236  -4.425  -2.683  0.00  0.00    +0.192 HD
ATOM      7  C   UNL     1      -1.192  -3.025  -1.161  0.00  0.00    +0.223 A 
ATOM      8  O   UNL     1      -0.966  -3.691  -0.002  0.00  0.00    -0.423 OA
ATOM      9  C   UNL     1      -1.169  -3.023   1.152  0.00  0.00    +0.200 C 
ATOM     10  C   UNL     1      -1.325  -1.682   1.228  0.00  0.00    +0.098 C 
ENDROOT
BRANCH   1  16
ATOM     11  C   UNL     1      -0.017   1.382   0.010  0.00  0.00    +0.024 A 
ATOM     12  C   UNL     1       1.181   2.072   0.002  0.00  0.00    +0.111 A 
ATOM     13  N   UNL     1       2.331   1.427  -0.013  0.00  0.00    -0.263 NA
ATOM     14  C   UNL     1       2.387   0.109  -0.021  0.00  0.00    +0.111 A 
ATOM     15  C   UNL     1       1.230  -0.647  -0.013  0.00  0.00    +0.024 A 
ATOM     16  C   UNL     1       0.002  -0.004   0.002  0.00  0.00    -0.032 A 
ENDBRANCH   1  16
BRANCH   3  17
ATOM     17  C   UNL     1      -1.790   0.087  -3.053  0.00  0.00    +0.436 C 
ATOM     18  F   UNL     1      -0.560   0.665  -3.385  0.00  0.00    -0.164 F 
ATOM     19  F   UNL     1      -2.606   0.041  -4.189  0.00  0.00    -0.164 F 
ATOM     20  F   UNL     1      -2.414   0.854  -2.063  0.00  0.00    -0.164 F 
ENDBRANCH   3  17
BRANCH   9  21
ATOM     21  N   UNL     1      -1.220  -3.747   2.317  0.00  0.00    -0.328 N 
ATOM     22  H   UNL     1      -1.111  -4.710   2.295  0.00  0.00    +0.145 HD
ATOM     23  H   UNL     1      -1.365  -3.294   3.163  0.00  0.00    +0.145 HD
ENDBRANCH   9  21
BRANCH  10  24
ATOM     24  C   UNL     1      -1.540  -1.084   2.511  0.00  0.00    +0.101 C 
ATOM     25  N   UNL     1      -1.710  -0.609   3.529  0.00  0.00    -0.191 NA
ENDBRANCH  10  24
TORSDOF 4
