REMARK  Name = ZINC01939698
REMARK  10 active torsions:
REMARK  status: ('A' for Active; 'I' for Inactive)
REMARK    1  A    between atoms: C_1  and  C_2
REMARK    2  A    between atoms: C_2  and  O_3
REMARK    3  A    between atoms: O_3  and  C_4
REMARK    4  A    between atoms: C_4  and  C_6
REMARK    5  A    between atoms: C_10  and  N_11
REMARK    6  A    between atoms: C_12  and  C_14
REMARK    7  A    between atoms: C_14  and  N_15
REMARK    8  A    between atoms: C_22  and  C_26
REMARK    9  A    between atoms: C_23  and  C_25
REMARK   10  A    between atoms: C_33  and  C_37
REMARK                            x       y       z     vdW  Elec       q    Type
REMARK                         _______ _______ _______ _____ _____    ______ ____
ROOT
ATOM      1  N   UNL     1       1.930  -5.845  -1.738  0.00  0.00    -0.278 N 
ATOM      2  C   UNL     1       2.227  -6.106  -3.026  0.00  0.00    +0.238 C 
ATOM      3  O   UNL     1       2.199  -5.214  -3.848  0.00  0.00    -0.273 OA
ATOM      4  H   UNL     1       1.953  -6.558  -1.081  0.00  0.00    +0.155 HD
ENDROOT
BRANCH   1   9
ATOM      5  C   UNL     1       1.258  -4.096  -0.085  0.00  0.00    +0.091 A 
ATOM      6  C   UNL     1       0.941  -2.684   0.053  0.00  0.00    -0.021 A 
ATOM      7  C   UNL     1       1.008  -1.966  -1.089  0.00  0.00    -0.004 A 
ATOM      8  S   UNL     1       1.484  -3.133  -2.332  0.00  0.00    -0.077 S 
ATOM      9  C   UNL     1       1.592  -4.558  -1.351  0.00  0.00    +0.086 A 
ATOM     10  C   UNL     1       0.736  -0.502  -1.252  0.00  0.00    +0.046 C 
ATOM     11  C   UNL     1       0.002  -0.004   0.002  0.00  0.00    -0.009 C 
ATOM     12  C   UNL     1       0.742  -0.514   1.242  0.00  0.00    +0.008 C 
ATOM     13  C   UNL     1       0.557  -2.027   1.373  0.00  0.00    +0.037 C 
ATOM     14  C   UNL     1      -0.019   1.526   0.010  0.00  0.00    +0.008 C 
BRANCH   5  15
ATOM     15  C   UNL     1       1.226  -4.998   1.068  0.00  0.00    +0.342 C 
ATOM     16  O   UNL     1       0.198  -5.582   1.355  0.00  0.00    -0.245 OA
BRANCH  15  17
ATOM     17  O   UNL     1       2.336  -5.182   1.812  0.00  0.00    -0.461 OA
BRANCH  17  19
ATOM     18  C   UNL     1       3.579  -6.170   3.658  0.00  0.00    +0.048 C 
ATOM     19  C   UNL     1       2.231  -6.090   2.940  0.00  0.00    +0.229 C 
ENDBRANCH  17  19
ENDBRANCH  15  17
ENDBRANCH   5  15
ENDBRANCH   1   9
BRANCH   2  20
ATOM     20  C   UNL     1       2.594  -7.506  -3.446  0.00  0.00    +0.222 C 
BRANCH  20  21
ATOM     21  N   UNL     1       2.871  -7.528  -4.885  0.00  0.00    -0.290 N 
ATOM     22  C   UNL     1       1.857  -7.778  -5.753  0.00  0.00    +0.203 A 
ATOM     23  N   UNL     1       2.063  -7.800  -7.042  0.00  0.00    -0.230 NA
ATOM     24  C   UNL     1       3.276  -7.589  -7.546  0.00  0.00    +0.116 A 
ATOM     25  C   UNL     1       4.386  -7.328  -6.726  0.00  0.00    +0.080 A 
ATOM     26  C   UNL     1       4.125  -7.305  -5.319  0.00  0.00    +0.263 A 
ATOM     27  O   UNL     1       5.025  -7.087  -4.526  0.00  0.00    -0.267 OA
ATOM     28  C   UNL     1       5.643  -7.119  -7.435  0.00  0.00    +0.007 A 
ATOM     29  C   UNL     1       5.647  -7.189  -8.788  0.00  0.00    -0.003 A 
ATOM     30  S   UNL     1       3.947  -7.543  -9.188  0.00  0.00    -0.073 S 
ATOM     31  C   UNL     1       6.811  -7.010  -9.729  0.00  0.00    +0.052 C 
BRANCH  28  32
ATOM     32  C   UNL     1       6.892  -6.835  -6.689  0.00  0.00    -0.016 A 
ATOM     33  C   UNL     1       7.018  -5.655  -5.958  0.00  0.00    +0.008 A 
ATOM     34  C   UNL     1       8.182  -5.398  -5.262  0.00  0.00    +0.001 A 
ATOM     35  C   UNL     1       9.226  -6.304  -5.298  0.00  0.00    +0.000 A 
ATOM     36  C   UNL     1       9.109  -7.475  -6.025  0.00  0.00    +0.001 A 
ATOM     37  C   UNL     1       7.948  -7.745  -6.721  0.00  0.00    +0.008 A 
ENDBRANCH  28  32
ENDBRANCH  20  21
ENDBRANCH   2  20
TORSDOF 7
