REMARK  Name = ZINC13032873
REMARK  9 active torsions:
REMARK  status: ('A' for Active; 'I' for Inactive)
REMARK    1  A    between atoms: C_1  and  C_2
REMARK    2  A    between atoms: C_5  and  C_35
REMARK    3  A    between atoms: C_9  and  C_14
REMARK    4  A    between atoms: C_14  and  N_66
REMARK    5  A    between atoms: C_15  and  C_16
REMARK    6  A    between atoms: C_15  and  N_66
REMARK    7  A    between atoms: N_20  and  C_21
REMARK    8  A    between atoms: C_21  and  C_22
REMARK    9  A    between atoms: C_29  and  N_66
REMARK                            x       y       z     vdW  Elec       q    Type
REMARK                         _______ _______ _______ _____ _____    ______ ____
ROOT
ATOM      1  N   UNL     1       2.873   3.977   1.325  0.00  0.00    +0.389 N 
ATOM      2  H   UNL     1       1.972   4.280   1.713  0.00  0.00    -0.080 HD
ENDROOT
BRANCH   1   3
ATOM      3  C   UNL     1       3.239   2.675   1.922  0.00  0.00    -0.068 C 
ATOM      4  C   UNL     1       2.786   2.663   3.383  0.00  0.00    -0.015 C 
ATOM      5  C   UNL     1       3.141   1.316   4.016  0.00  0.00    -0.002 C 
ATOM      6  C   UNL     1       4.655   1.105   3.950  0.00  0.00    -0.000 C 
ATOM      7  C   UNL     1       5.108   1.117   2.488  0.00  0.00    -0.002 C 
ATOM      8  C   UNL     1       4.753   2.464   1.855  0.00  0.00    -0.015 C 
ENDBRANCH   1   3
BRANCH   1   9
ATOM      9  C   UNL     1       2.743   3.842  -0.141  0.00  0.00    -0.037 C 
BRANCH   9  18
ATOM     10  C   UNL     1      -2.190   5.182  -1.134  0.00  0.00    +0.044 C 
ATOM     11  C   UNL     1      -2.115   3.678  -1.188  0.00  0.00    -0.041 A 
ATOM     12  C   UNL     1      -3.231   2.945  -1.478  0.00  0.00    +0.004 A 
ATOM     13  C   UNL     1      -3.173   1.559  -1.531  0.00  0.00    +0.005 A 
ATOM     14  C   UNL     1      -1.986   0.896  -1.302  0.00  0.00    -0.026 A 
ATOM     15  C   UNL     1      -0.835   1.621  -1.015  0.00  0.00    +0.052 A 
ATOM     16  C   UNL     1      -0.899   3.027  -0.958  0.00  0.00    +0.002 A 
ATOM     17  C   UNL     1       0.320   3.781  -0.662  0.00  0.00    +0.017 A 
ATOM     18  C   UNL     1       1.470   3.096  -0.448  0.00  0.00    +0.001 A 
ATOM     19  C   UNL     1       1.480   1.686  -0.511  0.00  0.00    +0.251 A 
ATOM     20  O   UNL     1       2.525   1.089  -0.315  0.00  0.00    -0.268 OA
ATOM     21  N   UNL     1       0.365   0.984  -0.782  0.00  0.00    -0.322 N 
ATOM     22  H   UNL     1       0.407   0.015  -0.819  0.00  0.00    +0.169 HD
ATOM     23  C   UNL     1      -1.937  -0.609  -1.361  0.00  0.00    +0.046 C 
ENDBRANCH   9  18
ENDBRANCH   1   9
BRANCH   1  24
ATOM     24  C   UNL     1       3.901   4.989   1.650  0.00  0.00    +0.001 C 
BRANCH  24  25
ATOM     25  C   UNL     1       3.880   5.243   3.135  0.00  0.00    +0.135 A 
ATOM     26  N   UNL     1       4.663   4.697   4.034  0.00  0.00    -0.115 NA
ATOM     27  N   UNL     1       4.335   5.170   5.187  0.00  0.00    -0.023 NA
ATOM     28  N   UNL     1       3.364   6.003   5.047  0.00  0.00    -0.044 NA
ATOM     29  N   UNL     1       3.058   6.080   3.796  0.00  0.00    -0.227 N 
BRANCH  29  30
ATOM     30  C   UNL     1       2.012   6.918   3.206  0.00  0.00    +0.182 C 
BRANCH  30  31
ATOM     31  C   UNL     1       0.715   6.151   3.172  0.00  0.00    -0.026 A 
ATOM     32  C   UNL     1       0.394   5.385   2.067  0.00  0.00    +0.008 A 
ATOM     33  C   UNL     1      -0.793   4.677   2.036  0.00  0.00    +0.038 A 
ATOM     34  C   UNL     1      -1.666   4.745   3.108  0.00  0.00    +0.123 A 
ATOM     35  C   UNL     1      -1.347   5.517   4.212  0.00  0.00    +0.038 A 
ATOM     36  C   UNL     1      -0.157   6.220   4.243  0.00  0.00    +0.008 A 
ATOM     37  F   UNL     1      -2.829   4.058   3.078  0.00  0.00    -0.205 F 
ENDBRANCH  30  31
ENDBRANCH  29  30
ENDBRANCH  24  25
ENDBRANCH   1  24
TORSDOF 7
