REMARK  Name = ZINC09502420
REMARK  5 active torsions:
REMARK  status: ('A' for Active; 'I' for Inactive)
REMARK    1  A    between atoms: C_1  and  C_2
REMARK    2  A    between atoms: C_2  and  C_25
REMARK    3  A    between atoms: N_5  and  C_9
REMARK    4  A    between atoms: C_9  and  C_10
REMARK    5  A    between atoms: N_12  and  C_13
REMARK                            x       y       z     vdW  Elec       q    Type
REMARK                         _______ _______ _______ _____ _____    ______ ____
ROOT
ATOM      1  C   UNL     1       9.388  -1.989   0.188  0.00  0.00    +0.047 C 
ATOM      2  C   UNL     1       8.029  -2.121   0.878  0.00  0.00    +0.135 C 
ATOM      3  C   UNL     1       6.910  -1.743  -0.072  0.00  0.00    +0.251 C 
ATOM      4  O   UNL     1       6.734  -0.669  -0.606  0.00  0.00    -0.272 OA
ATOM      5  N   UNL     1       6.150  -2.849  -0.197  0.00  0.00    -0.215 N 
ATOM      6  C   UNL     1       6.633  -3.864   0.528  0.00  0.00    +0.310 C 
ATOM      7  O   UNL     1       6.121  -4.966   0.573  0.00  0.00    -0.252 OA
ATOM      8  N   UNL     1       7.747  -3.530   1.203  0.00  0.00    -0.281 N 
ATOM      9  H   UNL     1       8.265  -4.104   1.788  0.00  0.00    +0.152 HD
ENDROOT
BRANCH   2  10
ATOM     10  C   UNL     1       7.984  -1.271   2.122  0.00  0.00    -0.015 A 
ATOM     11  C   UNL     1       7.574   0.058   2.031  0.00  0.00    +0.007 A 
ATOM     12  C   UNL     1       7.516   0.851   3.136  0.00  0.00    +0.009 A 
ATOM     13  C   UNL     1       7.886   0.328   4.387  0.00  0.00    -0.018 A 
ATOM     14  C   UNL     1       7.846   1.118   5.548  0.00  0.00    +0.008 A 
ATOM     15  C   UNL     1       8.211   0.578   6.743  0.00  0.00    +0.001 A 
ATOM     16  C   UNL     1       8.627  -0.749   6.833  0.00  0.00    +0.001 A 
ATOM     17  C   UNL     1       8.678  -1.544   5.730  0.00  0.00    +0.008 A 
ATOM     18  C   UNL     1       8.308  -1.022   4.479  0.00  0.00    -0.018 A 
ATOM     19  C   UNL     1       8.349  -1.811   3.317  0.00  0.00    +0.014 A 
ENDBRANCH   2  10
BRANCH   5  20
ATOM     20  C   UNL     1       4.947  -2.931  -1.030  0.00  0.00    +0.213 C 
BRANCH  20  21
ATOM     21  C   UNL     1       3.742  -2.546  -0.210  0.00  0.00    +0.231 C 
ATOM     22  O   UNL     1       3.875  -2.235   0.954  0.00  0.00    -0.274 OA
ATOM     23  N   UNL     1       2.517  -2.549  -0.772  0.00  0.00    -0.307 N 
ATOM     24  H   UNL     1       2.411  -2.799  -1.704  0.00  0.00    +0.149 HD
BRANCH  23  25
ATOM     25  C   UNL     1       1.345  -2.175   0.024  0.00  0.00    +0.105 C 
ATOM     26  C   UNL     1       0.134  -2.910  -0.522  0.00  0.00    +0.038 C 
ATOM     27  C   UNL     1      -1.090  -2.571   0.342  0.00  0.00    +0.076 C 
ATOM     28  S   UNL     1      -1.546  -0.851  -0.026  0.00  0.00    -0.125 S 
ATOM     29  C   UNL     1       0.002  -0.004   0.002  0.00  0.00    +0.013 A 
ATOM     30  C   UNL     1       1.207  -0.682   0.001  0.00  0.00    -0.011 A 
ATOM     31  C   UNL     1       2.390   0.053  -0.014  0.00  0.00    +0.045 A 
ATOM     32  C   UNL     1       2.369   1.433  -0.013  0.00  0.00    +0.124 A 
ATOM     33  C   UNL     1       1.160   2.108   0.002  0.00  0.00    +0.039 A 
ATOM     34  C   UNL     1      -0.017   1.390   0.010  0.00  0.00    +0.018 A 
ATOM     35  F   UNL     1       3.529   2.126  -0.029  0.00  0.00    -0.205 F 
ENDBRANCH  23  25
ENDBRANCH  20  21
ENDBRANCH   5  20
TORSDOF 4
