REMARK  Name = ZINC35992189
REMARK  11 active torsions:
REMARK  status: ('A' for Active; 'I' for Inactive)
REMARK    1  A    between atoms: C_1  and  C_2
REMARK    2  A    between atoms: C_2  and  N_3
REMARK    3  A    between atoms: C_4  and  C_23
REMARK    4  A    between atoms: C_5  and  C_18
REMARK    5  A    between atoms: C_6  and  C_11
REMARK    6  A    between atoms: C_18  and  O_20
REMARK    7  A    between atoms: O_20  and  C_21
REMARK    8  A    between atoms: C_21  and  C_22
REMARK    9  A    between atoms: C_23  and  N_24
REMARK   10  A    between atoms: C_28  and  C_31
REMARK   11  A    between atoms: C_32  and  C_34
REMARK                            x       y       z     vdW  Elec       q    Type
REMARK                         _______ _______ _______ _____ _____    ______ ____
ROOT
ATOM      1  N   UNL     1       0.789  -0.408  -1.166  0.00  0.00    -0.258 N 
ATOM      2  C   UNL     1       0.339  -0.384  -2.455  0.00  0.00    +0.041 C 
ATOM      3  C   UNL     1       1.151  -0.709  -3.483  0.00  0.00    +0.080 C 
ATOM      4  C   UNL     1       2.578  -1.101  -3.158  0.00  0.00    +0.144 C 
ATOM      5  N   UNL     1       2.964  -1.096  -1.736  0.00  0.00    -0.288 N 
ATOM      6  C   UNL     1       2.039  -0.742  -0.822  0.00  0.00    +0.307 C 
ATOM      7  O   UNL     1       2.349  -0.731   0.353  0.00  0.00    -0.252 OA
ATOM      8  H   UNL     1       3.863  -1.337  -1.465  0.00  0.00    +0.151 HD
ENDROOT
BRANCH   4   9
ATOM      9  C   UNL     1       2.813  -2.489  -3.696  0.00  0.00    -0.020 A 
ATOM     10  C   UNL     1       2.360  -3.589  -2.992  0.00  0.00    +0.006 A 
ATOM     11  C   UNL     1       2.575  -4.863  -3.485  0.00  0.00    +0.003 A 
ATOM     12  C   UNL     1       3.243  -5.037  -4.683  0.00  0.00    +0.038 A 
ATOM     13  C   UNL     1       3.696  -3.937  -5.388  0.00  0.00    +0.124 A 
ATOM     14  C   UNL     1       3.476  -2.661  -4.897  0.00  0.00    +0.044 A 
ATOM     15  F   UNL     1       4.350  -4.106  -6.559  0.00  0.00    -0.205 F 
ENDBRANCH   4   9
BRANCH   1  17
ATOM     16  C   UNL     1      -0.072   1.464   0.152  0.00  0.00    +0.025 C 
ATOM     17  C   UNL     1      -0.147  -0.044  -0.100  0.00  0.00    +0.111 C 
ENDBRANCH   1  17
BRANCH   3  18
ATOM     18  C   UNL     1       0.686  -0.684  -4.819  0.00  0.00    +0.339 C 
ATOM     19  O   UNL     1       0.322  -1.714  -5.355  0.00  0.00    -0.245 OA
BRANCH  18  20
ATOM     20  O   UNL     1       0.647   0.481  -5.498  0.00  0.00    -0.462 OA
BRANCH  20  21
ATOM     21  C   UNL     1       0.166   0.432  -6.843  0.00  0.00    +0.229 C 
ATOM     22  C   UNL     1       0.194   1.837  -7.447  0.00  0.00    +0.048 C 
ENDBRANCH  20  21
ENDBRANCH  18  20
ENDBRANCH   3  18
BRANCH   2  23
ATOM     23  C   UNL     1      -1.088   0.013  -2.734  0.00  0.00    +0.136 C 
BRANCH  23  24
ATOM     24  N   UNL     1      -1.995  -1.009  -2.195  0.00  0.00    -0.294 NA
ATOM     25  C   UNL     1      -1.833  -2.285  -2.905  0.00  0.00    +0.104 C 
ATOM     26  C   UNL     1      -2.658  -3.366  -2.200  0.00  0.00    +0.124 C 
ATOM     27  N   UNL     1      -4.045  -2.893  -2.081  0.00  0.00    -0.290 N 
ATOM     28  C   UNL     1      -4.278  -1.560  -1.502  0.00  0.00    +0.087 C 
ATOM     29  C   UNL     1      -3.389  -0.550  -2.235  0.00  0.00    +0.107 C 
ATOM     30  C   UNL     1      -5.749  -1.176  -1.673  0.00  0.00    +0.029 C 
ATOM     31  C   UNL     1      -5.076  -3.659  -2.490  0.00  0.00    +0.282 C 
ATOM     32  O   UNL     1      -6.207  -3.211  -2.485  0.00  0.00    -0.267 OA
BRANCH  31  33
ATOM     33  C   UNL     1      -4.834  -5.033  -2.941  0.00  0.00    +0.189 A 
ATOM     34  C   UNL     1      -5.758  -5.868  -3.501  0.00  0.00    +0.054 A 
ATOM     35  C   UNL     1      -5.096  -7.075  -3.778  0.00  0.00    +0.042 A 
ATOM     36  C   UNL     1      -3.813  -6.925  -3.381  0.00  0.00    +0.196 A 
ATOM     37  O   UNL     1      -3.658  -5.692  -2.881  0.00  0.00    -0.458 OA
ENDBRANCH  31  33
ENDBRANCH  23  24
ENDBRANCH   2  23
TORSDOF 8
