REMARK  Name = ZINC58965299
REMARK  8 active torsions:
REMARK  status: ('A' for Active; 'I' for Inactive)
REMARK    1  A    between atoms: C_1  and  C_2
REMARK    2  A    between atoms: C_2  and  C_4
REMARK    3  A    between atoms: C_2  and  S_19
REMARK    4  A    between atoms: N_6  and  C_7
REMARK    5  A    between atoms: C_8  and  C_16
REMARK    6  A    between atoms: S_19  and  C_20
REMARK    7  A    between atoms: C_22  and  C_30
REMARK    8  A    between atoms: C_24  and  C_26
REMARK                            x       y       z     vdW  Elec       q    Type
REMARK                         _______ _______ _______ _____ _____    ______ ____
ROOT
ATOM      1  C   UNL     1      -0.019   1.526   0.010  0.00  0.00    +0.029 C 
ATOM      2  C   UNL     1       0.002  -0.004   0.002  0.00  0.00    +0.137 C 
ENDROOT
BRANCH   2   3
ATOM      3  C   UNL     1       0.731  -0.503   1.223  0.00  0.00    +0.231 C 
ATOM      4  O   UNL     1       1.911  -0.775   1.156  0.00  0.00    -0.274 OA
ATOM      5  N   UNL     1       0.071  -0.647   2.389  0.00  0.00    -0.278 N 
ATOM      6  H   UNL     1      -0.872  -0.430   2.443  0.00  0.00    +0.155 HD
BRANCH   5   7
ATOM      7  C   UNL     1       0.742  -1.107   3.513  0.00  0.00    +0.084 A 
ATOM      8  C   UNL     1       0.230  -1.320   4.783  0.00  0.00    +0.068 A 
ATOM      9  C   UNL     1       1.149  -1.810   5.796  0.00  0.00    -0.023 A 
ATOM     10  C   UNL     1       2.411  -1.996   5.353  0.00  0.00    -0.004 A 
ATOM     11  S   UNL     1       2.359  -1.539   3.645  0.00  0.00    -0.077 S 
ATOM     12  C   UNL     1       3.581  -2.486   6.149  0.00  0.00    +0.043 C 
ATOM     13  C   UNL     1       3.224  -2.390   7.640  0.00  0.00    +0.005 C 
ATOM     14  C   UNL     1       1.837  -3.003   7.858  0.00  0.00    +0.005 C 
ATOM     15  C   UNL     1       0.766  -2.102   7.239  0.00  0.00    +0.037 C 
BRANCH   8  16
ATOM     16  C   UNL     1      -1.180  -1.062   5.091  0.00  0.00    +0.244 C 
ATOM     17  O   UNL     1      -2.004  -1.947   4.957  0.00  0.00    -0.270 OA
ATOM     18  N   UNL     1      -1.563   0.155   5.524  0.00  0.00    -0.325 N 
ATOM     19  H   UNL     1      -0.906   0.861   5.632  0.00  0.00    +0.145 HD
ATOM     20  H   UNL     1      -2.496   0.326   5.728  0.00  0.00    +0.145 HD
ENDBRANCH   8  16
ENDBRANCH   5   7
ENDBRANCH   2   3
BRANCH   2  21
ATOM     21  S   UNL     1       0.851  -0.589  -1.490  0.00  0.00    -0.074 S 
BRANCH  21  22
ATOM     22  C   UNL     1      -0.189  -0.057  -2.809  0.00  0.00    +0.190 A 
ATOM     23  N   UNL     1       0.155  -0.338  -4.056  0.00  0.00    -0.221 NA
ATOM     24  C   UNL     1      -0.611   0.051  -5.076  0.00  0.00    +0.082 A 
ATOM     25  C   UNL     1      -1.788   0.763  -4.806  0.00  0.00    +0.061 A 
ATOM     26  C   UNL     1      -2.106   1.033  -3.489  0.00  0.00    +0.148 A 
ATOM     27  N   UNL     1      -1.300   0.610  -2.527  0.00  0.00    -0.218 NA
BRANCH  24  28
ATOM     28  C   UNL     1      -0.227  -0.262  -6.465  0.00  0.00    +0.038 A 
ATOM     29  C   UNL     1       0.870  -0.944  -6.925  0.00  0.00    +0.017 A 
ATOM     30  C   UNL     1       1.021  -1.116  -8.281  0.00  0.00    +0.008 A 
ATOM     31  C   UNL     1       0.082  -0.607  -9.122  0.00  0.00    +0.046 A 
ATOM     32  S   UNL     1      -1.072   0.142  -7.985  0.00  0.00    -0.095 S 
ENDBRANCH  24  28
BRANCH  26  33
ATOM     33  C   UNL     1      -3.361   1.796  -3.150  0.00  0.00    +0.434 C 
ATOM     34  F   UNL     1      -4.419   0.898  -2.975  0.00  0.00    -0.164 F 
ATOM     35  F   UNL     1      -3.162   2.519  -1.969  0.00  0.00    -0.164 F 
ATOM     36  F   UNL     1      -3.666   2.678  -4.192  0.00  0.00    -0.164 F 
ENDBRANCH  26  33
ENDBRANCH  21  22
ENDBRANCH   2  21
TORSDOF 7
