REMARK  Name = ZINC39710292
REMARK  12 active torsions:
REMARK  status: ('A' for Active; 'I' for Inactive)
REMARK    1  A    between atoms: C_1  and  C_2
REMARK    2  A    between atoms: C_9  and  C_14
REMARK    3  A    between atoms: C_14  and  C_16
REMARK    4  A    between atoms: C_14  and  N_26
REMARK    5  A    between atoms: N_21  and  C_22
REMARK    6  A    between atoms: C_22  and  C_23
REMARK    7  A    between atoms: C_22  and  C_24
REMARK    8  A    between atoms: C_22  and  C_25
REMARK    9  A    between atoms: N_26  and  C_27
REMARK   10  A    between atoms: N_26  and  C_35
REMARK   11  A    between atoms: C_27  and  C_28
REMARK   12  A    between atoms: C_35  and  C_36
REMARK                            x       y       z     vdW  Elec       q    Type
REMARK                         _______ _______ _______ _____ _____    ______ ____
ROOT
ATOM      1  C   UNL     1      -0.460  -5.478   2.262  0.00  0.00    -0.008 C 
ENDROOT
BRANCH   1  10
ATOM      2  C   UNL     1       3.175   0.168  -0.171  0.00  0.00    +0.044 C 
ATOM      3  C   UNL     1       2.707  -1.263  -0.238  0.00  0.00    -0.050 A 
ATOM      4  C   UNL     1       2.701  -1.922  -1.468  0.00  0.00    +0.005 A 
ATOM      5  C   UNL     1       2.293  -3.211  -1.607  0.00  0.00    +0.024 A 
ATOM      6  C   UNL     1       1.853  -3.945  -0.491  0.00  0.00    +0.040 A 
ATOM      7  N   UNL     1       1.457  -5.209  -0.639  0.00  0.00    -0.285 N 
ATOM      8  C   UNL     1       1.032  -5.955   0.366  0.00  0.00    +0.223 C 
ATOM      9  O   UNL     1       0.682  -7.104   0.170  0.00  0.00    -0.275 OA
ATOM     10  C   UNL     1       0.982  -5.375   1.762  0.00  0.00    +0.088 C 
ATOM     11  C   UNL     1       1.433  -3.938   1.936  0.00  0.00    -0.006 C 
ATOM     12  C   UNL     1       1.850  -3.275   0.821  0.00  0.00    -0.007 A 
ATOM     13  C   UNL     1       2.307  -1.887   0.900  0.00  0.00    +0.012 A 
ATOM     14  H   UNL     1       1.481  -5.600  -1.527  0.00  0.00    +0.155 HD
ENDBRANCH   1  10
BRANCH   1  15
ATOM     15  C   UNL     1      -1.384  -4.709   1.316  0.00  0.00    +0.205 C 
ATOM     16  N   UNL     1      -1.301  -5.262  -0.043  0.00  0.00    -0.152 NA
ATOM     17  N   UNL     1      -0.891  -4.385  -0.806  0.00  0.00    -0.070 NA
ATOM     18  N   UNL     1      -0.641  -3.175  -0.158  0.00  0.00    -0.179 N 
ATOM     19  N   UNL     1      -0.932  -3.309   1.178  0.00  0.00    -0.183 NA
ATOM     20  H   UNL     1      -0.315  -2.367  -0.583  0.00  0.00    +0.191 HD
BRANCH  19  21
ATOM     21  C   UNL     1      -1.987  -2.372   1.585  0.00  0.00    +0.035 C 
ATOM     22  C   UNL     1      -2.368  -2.637   3.043  0.00  0.00    +0.029 C 
ATOM     23  C   UNL     1      -1.477  -0.937   1.444  0.00  0.00    +0.029 C 
ATOM     24  C   UNL     1      -3.215  -2.567   0.694  0.00  0.00    +0.029 C 
ENDBRANCH  19  21
ENDBRANCH   1  15
BRANCH   1  25
ATOM     25  N   UNL     1      -0.865  -6.889   2.303  0.00  0.00    +0.392 N 
ATOM     26  H   UNL     1      -0.931  -7.247   1.362  0.00  0.00    -0.080 HD
BRANCH  25  27
ATOM     27  C   UNL     1      -2.172  -7.005   2.964  0.00  0.00    -0.040 C 
BRANCH  27  28
ATOM     28  C   UNL     1      -3.260  -6.617   1.997  0.00  0.00    -0.046 A 
ATOM     29  C   UNL     1      -4.133  -5.593   2.313  0.00  0.00    +0.003 A 
ATOM     30  C   UNL     1      -5.131  -5.237   1.426  0.00  0.00    +0.000 A 
ATOM     31  C   UNL     1      -5.258  -5.905   0.222  0.00  0.00    +0.001 A 
ATOM     32  C   UNL     1      -4.386  -6.929  -0.095  0.00  0.00    +0.020 A 
ATOM     33  C   UNL     1      -3.383  -7.282   0.790  0.00  0.00    +0.042 A 
ATOM     34 CL   UNL     1      -2.283  -8.564   0.390  0.00  0.00    -0.083 Cl
ENDBRANCH  27  28
ENDBRANCH  25  27
BRANCH  25  35
ATOM     35  C   UNL     1       0.133  -7.664   3.052  0.00  0.00    -0.002 C 
BRANCH  35  36
ATOM     36  C   UNL     1      -0.249  -9.121   3.040  0.00  0.00    +0.089 A 
ATOM     37  C   UNL     1       0.185 -10.041   2.160  0.00  0.00    +0.042 A 
ATOM     38  C   UNL     1      -0.421 -11.268   2.517  0.00  0.00    +0.041 A 
ATOM     39  C   UNL     1      -1.189 -11.024   3.594  0.00  0.00    +0.195 A 
ATOM     40  O   UNL     1      -1.077  -9.724   3.910  0.00  0.00    -0.470 OA
ENDBRANCH  35  36
ENDBRANCH  25  35
ENDBRANCH   1  25
TORSDOF 8
