REMARK  Name = ZINC15015894
REMARK  8 active torsions:
REMARK  status: ('A' for Active; 'I' for Inactive)
REMARK    1  A    between atoms: C_1  and  C_2
REMARK    2  A    between atoms: N_7  and  C_8
REMARK    3  A    between atoms: C_8  and  C_10
REMARK    4  A    between atoms: C_8  and  C_22
REMARK    5  A    between atoms: C_13  and  O_16
REMARK    6  A    between atoms: O_16  and  C_17
REMARK    7  A    between atoms: C_28  and  C_33
REMARK    8  A    between atoms: C_31  and  O_32
REMARK                            x       y       z     vdW  Elec       q    Type
REMARK                         _______ _______ _______ _____ _____    ______ ____
ROOT
ATOM      1  C   UNL     1      -4.539  -1.896   3.418  0.00  0.00    +0.136 C 
ENDROOT
BRANCH   1   2
ATOM      2  C   UNL     1      -5.603  -2.033   2.360  0.00  0.00    +0.021 A 
ATOM      3  C   UNL     1      -5.490  -3.033   1.398  0.00  0.00    +0.010 A 
ATOM      4  C   UNL     1      -6.434  -3.183   0.429  0.00  0.00    +0.010 A 
ATOM      5  C   UNL     1      -7.540  -2.319   0.394  0.00  0.00    +0.004 A 
ATOM      6  C   UNL     1      -8.537  -2.443  -0.592  0.00  0.00    +0.012 A 
ATOM      7  C   UNL     1      -9.584  -1.567  -0.564  0.00  0.00    +0.023 A 
ATOM      8  C   UNL     1      -9.643  -0.586   0.423  0.00  0.00    +0.039 A 
ATOM      9  N   UNL     1      -8.713  -0.473   1.340  0.00  0.00    -0.248 NA
ATOM     10  C   UNL     1      -7.662  -1.298   1.369  0.00  0.00    +0.113 A 
ATOM     11  C   UNL     1      -6.667  -1.176   2.361  0.00  0.00    +0.148 A 
ATOM     12  C   UNL     1     -10.807   0.371   0.438  0.00  0.00    +0.065 C 
BRANCH  11  13
ATOM     13  O   UNL     1      -6.764  -0.209   3.311  0.00  0.00    -0.504 OA
ATOM     14  H   UNL     1      -6.346   0.627   3.064  0.00  0.00    +0.292 HD
ENDBRANCH  11  13
ENDBRANCH   1   2
BRANCH   1  21
ATOM     15  C   UNL     1      -3.486  -7.330   6.019  0.00  0.00    +0.063 C 
ATOM     16  C   UNL     1      -4.253  -6.063   5.740  0.00  0.00    +0.014 A 
ATOM     17  C   UNL     1      -5.435  -5.821   6.411  0.00  0.00    +0.021 A 
ATOM     18  C   UNL     1      -6.139  -4.653   6.149  0.00  0.00    +0.005 A 
ATOM     19  C   UNL     1      -5.625  -3.768   5.218  0.00  0.00    +0.041 A 
ATOM     20  C   UNL     1      -4.429  -4.076   4.579  0.00  0.00    +0.097 A 
ATOM     21  N   UNL     1      -3.902  -3.196   3.641  0.00  0.00    -0.320 N 
ATOM     22  H   UNL     1      -3.113  -3.443   3.134  0.00  0.00    +0.148 HD
ATOM     23  N   UNL     1      -3.723  -5.220   4.815  0.00  0.00    -0.347 N 
ATOM     24  H   UNL     1      -2.845  -5.430   4.325  0.00  0.00    +0.167 HD
ENDBRANCH   1  21
BRANCH   1  25
ATOM     25  C   UNL     1      -3.503  -0.900   2.963  0.00  0.00    -0.023 A 
ATOM     26  C   UNL     1      -3.436   0.346   3.557  0.00  0.00    +0.009 A 
ATOM     27  C   UNL     1      -2.487   1.260   3.142  0.00  0.00    +0.046 A 
ATOM     28  C   UNL     1      -1.601   0.927   2.128  0.00  0.00    +0.121 A 
ATOM     29  C   UNL     1      -1.675  -0.323   1.529  0.00  0.00    +0.046 A 
ATOM     30  C   UNL     1      -2.622  -1.235   1.952  0.00  0.00    +0.009 A 
BRANCH  28  31
ATOM     31  O   UNL     1      -0.667   1.824   1.717  0.00  0.00    -0.489 OA
BRANCH  31  32
ATOM     32  C   UNL     1      -0.731   3.133   2.287  0.00  0.00    +0.173 C 
ATOM     33  C   UNL     1       0.127   3.210   3.574  0.00  0.00    +0.044 C 
ATOM     34  C   UNL     1       0.435   4.724   3.689  0.00  0.00    +0.004 C 
ATOM     35  C   UNL     1       0.656   5.177   2.232  0.00  0.00    +0.004 C 
ATOM     36  C   UNL     1      -0.085   4.166   1.340  0.00  0.00    +0.044 C 
ENDBRANCH  31  32
ENDBRANCH  28  31
ENDBRANCH   1  25
TORSDOF 6
