REMARK  Name = ZINC37951101
REMARK  7 active torsions:
REMARK  status: ('A' for Active; 'I' for Inactive)
REMARK    1  A    between atoms: C_1  and  C_2
REMARK    2  A    between atoms: C_2  and  C_3
REMARK    3  A    between atoms: C_3  and  C_4
REMARK    4  A    between atoms: C_3  and  C_11
REMARK    5  A    between atoms: C_3  and  N_14
REMARK    6  A    between atoms: C_7  and  O_10
REMARK    7  A    between atoms: N_14  and  C_15
REMARK                            x       y       z     vdW  Elec       q    Type
REMARK                         _______ _______ _______ _____ _____    ______ ____
ROOT
ATOM      1  C   UNL     1       0.680  -0.280   1.147  0.00  0.00    +0.134 C 
ENDROOT
BRANCH   1   2
ATOM      2  C   UNL     1       0.031   0.028   2.472  0.00  0.00    -0.015 A 
ATOM      3  C   UNL     1      -1.287   0.444   2.515  0.00  0.00    +0.010 A 
ATOM      4  C   UNL     1      -1.884   0.727   3.728  0.00  0.00    +0.046 A 
ATOM      5  C   UNL     1      -1.160   0.593   4.904  0.00  0.00    +0.117 A 
ATOM      6  C   UNL     1       0.162   0.174   4.858  0.00  0.00    +0.046 A 
ATOM      7  C   UNL     1       0.753  -0.113   3.643  0.00  0.00    +0.010 A 
BRANCH   5   8
ATOM      8  O   UNL     1      -1.745   0.871   6.099  0.00  0.00    -0.507 OA
ATOM      9  H   UNL     1      -2.179   0.111   6.511  0.00  0.00    +0.292 HD
ENDBRANCH   5   8
ENDBRANCH   1   2
BRANCH   1  10
ATOM     10  C   UNL     1       0.467  -1.733   0.809  0.00  0.00    +0.238 C 
ATOM     11  O   UNL     1      -0.462  -2.061   0.102  0.00  0.00    -0.273 OA
ATOM     12  N   UNL     1       1.309  -2.668   1.292  0.00  0.00    -0.327 N 
ATOM     13  H   UNL     1       2.052  -2.406   1.857  0.00  0.00    +0.145 HD
ATOM     14  H   UNL     1       1.172  -3.603   1.074  0.00  0.00    +0.145 HD
ENDBRANCH   1  10
BRANCH   1  16
ATOM     15  C   UNL     1       0.376   2.064   0.338  0.00  0.00    +0.007 C 
ATOM     16  C   UNL     1       0.056   0.594   0.058  0.00  0.00    +0.037 C 
ENDBRANCH   1  16
BRANCH   1  17
ATOM     17  N   UNL     1       2.116  -0.004   1.231  0.00  0.00    -0.327 N 
ATOM     18  H   UNL     1       2.497   0.340   2.054  0.00  0.00    +0.147 HD
BRANCH  17  19
ATOM     19  C   UNL     1       2.938  -0.236   0.126  0.00  0.00    +0.029 A 
ATOM     20  C   UNL     1       2.422  -0.851  -1.008  0.00  0.00    +0.023 A 
ATOM     21  C   UNL     1       3.237  -1.079  -2.100  0.00  0.00    +0.003 A 
ATOM     22  C   UNL     1       4.565  -0.697  -2.065  0.00  0.00    +0.015 A 
ATOM     23  C   UNL     1       5.083  -0.084  -0.938  0.00  0.00    +0.020 A 
ATOM     24  C   UNL     1       4.271   0.153   0.156  0.00  0.00    +0.038 A 
ATOM     25 BR   UNL     1       6.900   0.437  -0.895  0.00  0.00    -0.050 Br
ENDBRANCH  17  19
ENDBRANCH   1  17
TORSDOF 6
