REMARK  Name = ZINC43509588
REMARK  7 active torsions:
REMARK  status: ('A' for Active; 'I' for Inactive)
REMARK    1  A    between atoms: C_1  and  C_2
REMARK    2  A    between atoms: C_8  and  C_32
REMARK    3  A    between atoms: C_12  and  O_23
REMARK    4  A    between atoms: C_20  and  O_22
REMARK    5  A    between atoms: C_26  and  O_31
REMARK    6  A    between atoms: C_28  and  C_29
REMARK    7  A    between atoms: C_28  and  C_30
REMARK                            x       y       z     vdW  Elec       q    Type
REMARK                         _______ _______ _______ _____ _____    ______ ____
ROOT
ATOM      1  C   UNL     1       1.548   0.824  -0.933  0.00  0.00    +0.011 C 
ATOM      2  C   UNL     1       0.919  -0.521  -0.582  0.00  0.00    +0.031 C 
ATOM      3  C   UNL     1      -0.558  -0.346  -0.228  0.00  0.00    +0.007 C 
ATOM      4  C   UNL     1      -1.171  -1.725   0.014  0.00  0.00    +0.005 C 
ATOM      5  C   UNL     1      -0.455  -2.502   1.122  0.00  0.00    +0.007 C 
ATOM      6  C   UNL     1       1.049  -2.547   0.882  0.00  0.00    +0.012 C 
ATOM      7  C   UNL     1       1.603  -1.139   0.634  0.00  0.00    +0.123 C 
ATOM      8  C   UNL     1       1.401  -0.255   1.875  0.00  0.00    +0.091 C 
ATOM      9  C   UNL     1       2.793  -0.195   2.477  0.00  0.00    +0.040 A 
ATOM     10  C   UNL     1       3.252   0.244   3.706  0.00  0.00    +0.124 A 
ATOM     11  C   UNL     1       4.608   0.183   4.001  0.00  0.00    +0.054 A 
ATOM     12  C   UNL     1       5.489  -0.327   3.068  0.00  0.00    +0.020 A 
ATOM     13  C   UNL     1       5.025  -0.777   1.846  0.00  0.00    +0.028 A 
ATOM     14  C   UNL     1       3.668  -0.728   1.543  0.00  0.00    +0.134 A 
ATOM     15  O   UNL     1       3.015  -1.170   0.435  0.00  0.00    -0.484 OA
ATOM     16  C   UNL     1       6.219  -1.260   1.056  0.00  0.00    +0.202 C 
ATOM     17  O   UNL     1       7.268  -1.464   2.020  0.00  0.00    -0.343 OA
ATOM     18  C   UNL     1       6.986  -0.532   3.080  0.00  0.00    +0.280 C 
ATOM     19  C   UNL     1       1.370  -3.424  -0.331  0.00  0.00    +0.013 C 
ATOM     20  C   UNL     1       0.838  -4.838  -0.105  0.00  0.00    +0.032 C 
ATOM     21  C   UNL     1      -0.677  -4.792   0.068  0.00  0.00    +0.120 C 
ATOM     22  C   UNL     1      -1.089  -3.887   1.225  0.00  0.00    -0.005 C 
ATOM     23  C   UNL     1      -2.628  -3.747   1.167  0.00  0.00    +0.014 C 
ATOM     24  C   UNL     1      -0.788  -4.570   2.561  0.00  0.00    +0.014 C 
ATOM     25  C   UNL     1       1.804  -3.107   2.096  0.00  0.00    +0.015 C 
ENDROOT
BRANCH  18  26
ATOM     26  O   UNL     1       7.393  -1.082   4.336  0.00  0.00    -0.363 OA
ATOM     27  H   UNL     1       8.345  -1.237   4.407  0.00  0.00    +0.213 HD
ENDBRANCH  18  26
BRANCH  10  28
ATOM     28  O   UNL     1       2.377   0.731   4.625  0.00  0.00    -0.506 OA
ATOM     29  H   UNL     1       2.018   0.059   5.221  0.00  0.00    +0.292 HD
ENDBRANCH  10  28
BRANCH  21  30
ATOM     30  O   UNL     1      -1.163  -6.117   0.317  0.00  0.00    -0.391 OA
ATOM     31  H   UNL     1      -0.973  -6.745  -0.394  0.00  0.00    +0.210 HD
ENDBRANCH  21  30
TORSDOF 3
