REMARK  Name = ZINC14745492
REMARK  9 active torsions:
REMARK  status: ('A' for Active; 'I' for Inactive)
REMARK    1  A    between atoms: C_1  and  C_2
REMARK    2  A    between atoms: C_2  and  C_3
REMARK    3  A    between atoms: C_2  and  C_4
REMARK    4  A    between atoms: C_4  and  N_5
REMARK    5  A    between atoms: C_8  and  C_10
REMARK    6  A    between atoms: C_19  and  N_63
REMARK    7  A    between atoms: C_23  and  C_24
REMARK    8  A    between atoms: C_23  and  N_63
REMARK    9  A    between atoms: C_24  and  C_25
REMARK                            x       y       z     vdW  Elec       q    Type
REMARK                         _______ _______ _______ _____ _____    ______ ____
ROOT
ATOM      1  N   UNL     1      -6.425  -1.017   6.253  0.00  0.00    -0.267 N 
ATOM      2  C   UNL     1      -6.087  -0.377   5.122  0.00  0.00    +0.043 A 
ATOM      3  C   UNL     1      -6.188  -1.272   4.109  0.00  0.00    +0.004 A 
ATOM      4  C   UNL     1      -6.605  -2.477   4.698  0.00  0.00    +0.151 A 
ATOM      5  N   UNL     1      -6.726  -2.243   5.994  0.00  0.00    -0.166 NA
ATOM      6  C   UNL     1      -5.894  -0.966   2.666  0.00  0.00    +0.023 C 
ATOM      7  C   UNL     1      -5.096   0.344   2.604  0.00  0.00    -0.067 C 
ATOM      8  C   UNL     1      -5.799   1.411   3.448  0.00  0.00    -0.009 C 
ATOM      9  C   UNL     1      -5.670   1.060   4.936  0.00  0.00    +0.054 C 
ENDROOT
BRANCH   4  10
ATOM     10  C   UNL     1      -6.860  -3.756   4.005  0.00  0.00    +0.267 C 
ATOM     11  O   UNL     1      -6.602  -3.869   2.823  0.00  0.00    -0.268 OA
ATOM     12  N   UNL     1      -7.378  -4.799   4.684  0.00  0.00    -0.292 N 
ATOM     13  C   UNL     1      -7.827  -4.648   6.078  0.00  0.00    +0.136 C 
ATOM     14  C   UNL     1      -9.251  -5.216   6.187  0.00  0.00    +0.179 C 
ATOM     15  O   UNL     1      -9.268  -6.543   5.655  0.00  0.00    -0.377 OA
ATOM     16  C   UNL     1      -8.941  -6.621   4.266  0.00  0.00    +0.179 C 
ATOM     17  C   UNL     1      -7.506  -6.124   4.056  0.00  0.00    +0.136 C 
ENDBRANCH   4  10
BRANCH   7  18
ATOM     18  N   UNL     1      -5.017   0.797   1.203  0.00  0.00    +0.381 N 
ATOM     19  H   UNL     1      -5.862   1.334   0.973  0.00  0.00    -0.086 HD
ATOM     20  H   UNL     1      -4.953  -0.021   0.585  0.00  0.00    -0.086 HD
BRANCH  18  21
ATOM     21  C   UNL     1      -3.830   1.650   1.006  0.00  0.00    -0.077 C 
BRANCH  21  22
ATOM     22  C   UNL     1      -3.775   2.104  -0.454  0.00  0.00    +0.017 C 
BRANCH  22  23
ATOM     23  C   UNL     1      -2.564   2.976  -0.663  0.00  0.00    -0.031 A 
ATOM     24  C   UNL     1      -2.680   4.351  -0.580  0.00  0.00    +0.005 A 
ATOM     25  C   UNL     1      -1.570   5.152  -0.777  0.00  0.00    +0.000 A 
ATOM     26  C   UNL     1      -0.343   4.577  -1.053  0.00  0.00    +0.001 A 
ATOM     27  C   UNL     1      -0.225   3.203  -1.132  0.00  0.00    +0.020 A 
ATOM     28  C   UNL     1      -1.336   2.401  -0.934  0.00  0.00    +0.044 A 
ATOM     29 CL   UNL     1      -1.188   0.674  -1.034  0.00  0.00    -0.083 Cl
ENDBRANCH  22  23
ENDBRANCH  21  22
ENDBRANCH  18  21
ENDBRANCH   7  18
BRANCH   1  30
ATOM     30  C   UNL     1      -6.447  -0.411   7.587  0.00  0.00    +0.146 C 
BRANCH  30  32
ATOM     31  C   UNL     1      -5.061   0.159   9.586  0.00  0.00    +0.009 C 
ATOM     32  C   UNL     1      -5.077  -0.581   8.247  0.00  0.00    +0.004 C 
ATOM     33  C   UNL     1      -4.805  -2.068   8.483  0.00  0.00    +0.009 C 
ENDBRANCH  30  32
ENDBRANCH   1  30
TORSDOF 7
