REMARK  Name = ZINC35727986
REMARK  13 active torsions:
REMARK  status: ('A' for Active; 'I' for Inactive)
REMARK    1  A    between atoms: C_1  and  C_2
REMARK    2  A    between atoms: C_2  and  C_3
REMARK    3  A    between atoms: C_3  and  C_4
REMARK    4  A    between atoms: C_4  and  N_5
REMARK    5  A    between atoms: C_6  and  C_8
REMARK    6  A    between atoms: C_8  and  S_9
REMARK    7  A    between atoms: S_9  and  C_10
REMARK    8  A    between atoms: C_21  and  C_24
REMARK    9  A    between atoms: C_25  and  C_27
REMARK   10  A    between atoms: C_30  and  C_33
REMARK   11  A    between atoms: C_33  and  C_34
REMARK   12  A    between atoms: C_33  and  C_35
REMARK   13  A    between atoms: C_33  and  C_36
REMARK                            x       y       z     vdW  Elec       q    Type
REMARK                         _______ _______ _______ _____ _____    ______ ____
ROOT
ATOM      1  C   UNL     1       2.647  -6.686  -5.746  0.00  0.00    +0.192 A 
ATOM      2  N   UNL     1       2.965  -7.953  -5.968  0.00  0.00    -0.207 NA
ATOM      3  C   UNL     1       3.408  -8.341  -7.159  0.00  0.00    +0.127 A 
ATOM      4  C   UNL     1       3.535  -7.394  -8.177  0.00  0.00    +0.083 A 
ATOM      5  C   UNL     1       3.193  -6.083  -7.904  0.00  0.00    +0.135 A 
ATOM      6  N   UNL     1       2.752  -5.766  -6.694  0.00  0.00    -0.210 NA
ATOM      7 CL   UNL     1       3.331  -4.865  -9.134  0.00  0.00    -0.062 Cl
ATOM      8  N   UNL     1       3.740  -9.667  -7.388  0.00  0.00    -0.312 N 
ATOM      9  C   UNL     1       3.406 -10.703  -6.400  0.00  0.00    +0.125 C 
ATOM     10  C   UNL     1       4.689 -11.453  -6.023  0.00  0.00    +0.127 C 
ATOM     11  N   UNL     1       5.382 -11.849  -7.257  0.00  0.00    -0.292 N 
ATOM     12  C   UNL     1       5.716 -10.813  -8.245  0.00  0.00    +0.091 C 
ATOM     13  C   UNL     1       4.428 -10.064  -8.624  0.00  0.00    +0.128 C 
ATOM     14  C   UNL     1       6.728  -9.836  -7.642  0.00  0.00    +0.029 C 
ATOM     15  C   UNL     1       5.705 -13.138  -7.479  0.00  0.00    +0.247 C 
ATOM     16  O   UNL     1       5.333 -14.000  -6.706  0.00  0.00    -0.270 OA
ENDROOT
BRANCH  15  17
ATOM     17  C   UNL     1       6.511 -13.505  -8.662  0.00  0.00    +0.037 A 
ATOM     18  C   UNL     1       7.622 -12.739  -9.019  0.00  0.00    +0.013 A 
ATOM     19  C   UNL     1       8.370 -13.087 -10.124  0.00  0.00    +0.005 A 
ATOM     20  C   UNL     1       8.022 -14.193 -10.879  0.00  0.00    -0.042 A 
ATOM     21  C   UNL     1       6.922 -14.957 -10.531  0.00  0.00    +0.005 A 
ATOM     22  C   UNL     1       6.169 -14.623  -9.425  0.00  0.00    +0.013 A 
BRANCH  20  23
ATOM     23  C   UNL     1       8.844 -14.567 -12.086  0.00  0.00    -0.013 C 
ATOM     24  C   UNL     1      10.284 -14.850 -11.654  0.00  0.00    +0.015 C 
ATOM     25  C   UNL     1       8.252 -15.817 -12.738  0.00  0.00    +0.015 C 
ATOM     26  C   UNL     1       8.830 -13.412 -13.090  0.00  0.00    +0.015 C 
ENDBRANCH  20  23
ENDBRANCH  15  17
BRANCH   1  27
ATOM     27  S   UNL     1       2.062  -6.213  -4.152  0.00  0.00    -0.077 S 
BRANCH  27  28
ATOM     28  C   UNL     1       1.751  -4.433  -4.309  0.00  0.00    +0.173 C 
BRANCH  28  30
ATOM     29  N   UNL     1       0.938  -2.587  -2.877  0.00  0.00    -0.315 N 
ATOM     30  C   UNL     1       1.240  -3.895  -2.997  0.00  0.00    +0.223 C 
ATOM     31  O   UNL     1       1.099  -4.640  -2.050  0.00  0.00    -0.275 OA
ATOM     32  H   UNL     1       1.051  -1.992  -3.635  0.00  0.00    +0.149 HD
BRANCH  29  33
ATOM     33  C   UNL     1       0.441  -2.064  -1.602  0.00  0.00    +0.104 C 
BRANCH  33  34
ATOM     34  C   UNL     1       0.179  -0.563  -1.734  0.00  0.00    +0.018 C 
BRANCH  34  36
ATOM     35  C   UNL     1      -0.603   1.485  -0.534  0.00  0.00    +0.004 C 
ATOM     36  C   UNL     1      -0.340  -0.017  -0.402  0.00  0.00    -0.002 C 
ENDBRANCH  34  36
ENDBRANCH  33  34
ENDBRANCH  29  33
ENDBRANCH  28  30
ENDBRANCH  27  28
ENDBRANCH   1  27
TORSDOF 8
