REMARK  Name = ZINC09274665
REMARK  10 active torsions:
REMARK  status: ('A' for Active; 'I' for Inactive)
REMARK    1  A    between atoms: C_1  and  O_2
REMARK    2  A    between atoms: O_2  and  C_3
REMARK    3  A    between atoms: C_7  and  C_11
REMARK    4  A    between atoms: C_8  and  O_9
REMARK    5  A    between atoms: O_9  and  C_10
REMARK    6  A    between atoms: C_11  and  N_13
REMARK    7  A    between atoms: N_15  and  C_27
REMARK    8  A    between atoms: C_19  and  S_23
REMARK    9  A    between atoms: S_23  and  N_26
REMARK   10  A    between atoms: C_27  and  C_28
REMARK                            x       y       z     vdW  Elec       q    Type
REMARK                         _______ _______ _______ _____ _____    ______ ____
ROOT
ATOM      1  N   UNL     1       4.014  -1.254   0.478  0.00  0.00    -0.152 NA
ATOM      2  C   UNL     1       4.776  -0.663   1.391  0.00  0.00    +0.168 A 
ATOM      3  N   UNL     1       4.391   0.148   2.414  0.00  0.00    -0.310 N 
ATOM      4  C   UNL     1       5.336   0.673   3.276  0.00  0.00    +0.059 A 
ATOM      5  C   UNL     1       5.135   1.516   4.380  0.00  0.00    +0.029 A 
ATOM      6  C   UNL     1       6.199   1.954   5.133  0.00  0.00    +0.030 A 
ATOM      7  C   UNL     1       7.497   1.579   4.828  0.00  0.00    +0.106 A 
ATOM      8  C   UNL     1       7.723   0.749   3.745  0.00  0.00    +0.045 A 
ATOM      9  C   UNL     1       6.661   0.310   2.991  0.00  0.00    +0.041 A 
ATOM     10  S   UNL     1       6.500  -0.732   1.563  0.00  0.00    -0.052 S 
ENDROOT
BRANCH   7  11
ATOM     11  S   UNL     1       8.843   2.153   5.809  0.00  0.00    +0.056 S 
ATOM     12  O   UNL     1       8.308   2.473   7.085  0.00  0.00    -0.153 OA
ATOM     13  O   UNL     1       9.898   1.216   5.638  0.00  0.00    -0.153 OA
BRANCH  11  14
ATOM     14  N   UNL     1       9.363   3.577   5.142  0.00  0.00    -0.204 NA
ATOM     15  H   UNL     1       8.924   3.931   4.353  0.00  0.00    +0.144 HD
ATOM     16  H   UNL     1      10.105   4.057   5.541  0.00  0.00    +0.144 HD
ENDBRANCH  11  14
ENDBRANCH   7  11
BRANCH   1  17
ATOM     17  C   UNL     1       2.724  -0.922   0.366  0.00  0.00    +0.273 C 
ATOM     18  O   UNL     1       2.409   0.236   0.152  0.00  0.00    -0.268 OA
BRANCH  17  23
ATOM     19  C   UNL     1      -0.648  -2.598   0.520  0.00  0.00    +0.162 A 
ATOM     20  C   UNL     1      -0.278  -3.912   0.757  0.00  0.00    +0.049 A 
ATOM     21  C   UNL     1       1.059  -4.252   0.872  0.00  0.00    +0.005 A 
ATOM     22  C   UNL     1       2.036  -3.287   0.746  0.00  0.00    +0.017 A 
ATOM     23  C   UNL     1       1.679  -1.959   0.501  0.00  0.00    +0.084 A 
ATOM     24  C   UNL     1       0.328  -1.615   0.384  0.00  0.00    +0.174 A 
BRANCH  19  26
ATOM     25  C   UNL     1      -2.910  -3.330   0.563  0.00  0.00    +0.277 C 
ATOM     26  O   UNL     1      -1.963  -2.270   0.413  0.00  0.00    -0.491 OA
ENDBRANCH  19  26
BRANCH  24  27
ATOM     27  O   UNL     1      -0.030  -0.327   0.146  0.00  0.00    -0.491 OA
ATOM     28  C   UNL     1      -0.149   0.071  -1.221  0.00  0.00    +0.277 C 
ENDBRANCH  24  27
ENDBRANCH  17  23
ENDBRANCH   1  17
BRANCH   3  29
ATOM     29  C   UNL     1       2.972   0.462   2.605  0.00  0.00    +0.212 C 
BRANCH  29  30
ATOM     30  C   UNL     1       2.664   1.750   1.962  0.00  0.00    -0.084 C 
ATOM     31  C   UNL     1       2.417   2.777   1.449  0.00  0.00    +0.005 C 
ENDBRANCH  29  30
ENDBRANCH   3  29
TORSDOF 8
