REMARK  Name = ZINC35778563
REMARK  14 active torsions:
REMARK  status: ('A' for Active; 'I' for Inactive)
REMARK    1  A    between atoms: C_1  and  C_2
REMARK    2  A    between atoms: C_6  and  O_8
REMARK    3  A    between atoms: O_8  and  C_9
REMARK    4  A    between atoms: C_9  and  C_10
REMARK    5  A    between atoms: C_20  and  C_22
REMARK    6  A    between atoms: C_22  and  N_23
REMARK    7  A    between atoms: N_23  and  C_24
REMARK    8  A    between atoms: N_23  and  C_34
REMARK    9  A    between atoms: C_24  and  C_25
REMARK   10  A    between atoms: C_25  and  C_27
REMARK   11  A    between atoms: C_25  and  O_33
REMARK   12  A    between atoms: C_34  and  C_35
REMARK   13  A    between atoms: C_35  and  C_36
REMARK   14  A    between atoms: C_35  and  C_37
REMARK                            x       y       z     vdW  Elec       q    Type
REMARK                         _______ _______ _______ _____ _____    ______ ____
ROOT
ATOM      1  C   UNL     1      -0.184  -4.637   3.308  0.00  0.00    +0.144 C 
ATOM      2  C   UNL     1       0.944  -3.906   4.034  0.00  0.00    -0.014 A 
ATOM      3  C   UNL     1       2.294  -4.130   3.768  0.00  0.00    +0.013 A 
ATOM      4  C   UNL     1       3.241  -3.443   4.447  0.00  0.00    +0.046 A 
ATOM      5  S   UNL     1       2.250  -2.420   5.526  0.00  0.00    -0.101 S 
ATOM      6  C   UNL     1       0.655  -2.986   4.993  0.00  0.00    -0.004 A 
ATOM      7  C   UNL     1      -0.691  -2.559   5.481  0.00  0.00    +0.061 C 
ATOM      8  C   UNL     1      -1.750  -3.015   4.465  0.00  0.00    +0.113 C 
ATOM      9  N   UNL     1      -1.429  -4.389   4.048  0.00  0.00    -0.292 N 
ATOM     10  C   UNL     1      -2.264  -5.406   4.339  0.00  0.00    +0.200 C 
ATOM     11  O   UNL     1      -1.990  -6.535   3.991  0.00  0.00    -0.278 OA
ENDROOT
BRANCH   1  12
ATOM     12  C   UNL     1      -0.314  -4.101   1.881  0.00  0.00    +0.256 C 
BRANCH  12  13
ATOM     13  O   UNL     1      -0.471  -2.681   1.917  0.00  0.00    -0.490 OA
BRANCH  13  19
ATOM     14  C   UNL     1      -1.058   1.476  -0.571  0.00  0.00    +0.044 C 
ATOM     15  C   UNL     1      -0.889  -0.021  -0.529  0.00  0.00    -0.047 A 
ATOM     16  C   UNL     1      -0.865  -0.747  -1.705  0.00  0.00    +0.003 A 
ATOM     17  C   UNL     1      -0.709  -2.120  -1.670  0.00  0.00    +0.004 A 
ATOM     18  C   UNL     1      -0.577  -2.770  -0.458  0.00  0.00    +0.045 A 
ATOM     19  C   UNL     1      -0.601  -2.044   0.724  0.00  0.00    +0.121 A 
ATOM     20  C   UNL     1      -0.751  -0.665   0.685  0.00  0.00    +0.049 A 
ENDBRANCH  13  19
ENDBRANCH  12  13
ENDBRANCH   1  12
BRANCH  10  21
ATOM     21  C   UNL     1      -3.539  -5.141   5.098  0.00  0.00    +0.019 C 
BRANCH  21  22
ATOM     22  N   UNL     1      -4.268  -6.402   5.288  0.00  0.00    +0.387 N 
ATOM     23  H   UNL     1      -4.411  -6.846   4.394  0.00  0.00    -0.081 HD
BRANCH  22  24
ATOM     24  C   UNL     1      -5.569  -6.126   5.912  0.00  0.00    -0.042 C 
BRANCH  24  25
ATOM     25  C   UNL     1      -6.455  -5.363   4.926  0.00  0.00    +0.128 C 
BRANCH  25  26
ATOM     26  C   UNL     1      -7.853  -5.262   5.480  0.00  0.00    -0.021 A 
ATOM     27  C   UNL     1      -8.179  -4.240   6.352  0.00  0.00    +0.006 A 
ATOM     28  C   UNL     1      -9.461  -4.148   6.861  0.00  0.00    +0.000 A 
ATOM     29  C   UNL     1     -10.417  -5.078   6.497  0.00  0.00    +0.000 A 
ATOM     30  C   UNL     1     -10.091  -6.100   5.625  0.00  0.00    +0.000 A 
ATOM     31  C   UNL     1      -8.810  -6.189   5.113  0.00  0.00    +0.006 A 
ENDBRANCH  25  26
BRANCH  25  32
ATOM     32  O   UNL     1      -5.926  -4.050   4.727  0.00  0.00    -0.389 OA
ATOM     33  H   UNL     1      -5.875  -3.520   5.535  0.00  0.00    +0.210 HD
ENDBRANCH  25  32
ENDBRANCH  24  25
ENDBRANCH  22  24
BRANCH  22  34
ATOM     34  C   UNL     1      -3.487  -7.292   6.158  0.00  0.00    -0.075 C 
BRANCH  34  35
ATOM     35  C   UNL     1      -4.172  -8.658   6.235  0.00  0.00    -0.034 C 
ATOM     36  C   UNL     1      -4.170  -9.309   4.851  0.00  0.00    +0.005 C 
ATOM     37  C   UNL     1      -3.416  -9.552   7.220  0.00  0.00    +0.005 C 
ENDBRANCH  34  35
ENDBRANCH  22  34
ENDBRANCH  21  22
ENDBRANCH  10  21
TORSDOF 11
