REMARK  Name = ZINC36612044
REMARK  7 active torsions:
REMARK  status: ('A' for Active; 'I' for Inactive)
REMARK    1  A    between atoms: C_1  and  C_2
REMARK    2  A    between atoms: N_14  and  N_15
REMARK    3  A    between atoms: C_16  and  C_18
REMARK    4  A    between atoms: C_18  and  S_19
REMARK    5  A    between atoms: S_19  and  C_20
REMARK    6  A    between atoms: C_23  and  C_26
REMARK    7  A    between atoms: N_24  and  C_25
REMARK                            x       y       z     vdW  Elec       q    Type
REMARK                         _______ _______ _______ _____ _____    ______ ____
ROOT
ATOM      1  N   UNL     1      -0.114   0.093   2.299  0.00  0.00    -0.218 N 
ATOM      2  C   UNL     1      -1.241   0.257   3.019  0.00  0.00    +0.241 C 
ATOM      3  O   UNL     1      -2.300  -0.147   2.589  0.00  0.00    -0.273 OA
ATOM      4  H   UNL     1       0.733   0.416   2.643  0.00  0.00    +0.176 HD
ENDROOT
BRANCH   1  18
ATOM      5  C   UNL     1       0.097   1.694   0.029  0.00  0.00    +0.088 C 
ATOM      6  C   UNL     1      -0.067   0.200  -0.080  0.00  0.00    +0.129 A 
ATOM      7  N   UNL     1      -0.106  -0.356  -1.262  0.00  0.00    -0.225 NA
ATOM      8  C   UNL     1      -0.250  -1.673  -1.392  0.00  0.00    +0.116 A 
ATOM      9  C   UNL     1      -0.366  -2.520  -0.282  0.00  0.00    +0.077 A 
ATOM     10  C   UNL     1      -0.520  -3.953  -0.576  0.00  0.00    -0.023 A 
ATOM     11  C   UNL     1      -0.531  -4.309  -1.871  0.00  0.00    -0.004 A 
ATOM     12  S   UNL     1      -0.346  -2.785  -2.769  0.00  0.00    -0.073 S 
ATOM     13  C   UNL     1      -0.688  -5.795  -2.050  0.00  0.00    +0.043 C 
ATOM     14  C   UNL     1      -0.343  -6.391  -0.667  0.00  0.00    +0.010 C 
ATOM     15  C   UNL     1      -0.683  -5.217   0.272  0.00  0.00    +0.037 C 
ATOM     16  C   UNL     1      -0.320  -1.881   1.000  0.00  0.00    +0.280 A 
ATOM     17  O   UNL     1      -0.412  -2.536   2.023  0.00  0.00    -0.265 OA
ATOM     18  N   UNL     1      -0.166  -0.544   1.052  0.00  0.00    -0.210 N 
ENDBRANCH   1  18
BRANCH   2  19
ATOM     19  C   UNL     1      -1.185   0.942   4.361  0.00  0.00    +0.174 C 
BRANCH  19  20
ATOM     20  S   UNL     1      -2.850   1.007   5.076  0.00  0.00    -0.077 S 
BRANCH  20  21
ATOM     21  C   UNL     1      -2.619   1.825   6.620  0.00  0.00    +0.192 A 
ATOM     22  N   UNL     1      -1.482   2.275   7.101  0.00  0.00    -0.122 NA
ATOM     23  N   UNL     1      -1.673   2.818   8.250  0.00  0.00    -0.128 NA
ATOM     24  C   UNL     1      -2.943   2.749   8.573  0.00  0.00    +0.165 A 
ATOM     25  N   UNL     1      -3.590   2.115   7.536  0.00  0.00    -0.305 N 
ATOM     26  C   UNL     1      -5.019   1.813   7.437  0.00  0.00    +0.153 C 
BRANCH  24  27
ATOM     27  C   UNL     1      -3.564   3.260   9.813  0.00  0.00    +0.019 A 
ATOM     28  C   UNL     1      -4.822   2.801  10.208  0.00  0.00    +0.014 A 
ATOM     29  C   UNL     1      -5.396   3.281  11.367  0.00  0.00    +0.039 A 
ATOM     30  C   UNL     1      -4.726   4.217  12.139  0.00  0.00    +0.123 A 
ATOM     31  C   UNL     1      -3.477   4.676  11.752  0.00  0.00    +0.039 A 
ATOM     32  C   UNL     1      -2.891   4.199  10.598  0.00  0.00    +0.014 A 
ATOM     33  F   UNL     1      -5.293   4.684  13.273  0.00  0.00    -0.205 F 
ENDBRANCH  24  27
ENDBRANCH  20  21
ENDBRANCH  19  20
ENDBRANCH   2  19
TORSDOF 5
