REMARK  Name = ZINC12283060
REMARK  9 active torsions:
REMARK  status: ('A' for Active; 'I' for Inactive)
REMARK    1  A    between atoms: C_1  and  C_2
REMARK    2  A    between atoms: C_5  and  C_7
REMARK    3  A    between atoms: C_7  and  N_62
REMARK    4  A    between atoms: C_9  and  N_24
REMARK    5  A    between atoms: C_12  and  C_14
REMARK    6  A    between atoms: N_16  and  C_17
REMARK    7  A    between atoms: C_26  and  C_29
REMARK    8  A    between atoms: C_29  and  O_31
REMARK    9  A    between atoms: O_31  and  C_32
REMARK                            x       y       z     vdW  Elec       q    Type
REMARK                         _______ _______ _______ _____ _____    ______ ____
ROOT
ATOM      1  C   UNL     1       0.857  -2.316  -0.460  0.00  0.00    -0.050 C 
ATOM      2  C   UNL     1       2.063  -1.643   0.242  0.00  0.00    +0.091 C 
ATOM      3  C   UNL     1       2.136  -2.440   1.571  0.00  0.00    +0.019 C 
ATOM      4  C   UNL     1       1.736  -3.868   1.143  0.00  0.00    +0.022 C 
ATOM      5  N   UNL     1       0.986  -3.747  -0.117  0.00  0.00    +0.392 N 
ATOM      6  H   UNL     1       1.498  -4.231  -0.865  0.00  0.00    -0.080 HD
ENDROOT
BRANCH   2   7
ATOM      7  N   UNL     1       1.798  -0.225   0.495  0.00  0.00    -0.250 N 
ATOM      8  C   UNL     1       0.590   0.348   0.672  0.00  0.00    +0.145 A 
ATOM      9  C   UNL     1       0.810   1.681   0.877  0.00  0.00    +0.189 A 
ATOM     10  N   UNL     1       2.135   1.906   0.824  0.00  0.00    -0.123 NA
ATOM     11  N   UNL     1       2.751   0.798   0.599  0.00  0.00    -0.065 NA
BRANCH   9  12
ATOM     12  C   UNL     1      -0.229   2.700   1.111  0.00  0.00    +0.361 C 
ATOM     13  O   UNL     1      -1.400   2.379   1.133  0.00  0.00    -0.243 OA
BRANCH  12  14
ATOM     14  O   UNL     1       0.121   3.987   1.300  0.00  0.00    -0.463 OA
ATOM     15  C   UNL     1      -0.955   4.937   1.525  0.00  0.00    +0.280 C 
ENDBRANCH  12  14
ENDBRANCH   9  12
ENDBRANCH   2   7
BRANCH   4  16
ATOM     16  C   UNL     1       0.881  -4.502   2.210  0.00  0.00    +0.200 C 
ATOM     17  O   UNL     1      -0.235  -4.078   2.424  0.00  0.00    -0.278 OA
ATOM     18  N   UNL     1       1.356  -5.540   2.926  0.00  0.00    -0.314 N 
ATOM     19  H   UNL     1       2.249  -5.879   2.755  0.00  0.00    +0.149 HD
BRANCH  18  20
ATOM     20  C   UNL     1       0.525  -6.156   3.963  0.00  0.00    +0.073 C 
ATOM     21  C   UNL     1       0.632  -5.317   5.253  0.00  0.00    +0.022 C 
ATOM     22  C   UNL     1      -0.561  -5.620   6.120  0.00  0.00    +0.002 C 
ATOM     23  C   UNL     1      -0.272  -6.724   7.155  0.00  0.00    +0.000 C 
ATOM     24  C   UNL     1       0.547  -7.891   6.571  0.00  0.00    +0.000 C 
ATOM     25  C   UNL     1       0.091  -8.280   5.191  0.00  0.00    +0.002 C 
ATOM     26  C   UNL     1       0.959  -7.532   4.159  0.00  0.00    +0.022 C 
ENDBRANCH  18  20
ENDBRANCH   4  16
BRANCH   5  27
ATOM     27  C   UNL     1      -0.360  -4.362   0.026  0.00  0.00    -0.034 C 
BRANCH  27  32
ATOM     28  C   UNL     1      -2.990  -4.236  -4.990  0.00  0.00    +0.051 C 
ATOM     29  C   UNL     1      -2.212  -4.510  -3.729  0.00  0.00    -0.013 A 
ATOM     30  C   UNL     1      -1.504  -5.614  -3.385  0.00  0.00    +0.011 A 
ATOM     31  C   UNL     1      -0.862  -5.644  -2.162  0.00  0.00    +0.009 A 
ATOM     32  C   UNL     1      -0.959  -4.570  -1.341  0.00  0.00    -0.026 A 
ATOM     33  S   UNL     1      -1.988  -3.468  -2.297  0.00  0.00    -0.100 S 
ENDBRANCH  27  32
ENDBRANCH   5  27
TORSDOF 7
