REMARK  Name = ZINC12040935
REMARK  12 active torsions:
REMARK  status: ('A' for Active; 'I' for Inactive)
REMARK    1  A    between atoms: C_1  and  C_2
REMARK    2  A    between atoms: C_2  and  O_3
REMARK    3  A    between atoms: O_3  and  C_4
REMARK    4  A    between atoms: C_9  and  C_10
REMARK    5  A    between atoms: C_10  and  N_66
REMARK    6  A    between atoms: C_16  and  C_20
REMARK    7  A    between atoms: C_20  and  C_22
REMARK    8  A    between atoms: C_20  and  N_26
REMARK    9  A    between atoms: C_22  and  C_23
REMARK   10  A    between atoms: C_23  and  C_24
REMARK   11  A    between atoms: C_23  and  C_25
REMARK   12  A    between atoms: C_27  and  C_29
REMARK                            x       y       z     vdW  Elec       q    Type
REMARK                         _______ _______ _______ _____ _____    ______ ____
ROOT
ATOM      1  C   UNL     1      -2.998   0.794   6.767  0.00  0.00    -0.071 C 
ATOM      2  C   UNL     1      -4.134   1.489   6.011  0.00  0.00    +0.058 C 
ATOM      3  C   UNL     1      -3.671   1.792   4.609  0.00  0.00    +0.132 A 
ATOM      4  N   UNL     1      -3.815   2.902   3.946  0.00  0.00    -0.134 NA
ATOM      5  N   UNL     1      -3.311   2.769   2.769  0.00  0.00    -0.132 NA
ATOM      6  C   UNL     1      -2.825   1.562   2.631  0.00  0.00    +0.154 A 
ATOM      7  N   UNL     1      -3.027   0.917   3.799  0.00  0.00    -0.315 N 
ATOM      8  C   UNL     1      -2.626  -0.446   4.150  0.00  0.00    +0.106 C 
ATOM      9  C   UNL     1      -3.579  -0.991   5.218  0.00  0.00    -0.056 C 
ATOM     10  N   UNL     1      -3.095  -0.670   6.581  0.00  0.00    +0.384 N 
ATOM     11  H   UNL     1      -3.763  -1.047   7.265  0.00  0.00    -0.081 HD
ENDROOT
BRANCH  10  12
ATOM     12  C   UNL     1      -1.779  -1.293   6.806  0.00  0.00    -0.039 C 
BRANCH  12  18
ATOM     13  C   UNL     1      -2.001  -2.023   9.195  0.00  0.00    +0.122 A 
ATOM     14  C   UNL     1      -1.675  -1.905  10.538  0.00  0.00    +0.046 A 
ATOM     15  C   UNL     1      -0.791  -0.927  10.950  0.00  0.00    +0.004 A 
ATOM     16  C   UNL     1      -0.227  -0.069  10.023  0.00  0.00    +0.000 A 
ATOM     17  C   UNL     1      -0.547  -0.188   8.684  0.00  0.00    +0.005 A 
ATOM     18  C   UNL     1      -1.430  -1.165   8.267  0.00  0.00    -0.022 A 
BRANCH  13  19
ATOM     19  O   UNL     1      -2.875  -2.981   8.788  0.00  0.00    -0.492 OA
BRANCH  19  21
ATOM     20  C   UNL     1      -4.378  -4.838   9.155  0.00  0.00    +0.048 C 
ATOM     21  C   UNL     1      -3.424  -3.830   9.799  0.00  0.00    +0.225 C 
ENDBRANCH  19  21
ENDBRANCH  13  19
ENDBRANCH  12  18
ENDBRANCH  10  12
BRANCH   6  22
ATOM     22  C   UNL     1      -2.161   1.000   1.401  0.00  0.00    +0.142 C 
BRANCH  22  23
ATOM     23  N   UNL     1      -2.948   1.352   0.216  0.00  0.00    -0.299 N 
ATOM     24  C   UNL     1      -2.821   0.631  -0.915  0.00  0.00    +0.280 C 
ATOM     25  O   UNL     1      -2.121  -0.364  -0.928  0.00  0.00    -0.267 OA
ATOM     26  H   UNL     1      -3.560   2.104   0.247  0.00  0.00    +0.150 HD
BRANCH  24  27
ATOM     27  C   UNL     1      -3.525   1.047  -2.133  0.00  0.00    +0.189 A 
ATOM     28  C   UNL     1      -3.484   0.412  -3.340  0.00  0.00    +0.054 A 
ATOM     29  C   UNL     1      -4.300   1.149  -4.212  0.00  0.00    +0.042 A 
ATOM     30  C   UNL     1      -4.798   2.189  -3.507  0.00  0.00    +0.196 A 
ATOM     31  O   UNL     1      -4.332   2.122  -2.253  0.00  0.00    -0.458 OA
ENDBRANCH  24  27
ENDBRANCH  22  23
BRANCH  22  32
ATOM     32  C   UNL     1      -0.753   1.585   1.270  0.00  0.00    +0.033 C 
BRANCH  32  33
ATOM     33  C   UNL     1       0.114   1.092   2.430  0.00  0.00    -0.015 C 
ATOM     34  C   UNL     1       1.476   1.787   2.380  0.00  0.00    +0.007 C 
ATOM     35  C   UNL     1       0.309  -0.421   2.314  0.00  0.00    +0.007 C 
ENDBRANCH  32  33
ENDBRANCH  22  32
ENDBRANCH   6  22
TORSDOF 9
