REMARK  Name = ZINC28313950
REMARK  11 active torsions:
REMARK  status: ('A' for Active; 'I' for Inactive)
REMARK    1  A    between atoms: C_1  and  C_2
REMARK    2  A    between atoms: C_5  and  N_9
REMARK    3  A    between atoms: C_6  and  C_8
REMARK    4  A    between atoms: N_11  and  C_32
REMARK    5  A    between atoms: C_14  and  C_17
REMARK    6  A    between atoms: C_17  and  C_18
REMARK    7  A    between atoms: N_20  and  C_21
REMARK    8  A    between atoms: C_24  and  O_30
REMARK    9  A    between atoms: C_26  and  N_27
REMARK   10  A    between atoms: O_30  and  C_31
REMARK   11  A    between atoms: C_32  and  C_33
REMARK                            x       y       z     vdW  Elec       q    Type
REMARK                         _______ _______ _______ _____ _____    ______ ____
ROOT
ATOM      1  N   UNL     1      -1.078   2.524  -0.095  0.00  0.00    -0.226 NA
ATOM      2  C   UNL     1      -0.068   1.690  -0.161  0.00  0.00    +0.164 C 
ATOM      3  N   UNL     1       1.276   1.985  -0.253  0.00  0.00    -0.246 N 
ATOM      4  C   UNL     1       2.204   1.045  -0.318  0.00  0.00    +0.235 C 
ATOM      5  O   UNL     1       3.385   1.310  -0.399  0.00  0.00    -0.274 OA
ATOM      6  C   UNL     1       1.698  -0.388  -0.286  0.00  0.00    +0.149 C 
ATOM      7  S   UNL     1      -0.111  -0.096  -0.162  0.00  0.00    -0.077 S 
ENDROOT
BRANCH   1  12
ATOM      8  C   UNL     1      -6.371   0.560  -0.133  0.00  0.00    +0.044 C 
ATOM      9  C   UNL     1      -4.958   1.084  -0.123  0.00  0.00    -0.050 A 
ATOM     10  C   UNL     1      -4.013   0.501   0.703  0.00  0.00    +0.005 A 
ATOM     11  C   UNL     1      -2.718   0.976   0.717  0.00  0.00    +0.028 A 
ATOM     12  C   UNL     1      -2.362   2.048  -0.104  0.00  0.00    +0.069 A 
ATOM     13  C   UNL     1      -3.322   2.635  -0.931  0.00  0.00    -0.025 A 
ATOM     14  C   UNL     1      -4.612   2.147  -0.939  0.00  0.00    +0.008 A 
ATOM     15  C   UNL     1      -2.948   3.796  -1.816  0.00  0.00    +0.046 C 
ENDBRANCH   1  12
BRANCH   6  16
ATOM     16  C   UNL     1       2.053  -1.129  -1.577  0.00  0.00    +0.120 C 
BRANCH  16  17
ATOM     17  C   UNL     1       1.479  -2.522  -1.530  0.00  0.00    +0.219 C 
ATOM     18  O   UNL     1       0.849  -2.886  -0.560  0.00  0.00    -0.275 OA
ATOM     19  N   UNL     1       1.667  -3.363  -2.566  0.00  0.00    -0.284 N 
ATOM     20  H   UNL     1       2.317  -3.069  -3.403  0.00  0.00    +0.155 HD
BRANCH  19  21
ATOM     21  C   UNL     1       1.033  -4.613  -2.577  0.00  0.00    +0.064 A 
ATOM     22  C   UNL     1      -0.238  -4.752  -2.035  0.00  0.00    +0.029 A 
ATOM     23  C   UNL     1      -0.864  -5.983  -2.050  0.00  0.00    +0.047 A 
ATOM     24  C   UNL     1      -0.219  -7.082  -2.598  0.00  0.00    +0.122 A 
ATOM     25  C   UNL     1       1.052  -6.945  -3.136  0.00  0.00    +0.080 A 
ATOM     26  C   UNL     1       1.677  -5.714  -3.126  0.00  0.00    +0.151 A 
BRANCH  26  27
ATOM     27  N   UNL     1       3.034  -5.567  -3.699  0.00  0.00    +0.058 N 
ATOM     28  O   UNL     1       3.635  -6.548  -4.100  0.00  0.00    -0.126 OA
ATOM     29  O   UNL     1       3.549  -4.466  -3.771  0.00  0.00    -0.126 OA
ENDBRANCH  26  27
BRANCH  24  30
ATOM     30  O   UNL     1      -0.834  -8.295  -2.609  0.00  0.00    -0.495 OA
ATOM     31  C   UNL     1      -2.142  -8.364  -2.038  0.00  0.00    +0.277 C 
ENDBRANCH  24  30
ENDBRANCH  19  21
ENDBRANCH  16  17
ENDBRANCH   6  16
BRANCH   3  32
ATOM     32  C   UNL     1       1.691   3.390  -0.278  0.00  0.00    +0.142 C 
BRANCH  32  33
ATOM     33  C   UNL     1       1.930   3.868   1.131  0.00  0.00    -0.015 C 
ATOM     34  C   UNL     1       3.082   4.402   1.454  0.00  0.00    +0.005 C 
ENDBRANCH  32  33
ENDBRANCH   3  32
TORSDOF 8
