REMARK  Name = ZINC20992201
REMARK  10 active torsions:
REMARK  status: ('A' for Active; 'I' for Inactive)
REMARK    1  A    between atoms: C_1  and  N_2
REMARK    2  A    between atoms: N_2  and  C_3
REMARK    3  A    between atoms: N_2  and  C_4
REMARK    4  A    between atoms: C_4  and  C_5
REMARK    5  A    between atoms: C_5  and  N_6
REMARK    6  A    between atoms: C_17  and  N_21
REMARK    7  A    between atoms: N_21  and  C_22
REMARK    8  A    between atoms: C_22  and  C_23
REMARK    9  A    between atoms: C_27  and  O_29
REMARK   10  A    between atoms: O_29  and  C_30
REMARK                            x       y       z     vdW  Elec       q    Type
REMARK                         _______ _______ _______ _____ _____    ______ ____
ROOT
ATOM      1  N   UNL     1       2.542  13.868  -3.185  0.00  0.00    -0.301 N 
ATOM      2  C   UNL     1       1.340  14.291  -2.726  0.00  0.00    +0.203 A 
ATOM      3  N   UNL     1       0.470  13.490  -2.151  0.00  0.00    -0.230 NA
ATOM      4  C   UNL     1       0.807  12.210  -2.026  0.00  0.00    +0.116 A 
ATOM      5  C   UNL     1       2.035  11.673  -2.472  0.00  0.00    +0.076 A 
ATOM      6  C   UNL     1       2.957  12.582  -3.094  0.00  0.00    +0.262 A 
ATOM      7  O   UNL     1       4.042  12.219  -3.513  0.00  0.00    -0.267 OA
ATOM      8  C   UNL     1       2.231  10.252  -2.252  0.00  0.00    -0.023 A 
ATOM      9  C   UNL     1       1.221   9.587  -1.642  0.00  0.00    -0.003 A 
ATOM     10  S   UNL     1      -0.025  10.815  -1.338  0.00  0.00    -0.073 S 
ATOM     11  C   UNL     1       1.170   8.130  -1.300  0.00  0.00    +0.061 C 
ATOM     12  C   UNL     1       2.590   7.556  -1.408  0.00  0.00    +0.059 C 
ATOM     13  C   UNL     1       3.206   8.016  -2.732  0.00  0.00    +0.024 C 
ATOM     14  C   UNL     1       3.499   9.515  -2.674  0.00  0.00    +0.038 C 
ENDROOT
BRANCH  12  15
ATOM     15  N   UNL     1       2.531   6.088  -1.375  0.00  0.00    -0.309 NA
ATOM     16  H   UNL     1       1.613   5.747  -1.877  0.00  0.00    +0.123 HD
BRANCH  15  17
ATOM     17  C   UNL     1       2.524   5.592   0.007  0.00  0.00    +0.116 C 
BRANCH  17  18
ATOM     18  C   UNL     1       2.463   4.086   0.000  0.00  0.00    -0.030 A 
ATOM     19  C   UNL     1       3.633   3.348  -0.015  0.00  0.00    +0.005 A 
ATOM     20  C   UNL     1       3.580   1.966  -0.021  0.00  0.00    +0.004 A 
ATOM     21  C   UNL     1       2.359   1.320  -0.013  0.00  0.00    +0.046 A 
ATOM     22  C   UNL     1       1.185   2.058   0.002  0.00  0.00    +0.130 A 
ATOM     23  C   UNL     1       1.240   3.445   0.003  0.00  0.00    +0.050 A 
BRANCH  22  24
ATOM     24  O   UNL     1      -0.017   1.425   0.010  0.00  0.00    -0.406 OA
BRANCH  24  25
ATOM     25  C   UNL     1       0.002  -0.004   0.002  0.00  0.00    +0.575 C 
ATOM     26  F   UNL     1       0.679  -0.468   1.135  0.00  0.00    -0.133 F 
ATOM     27  F   UNL     1      -1.310  -0.488   0.012  0.00  0.00    -0.133 F 
ATOM     28  F   UNL     1       0.657  -0.455  -1.149  0.00  0.00    -0.133 F 
ENDBRANCH  24  25
ENDBRANCH  22  24
ENDBRANCH  17  18
ENDBRANCH  15  17
ENDBRANCH  12  15
BRANCH   1  29
ATOM     29  C   UNL     1       3.435  14.847  -3.810  0.00  0.00    +0.108 C 
BRANCH  29  30
ATOM     30  C   UNL     1       4.336  15.469  -2.741  0.00  0.00    -0.058 C 
BRANCH  30  32
ATOM     31  C   UNL     1       4.474  17.594  -3.895  0.00  0.00    -0.097 C 
ATOM     32  N   UNL     1       5.232  16.451  -3.368  0.00  0.00    +0.377 N 
ATOM     33  C   UNL     1       6.267  16.896  -2.425  0.00  0.00    -0.097 C 
ATOM     34  H   UNL     1       5.734  15.959  -4.214  0.00  0.00    -0.083 HD
ENDBRANCH  30  32
ENDBRANCH  29  30
ENDBRANCH   1  29
TORSDOF 8
