REMARK  Name = ZINC13015396
REMARK  12 active torsions:
REMARK  status: ('A' for Active; 'I' for Inactive)
REMARK    1  A    between atoms: C_1  and  C_2
REMARK    2  A    between atoms: C_2  and  C_3
REMARK    3  A    between atoms: C_3  and  C_5
REMARK    4  A    between atoms: C_3  and  N_67
REMARK    5  A    between atoms: C_8  and  S_17
REMARK    6  A    between atoms: N_9  and  C_10
REMARK    7  A    between atoms: C_10  and  C_11
REMARK    8  A    between atoms: S_17  and  C_18
REMARK    9  A    between atoms: C_18  and  C_19
REMARK   10  A    between atoms: C_24  and  C_33
REMARK   11  A    between atoms: C_34  and  N_67
REMARK   12  A    between atoms: C_35  and  N_67
REMARK                            x       y       z     vdW  Elec       q    Type
REMARK                         _______ _______ _______ _____ _____    ______ ____
ROOT
ATOM      1  C   UNL     1       2.117   4.983  -1.833  0.00  0.00    +0.121 A 
ATOM      2  N   UNL     1       2.859   4.626  -2.843  0.00  0.00    -0.135 NA
ATOM      3  N   UNL     1       3.261   3.415  -2.689  0.00  0.00    -0.123 NA
ATOM      4  C   UNL     1       2.797   2.931  -1.560  0.00  0.00    +0.192 A 
ATOM      5  N   UNL     1       2.048   3.915  -0.981  0.00  0.00    -0.303 N 
ENDROOT
BRANCH   1   6
ATOM      6  C   UNL     1       1.456   6.323  -1.639  0.00  0.00    +0.000 C 
BRANCH   6   9
ATOM      7  C   UNL     1      -0.071   7.888  -2.679  0.00  0.00    -0.096 C 
ATOM      8  C   UNL     1       1.834   7.051  -3.918  0.00  0.00    -0.096 C 
ATOM      9  N   UNL     1       0.808   6.721  -2.907  0.00  0.00    +0.383 N 
ATOM     10  H   UNL     1       0.240   5.939  -3.251  0.00  0.00    -0.082 HD
ENDBRANCH   6   9
BRANCH   6  12
ATOM     11  C   UNL     1       3.115   6.956   0.118  0.00  0.00    +0.002 C 
ATOM     12  C   UNL     1       2.508   7.355  -1.228  0.00  0.00    -0.011 C 
ENDBRANCH   6  12
ENDBRANCH   1   6
BRANCH   5  13
ATOM     13  C   UNL     1       1.325   3.843   0.291  0.00  0.00    +0.160 C 
BRANCH  13  14
ATOM     14  C   UNL     1      -0.077   3.350   0.045  0.00  0.00    -0.028 A 
ATOM     15  C   UNL     1      -0.349   1.995   0.080  0.00  0.00    +0.005 A 
ATOM     16  C   UNL     1      -1.636   1.542  -0.145  0.00  0.00    +0.000 A 
ATOM     17  C   UNL     1      -2.650   2.444  -0.410  0.00  0.00    +0.000 A 
ATOM     18  C   UNL     1      -2.378   3.799  -0.441  0.00  0.00    +0.000 A 
ATOM     19  C   UNL     1      -1.092   4.252  -0.215  0.00  0.00    +0.005 A 
ENDBRANCH  13  14
ENDBRANCH   5  13
BRANCH   4  20
ATOM     20  S   UNL     1       3.083   1.316  -0.916  0.00  0.00    -0.077 S 
BRANCH  20  21
ATOM     21  C   UNL     1       4.136   0.639  -2.223  0.00  0.00    +0.173 C 
BRANCH  21  22
ATOM     22  C   UNL     1       4.518  -0.778  -1.878  0.00  0.00    +0.230 C 
ATOM     23  O   UNL     1       4.117  -1.280  -0.849  0.00  0.00    -0.274 OA
ATOM     24  N   UNL     1       5.304  -1.486  -2.712  0.00  0.00    -0.270 N 
ATOM     25  C   UNL     1       5.692  -2.868  -2.389  0.00  0.00    +0.115 C 
ATOM     26  C   UNL     1       4.688  -3.857  -2.935  0.00  0.00    +0.033 C 
ATOM     27  C   UNL     1       4.633  -3.965  -4.451  0.00  0.00    +0.050 C 
ATOM     28  S   UNL     1       3.909  -2.456  -5.157  0.00  0.00    -0.120 S 
ATOM     29  C   UNL     1       5.276  -1.320  -5.137  0.00  0.00    +0.030 A 
ATOM     30  C   UNL     1       5.777  -0.923  -3.905  0.00  0.00    +0.050 A 
ATOM     31  C   UNL     1       6.773   0.045  -3.863  0.00  0.00    +0.024 A 
ATOM     32  C   UNL     1       7.273   0.567  -5.042  0.00  0.00    +0.002 A 
ATOM     33  C   UNL     1       6.795   0.134  -6.265  0.00  0.00    +0.001 A 
ATOM     34  C   UNL     1       5.789  -0.818  -6.317  0.00  0.00    +0.016 A 
ATOM     35  C   UNL     1       3.777  -5.171  -4.843  0.00  0.00    +0.019 C 
ENDBRANCH  21  22
ENDBRANCH  20  21
ENDBRANCH   4  20
TORSDOF 8
