REMARK  Name = ZINC28124611
REMARK  2 active torsions:
REMARK  status: ('A' for Active; 'I' for Inactive)
REMARK    1  A    between atoms: C_9  and  N_20
REMARK    2  A    between atoms: C_10  and  C_18
REMARK                            x       y       z     vdW  Elec       q    Type
REMARK                         _______ _______ _______ _____ _____    ______ ____
ROOT
ATOM      1  C   UNL     1      -1.219   1.741   0.017  0.00  0.00    +0.000 A 
ATOM      2  C   UNL     1      -1.252   3.123   0.030  0.00  0.00    +0.002 A 
ATOM      3  C   UNL     1      -0.064   3.829   0.030  0.00  0.00    +0.028 A 
ATOM      4  C   UNL     1       1.145   3.158   0.023  0.00  0.00    +0.099 A 
ATOM      5  C   UNL     1       1.189   1.781   0.000  0.00  0.00    -0.018 A 
ATOM      6  C   UNL     1      -0.013   1.076   0.008  0.00  0.00    +0.006 A 
ATOM      7  C   UNL     1       2.456   0.997  -0.064  0.00  0.00    +0.077 C 
ATOM      8  C   UNL     1       3.671   1.612   0.543  0.00  0.00    +0.023 A 
ATOM      9  C   UNL     1       4.665   0.748   1.032  0.00  0.00    +0.052 A 
ATOM     10  C   UNL     1       5.840   1.298   1.567  0.00  0.00    +0.112 A 
ATOM     11  C   UNL     1       5.981   2.696   1.590  0.00  0.00    +0.138 A 
ATOM     12  N   UNL     1       5.009   3.463   1.127  0.00  0.00    -0.212 NA
ATOM     13  C   UNL     1       3.888   2.967   0.625  0.00  0.00    +0.189 A 
ATOM     14  S   UNL     1       2.646   4.084   0.053  0.00  0.00    +0.043 S 
ATOM     15  O   UNL     1       2.964   4.396  -1.296  0.00  0.00    -0.163 OA
ATOM     16  O   UNL     1       2.495   5.080   1.056  0.00  0.00    -0.163 OA
ATOM     17  N   UNL     1       7.135   3.268   2.096  0.00  0.00    -0.342 N 
ATOM     18  H   UNL     1       7.244   4.363   2.113  0.00  0.00    +0.144 HD
ATOM     19  H   UNL     1       7.943   2.629   2.480  0.00  0.00    +0.144 HD
ENDROOT
BRANCH   9  20
ATOM     20  N   UNL     1       4.487  -0.626   0.987  0.00  0.00    -0.357 N 
ATOM     21  H   UNL     1       5.271  -1.295   1.372  0.00  0.00    +0.142 HD
ATOM     22  H   UNL     1       3.563  -1.048   0.565  0.00  0.00    +0.142 HD
ENDBRANCH   9  20
BRANCH  10  23
ATOM     23  C   UNL     1       6.875   0.451   2.079  0.00  0.00    +0.104 C 
ATOM     24  N   UNL     1       7.697  -0.220   2.486  0.00  0.00    -0.191 NA
ENDBRANCH  10  23
TORSDOF 2
