REMARK  Name = ZINC36064979
REMARK  12 active torsions:
REMARK  status: ('A' for Active; 'I' for Inactive)
REMARK    1  A    between atoms: C_1  and  C_2
REMARK    2  A    between atoms: C_3  and  C_32
REMARK    3  A    between atoms: C_4  and  C_23
REMARK    4  A    between atoms: C_7  and  C_12
REMARK    5  A    between atoms: C_13  and  N_15
REMARK    6  A    between atoms: N_15  and  C_16
REMARK    7  A    between atoms: C_16  and  C_17
REMARK    8  A    between atoms: C_26  and  N_29
REMARK    9  A    between atoms: C_32  and  O_34
REMARK   10  A    between atoms: O_34  and  C_35
REMARK   11  A    between atoms: C_35  and  C_36
REMARK   12  A    between atoms: C_35  and  C_37
REMARK                            x       y       z     vdW  Elec       q    Type
REMARK                         _______ _______ _______ _____ _____    ______ ____
ROOT
ATOM      1  C   UNL     1      -0.023   1.551   0.215  0.00  0.00    +0.066 C 
ATOM      2  C   UNL     1      -0.017   0.045   0.159  0.00  0.00    +0.053 C 
ATOM      3  C   UNL     1      -1.214  -0.645   0.144  0.00  0.00    +0.082 C 
ATOM      4  C   UNL     1      -1.155  -2.155   0.086  0.00  0.00    +0.150 C 
ATOM      5  N   UNL     1       0.194  -2.780   0.050  0.00  0.00    -0.267 N 
ATOM      6  C   UNL     1       0.485  -4.128  -0.005  0.00  0.00    +0.048 C 
ATOM      7  C   UNL     1       1.787  -4.488  -0.031  0.00  0.00    +0.072 C 
ATOM      8  S   UNL     1       2.608  -2.908   0.021  0.00  0.00    -0.060 S 
ATOM      9  C   UNL     1       1.254  -1.917   0.072  0.00  0.00    +0.166 C 
ATOM     10  N   UNL     1       1.134  -0.606   0.118  0.00  0.00    -0.230 NA
ENDROOT
BRANCH   4  11
ATOM     11  C   UNL     1      -1.905  -2.602  -1.142  0.00  0.00    -0.022 A 
ATOM     12  C   UNL     1      -1.344  -2.435  -2.394  0.00  0.00    +0.008 A 
ATOM     13  C   UNL     1      -2.032  -2.845  -3.521  0.00  0.00    +0.033 A 
ATOM     14  C   UNL     1      -3.282  -3.422  -3.395  0.00  0.00    +0.126 A 
ATOM     15  C   UNL     1      -3.843  -3.590  -2.143  0.00  0.00    +0.033 A 
ATOM     16  C   UNL     1      -3.153  -3.184  -1.016  0.00  0.00    +0.008 A 
BRANCH  14  17
ATOM     17  N   UNL     1      -4.019  -3.860  -4.601  0.00  0.00    +0.056 N 
ATOM     18  O   UNL     1      -3.529  -3.713  -5.697  0.00  0.00    -0.126 OA
ATOM     19  O   UNL     1      -5.112  -4.365  -4.492  0.00  0.00    -0.126 OA
ENDBRANCH  14  17
ENDBRANCH   4  11
BRANCH   6  20
ATOM     20  C   UNL     1      -0.584  -5.137  -0.032  0.00  0.00    +0.091 C 
ATOM     21  C   UNL     1      -0.279  -6.445   0.062  0.00  0.00    +0.239 C 
ATOM     22  O   UNL     1       0.997  -6.826   0.315  0.00  0.00    -0.271 OA
BRANCH  21  23
ATOM     23  N   UNL     1      -1.267  -7.401  -0.101  0.00  0.00    -0.308 N 
ATOM     24  H   UNL     1      -2.192  -7.128  -0.209  0.00  0.00    +0.149 HD
BRANCH  23  25
ATOM     25  C   UNL     1      -0.917  -8.823  -0.110  0.00  0.00    +0.141 C 
BRANCH  25  26
ATOM     26  C   UNL     1      -2.144  -9.640  -0.422  0.00  0.00    -0.012 A 
ATOM     27  C   UNL     1      -2.970 -10.086   0.599  0.00  0.00    +0.008 A 
ATOM     28  C   UNL     1      -4.087 -10.835   0.265  0.00  0.00    +0.020 A 
ATOM     29  C   UNL     1      -4.340 -11.111  -1.066  0.00  0.00    +0.111 A 
ATOM     30  N   UNL     1      -3.532 -10.671  -2.011  0.00  0.00    -0.263 NA
ATOM     31  C   UNL     1      -2.464  -9.951  -1.730  0.00  0.00    +0.115 A 
ENDBRANCH  25  26
ENDBRANCH  23  25
ENDBRANCH  21  23
ENDBRANCH   6  20
BRANCH   3  32
ATOM     32  C   UNL     1      -2.439   0.030   0.182  0.00  0.00    +0.339 C 
ATOM     33  O   UNL     1      -2.463   1.248   0.229  0.00  0.00    -0.245 OA
BRANCH  32  34
ATOM     34  O   UNL     1      -3.596  -0.668   0.167  0.00  0.00    -0.459 OA
BRANCH  34  35
ATOM     35  C   UNL     1      -4.810   0.086   0.207  0.00  0.00    +0.171 C 
ATOM     36  C   UNL     1      -5.257   0.410  -1.220  0.00  0.00    +0.052 C 
ATOM     37  C   UNL     1      -5.896  -0.733   0.908  0.00  0.00    +0.052 C 
ENDBRANCH  34  35
ENDBRANCH  32  34
ENDBRANCH   3  32
TORSDOF 9
