REMARK  Name = ZINC36597011
REMARK  9 active torsions:
REMARK  status: ('A' for Active; 'I' for Inactive)
REMARK    1  A    between atoms: C_1  and  C_2
REMARK    2  A    between atoms: C_2  and  C_4
REMARK    3  A    between atoms: C_2  and  N_17
REMARK    4  A    between atoms: N_6  and  C_7
REMARK    5  A    between atoms: C_18  and  C_20
REMARK    6  A    between atoms: C_32  and  C_34
REMARK    7  A    between atoms: C_32  and  C_35
REMARK    8  A    between atoms: C_37  and  C_39
REMARK    9  A    between atoms: C_37  and  C_40
REMARK                            x       y       z     vdW  Elec       q    Type
REMARK                         _______ _______ _______ _____ _____    ______ ____
ROOT
ATOM      1  N   UNL     1       1.006  -0.192   1.083  0.00  0.00    -0.302 N 
ATOM      2  C   UNL     1       0.370  -0.501   2.231  0.00  0.00    +0.245 C 
ATOM      3  O   UNL     1      -0.841  -0.455   2.284  0.00  0.00    -0.273 OA
ATOM      4  H   UNL     1       1.975  -0.229   1.041  0.00  0.00    +0.150 HD
ENDROOT
BRANCH   2   5
ATOM      5  C   UNL     1       1.163  -0.903   3.447  0.00  0.00    +0.238 C 
ATOM      6  C   UNL     1       2.071   0.232   3.859  0.00  0.00    +0.191 C 
ATOM      7  C   UNL     1       1.201   1.480   4.211  0.00  0.00    +0.187 C 
ATOM      8  C   UNL     1       0.416   1.069   5.425  0.00  0.00    +0.209 C 
ATOM      9  C   UNL     1      -0.510  -0.080   4.920  0.00  0.00    +0.286 C 
ATOM     10  O   UNL     1       0.260  -1.194   4.543  0.00  0.00    -0.333 OA
ATOM     11  O   UNL     1      -1.454  -0.193   5.970  0.00  0.00    -0.318 OA
ATOM     12  C   UNL     1      -1.538   1.123   6.563  0.00  0.00    +0.168 C 
ATOM     13  O   UNL     1      -0.557   1.992   5.922  0.00  0.00    -0.338 OA
ATOM     14  C   UNL     1      -1.224   1.036   8.058  0.00  0.00    +0.074 C 
ATOM     15  C   UNL     1      -2.946   1.688   6.366  0.00  0.00    +0.074 C 
ATOM     16  O   UNL     1       2.195   2.487   4.331  0.00  0.00    -0.341 OA
ATOM     17  C   UNL     1       3.262   2.094   3.437  0.00  0.00    +0.166 C 
ATOM     18  O   UNL     1       2.932   0.801   2.878  0.00  0.00    -0.340 OA
ATOM     19  C   UNL     1       4.580   2.014   4.210  0.00  0.00    +0.074 C 
ATOM     20  C   UNL     1       3.392   3.119   2.308  0.00  0.00    +0.074 C 
ENDBRANCH   2   5
BRANCH   1  22
ATOM     21  C   UNL     1      -0.070   1.696  -0.038  0.00  0.00    +0.038 C 
ATOM     22  C   UNL     1       0.235   0.199  -0.100  0.00  0.00    +0.156 C 
BRANCH  22  23
ATOM     23  C   UNL     1       1.035  -0.100  -1.342  0.00  0.00    +0.237 C 
ATOM     24  O   UNL     1       2.140  -0.591  -1.248  0.00  0.00    -0.273 OA
ATOM     25  N   UNL     1       0.522   0.178  -2.557  0.00  0.00    -0.283 N 
ATOM     26  H   UNL     1      -0.391   0.495  -2.636  0.00  0.00    +0.155 HD
BRANCH  25  27
ATOM     27  C   UNL     1       1.305   0.011  -3.700  0.00  0.00    +0.041 A 
ATOM     28  C   UNL     1       2.680  -0.023  -3.603  0.00  0.00    +0.024 A 
ATOM     29  C   UNL     1       3.470  -0.189  -4.736  0.00  0.00    +0.002 A 
ATOM     30  C   UNL     1       2.909  -0.324  -5.970  0.00  0.00    +0.008 A 
ATOM     31  C   UNL     1       1.512  -0.295  -6.112  0.00  0.00    -0.016 A 
ATOM     32  C   UNL     1       0.697  -0.132  -4.965  0.00  0.00    +0.003 A 
ATOM     33  C   UNL     1      -0.699  -0.108  -5.109  0.00  0.00    +0.010 A 
ATOM     34  C   UNL     1      -1.252  -0.248  -6.345  0.00  0.00    +0.001 A 
ATOM     35  C   UNL     1      -0.452  -0.415  -7.474  0.00  0.00    +0.001 A 
ATOM     36  C   UNL     1       0.905  -0.431  -7.373  0.00  0.00    +0.008 A 
ENDBRANCH  25  27
ENDBRANCH  22  23
ENDBRANCH   1  22
TORSDOF 4
