REMARK  Name = ZINC39673199
REMARK  11 active torsions:
REMARK  status: ('A' for Active; 'I' for Inactive)
REMARK    1  A    between atoms: C_1  and  C_2
REMARK    2  A    between atoms: C_5  and  C_9
REMARK    3  A    between atoms: C_7  and  C_8
REMARK    4  A    between atoms: C_9  and  N_10
REMARK    5  A    between atoms: C_11  and  C_13
REMARK    6  A    between atoms: C_24  and  C_26
REMARK    7  A    between atoms: C_26  and  C_28
REMARK    8  A    between atoms: C_26  and  O_31
REMARK    9  A    between atoms: C_28  and  C_29
REMARK   10  A    between atoms: C_28  and  C_30
REMARK   11  A    between atoms: O_31  and  C_32
REMARK                            x       y       z     vdW  Elec       q    Type
REMARK                         _______ _______ _______ _____ _____    ______ ____
ROOT
ATOM      1  C   UNL     1       3.194  -7.337  -0.203  0.00  0.00    +0.100 C 
ATOM      2  C   UNL     1       3.856  -6.543   0.946  0.00  0.00    +0.121 C 
ATOM      3  N   UNL     1       3.842  -7.474   2.100  0.00  0.00    -0.297 N 
ATOM      4  C   UNL     1       4.159  -8.797   1.510  0.00  0.00    +0.115 C 
ATOM      5  C   UNL     1       3.399  -8.815   0.169  0.00  0.00    -0.004 C 
ATOM      6  C   UNL     1       4.230  -9.519  -0.900  0.00  0.00    -0.010 C 
ATOM      7  C   UNL     1       4.370 -11.000  -0.538  0.00  0.00    -0.082 C 
ATOM      8  N   UNL     1       3.038 -11.611  -0.444  0.00  0.00    +0.379 N 
ATOM      9  C   UNL     1       2.279 -10.991   0.648  0.00  0.00    -0.082 C 
ATOM     10  C   UNL     1       2.050  -9.509   0.337  0.00  0.00    -0.010 C 
ATOM     11  C   UNL     1       3.597  -7.183   3.393  0.00  0.00    +0.257 C 
ATOM     12  O   UNL     1       3.265  -6.061   3.709  0.00  0.00    -0.272 OA
ATOM     13  H   UNL     1       2.546 -11.475  -1.314  0.00  0.00    -0.086 HD
ATOM     14  H   UNL     1       3.135 -12.599  -0.266  0.00  0.00    -0.086 HD
ENDROOT
BRANCH   1  16
ATOM     15  N   UNL     1       1.084  -7.085  -1.469  0.00  0.00    -0.311 N 
ATOM     16  C   UNL     1       1.724  -7.015  -0.285  0.00  0.00    +0.218 C 
ATOM     17  O   UNL     1       1.117  -6.693   0.715  0.00  0.00    -0.275 OA
ATOM     18  H   UNL     1       1.570  -7.342  -2.268  0.00  0.00    +0.149 HD
BRANCH  15  19
ATOM     19  C   UNL     1      -0.345  -6.771  -1.549  0.00  0.00    +0.139 C 
BRANCH  19  24
ATOM     20  C   UNL     1      -2.147  -7.357  -7.008  0.00  0.00    +0.044 C 
ATOM     21  C   UNL     1      -1.677  -7.205  -5.584  0.00  0.00    -0.048 A 
ATOM     22  C   UNL     1      -1.724  -8.284  -4.721  0.00  0.00    +0.004 A 
ATOM     23  C   UNL     1      -1.292  -8.144  -3.416  0.00  0.00    +0.005 A 
ATOM     24  C   UNL     1      -0.814  -6.925  -2.973  0.00  0.00    -0.030 A 
ATOM     25  C   UNL     1      -0.766  -5.846  -3.836  0.00  0.00    +0.008 A 
ATOM     26  C   UNL     1      -1.193  -5.987  -5.143  0.00  0.00    -0.047 A 
ATOM     27  C   UNL     1      -1.136  -4.813  -6.085  0.00  0.00    +0.044 C 
ENDBRANCH  19  24
ENDBRANCH  15  19
ENDBRANCH   1  16
BRANCH  11  28
ATOM     28  C   UNL     1       3.737  -8.253   4.445  0.00  0.00    +0.261 C 
BRANCH  28  29
ATOM     29  C   UNL     1       5.202  -8.683   4.543  0.00  0.00    +0.033 C 
ATOM     30  C   UNL     1       6.049  -7.503   5.025  0.00  0.00    +0.011 C 
ATOM     31  C   UNL     1       5.328  -9.840   5.536  0.00  0.00    +0.011 C 
ENDBRANCH  28  29
BRANCH  28  32
ATOM     32  O   UNL     1       3.306  -7.739   5.707  0.00  0.00    -0.479 OA
BRANCH  32  33
ATOM     33  C   UNL     1       2.660  -8.600   6.536  0.00  0.00    +0.122 A 
ATOM     34  C   UNL     1       2.205  -8.165   7.772  0.00  0.00    +0.045 A 
ATOM     35  C   UNL     1       1.547  -9.043   8.612  0.00  0.00    +0.004 A 
ATOM     36  C   UNL     1       1.343 -10.353   8.223  0.00  0.00    +0.000 A 
ATOM     37  C   UNL     1       1.796 -10.789   6.991  0.00  0.00    +0.004 A 
ATOM     38  C   UNL     1       2.449  -9.914   6.144  0.00  0.00    +0.045 A 
ENDBRANCH  32  33
ENDBRANCH  28  32
ENDBRANCH  11  28
TORSDOF 7
