REMARK  Name = ZINC21953733
REMARK  6 active torsions:
REMARK  status: ('A' for Active; 'I' for Inactive)
REMARK    1  A    between atoms: C_1  and  C_2
REMARK    2  A    between atoms: C_5  and  C_7
REMARK    3  A    between atoms: N_17  and  C_18
REMARK    4  A    between atoms: C_18  and  C_19
REMARK    5  A    between atoms: C_19  and  O_20
REMARK    6  A    between atoms: O_20  and  C_21
REMARK                            x       y       z     vdW  Elec       q    Type
REMARK                         _______ _______ _______ _____ _____    ______ ____
ROOT
ATOM      1  C   UNL     1       0.002  -0.004   0.002  0.00  0.00    +0.136 A 
ATOM      2  N   UNL     1      -1.134  -0.652   0.183  0.00  0.00    -0.214 NA
ATOM      3  C   UNL     1      -1.160  -1.978   0.183  0.00  0.00    +0.154 A 
ATOM      4  C   UNL     1       0.045  -2.680  -0.014  0.00  0.00    +0.114 A 
ATOM      5  C   UNL     1       0.010  -4.146  -0.013  0.00  0.00    +0.266 A 
ATOM      6  O   UNL     1       1.024  -4.796  -0.179  0.00  0.00    -0.267 OA
ATOM      7  N   UNL     1      -1.183  -4.754   0.176  0.00  0.00    -0.274 N 
ATOM      8  H   UNL     1      -1.246  -5.852   0.182  0.00  0.00    +0.173 HD
ATOM      9  C   UNL     1      -2.305  -4.040   0.359  0.00  0.00    +0.331 A 
ATOM     10  O   UNL     1      -3.352  -4.635   0.526  0.00  0.00    -0.246 OA
ATOM     11  N   UNL     1      -2.322  -2.695   0.367  0.00  0.00    -0.276 N 
ATOM     12  C   UNL     1       1.228  -1.950  -0.202  0.00  0.00    +0.126 A 
ATOM     13  N   UNL     1       1.152  -0.618  -0.191  0.00  0.00    -0.224 NA
ATOM     14  S   UNL     1       2.768  -2.768  -0.453  0.00  0.00    -0.030 S 
ENDROOT
BRANCH   1  18
ATOM     15  C   UNL     1       0.912   1.358  -2.430  0.00  0.00    +0.008 C 
ATOM     16  C   UNL     1       0.455   2.223  -1.254  0.00  0.00    -0.003 C 
ATOM     17  C   UNL     1       1.329   2.228   0.001  0.00  0.00    +0.015 C 
ATOM     18  C   UNL     1      -0.018   1.503   0.010  0.00  0.00    +0.060 C 
ENDBRANCH   1  18
BRANCH  11  19
ATOM     19  C   UNL     1      -3.587  -1.986   0.574  0.00  0.00    +0.156 C 
BRANCH  19  20
ATOM     20  C   UNL     1      -4.257  -1.734  -0.778  0.00  0.00    +0.181 C 
BRANCH  20  21
ATOM     21  O   UNL     1      -4.616  -2.983  -1.373  0.00  0.00    -0.381 OA
ATOM     22  C   UNL     1      -5.253  -2.859  -2.646  0.00  0.00    +0.194 C 
ENDBRANCH  20  21
ENDBRANCH  19  20
ENDBRANCH  11  19
TORSDOF 4
