REMARK  Name = ZINC38964430
REMARK  7 active torsions:
REMARK  status: ('A' for Active; 'I' for Inactive)
REMARK    1  A    between atoms: C_1  and  C_2
REMARK    2  A    between atoms: C_5  and  N_9
REMARK    3  A    between atoms: C_6  and  C_8
REMARK    4  A    between atoms: N_9  and  C_10
REMARK    5  A    between atoms: C_10  and  C_11
REMARK    6  A    between atoms: C_16  and  C_23
REMARK    7  A    between atoms: C_24  and  C_26
REMARK                            x       y       z     vdW  Elec       q    Type
REMARK                         _______ _______ _______ _____ _____    ______ ____
ROOT
ATOM      1  N   UNL     1      -0.091  -4.437  -0.680  0.00  0.00    -0.266 N 
ATOM      2  C   UNL     1      -1.023  -5.399  -0.531  0.00  0.00    +0.252 C 
ATOM      3  O   UNL     1      -0.686  -6.564  -0.439  0.00  0.00    -0.270 OA
ENDROOT
BRANCH   1   8
ATOM      4  C   UNL     1      -1.675   0.949  -1.490  0.00  0.00    +0.044 C 
ATOM      5  C   UNL     1      -1.255  -0.482  -1.275  0.00  0.00    -0.050 A 
ATOM      6  C   UNL     1      -1.542  -1.114  -0.079  0.00  0.00    +0.005 A 
ATOM      7  C   UNL     1      -1.158  -2.425   0.121  0.00  0.00    +0.024 A 
ATOM      8  C   UNL     1      -0.482  -3.110  -0.880  0.00  0.00    +0.040 A 
ATOM      9  C   UNL     1      -0.195  -2.473  -2.080  0.00  0.00    -0.029 A 
ATOM     10  C   UNL     1      -0.587  -1.163  -2.276  0.00  0.00    +0.008 A 
ATOM     11  C   UNL     1       0.539  -3.212  -3.170  0.00  0.00    +0.045 C 
ENDBRANCH   1   8
BRANCH   2  12
ATOM     12  C   UNL     1      -2.455  -5.038  -0.479  0.00  0.00    +0.051 A 
ATOM     13  C   UNL     1      -3.004  -4.205  -1.456  0.00  0.00    +0.014 A 
ATOM     14  C   UNL     1      -4.342  -3.872  -1.401  0.00  0.00    +0.001 A 
ATOM     15  C   UNL     1      -5.140  -4.362  -0.382  0.00  0.00    +0.001 A 
ATOM     16  C   UNL     1      -4.603  -5.188   0.589  0.00  0.00    +0.016 A 
ATOM     17  C   UNL     1      -3.267  -5.534   0.544  0.00  0.00    +0.030 A 
ATOM     18 BR   UNL     1      -2.537  -6.670   1.867  0.00  0.00    -0.050 Br
ENDBRANCH   2  12
BRANCH   1  19
ATOM     19  C   UNL     1       1.332  -4.783  -0.634  0.00  0.00    +0.131 C 
BRANCH  19  20
ATOM     20  C   UNL     1       1.787  -4.873   0.824  0.00  0.00    +0.116 C 
ATOM     21  C   UNL     1       3.071  -5.678   0.862  0.00  0.00    -0.003 C 
ATOM     22  C   UNL     1       4.171  -5.077   1.398  0.00  0.00    -0.007 A 
ATOM     23  C   UNL     1       5.450  -5.783   1.474  0.00  0.00    +0.012 A 
ATOM     24  C   UNL     1       6.519  -5.144   2.016  0.00  0.00    -0.050 A 
ATOM     25  C   UNL     1       6.418  -3.839   2.498  0.00  0.00    +0.005 A 
ATOM     26  C   UNL     1       5.259  -3.130   2.457  0.00  0.00    +0.024 A 
ATOM     27  C   UNL     1       4.093  -3.699   1.914  0.00  0.00    +0.040 A 
ATOM     28  N   UNL     1       2.962  -2.994   1.878  0.00  0.00    -0.284 N 
ATOM     29  C   UNL     1       1.832  -3.469   1.384  0.00  0.00    +0.226 C 
ATOM     30  O   UNL     1       0.831  -2.777   1.378  0.00  0.00    -0.275 OA
ATOM     31  C   UNL     1       7.842  -5.861   2.100  0.00  0.00    +0.044 C 
ATOM     32  H   UNL     1       2.969  -2.091   2.232  0.00  0.00    +0.155 HD
ENDBRANCH  19  20
ENDBRANCH   1  19
TORSDOF 4
