REMARK  Name = ZINC17740774
REMARK  11 active torsions:
REMARK  status: ('A' for Active; 'I' for Inactive)
REMARK    1  A    between atoms: C_1  and  C_2
REMARK    2  A    between atoms: C_7  and  N_8
REMARK    3  A    between atoms: C_9  and  C_11
REMARK    4  A    between atoms: C_11  and  N_12
REMARK    5  A    between atoms: N_12  and  C_13
REMARK    6  A    between atoms: N_12  and  C_14
REMARK    7  A    between atoms: C_14  and  C_15
REMARK    8  A    between atoms: C_15  and  C_17
REMARK    9  A    between atoms: C_15  and  O_29
REMARK   10  A    between atoms: C_17  and  O_18
REMARK   11  A    between atoms: O_18  and  C_19
REMARK                            x       y       z     vdW  Elec       q    Type
REMARK                         _______ _______ _______ _____ _____    ______ ____
ROOT
ATOM      1  N   UNL     1       0.302  -0.641   5.854  0.00  0.00    +0.385 N 
ATOM      2  C   UNL     1       0.172   0.228   4.677  0.00  0.00    -0.095 C 
ATOM      3  H   UNL     1      -0.486  -1.270   5.896  0.00  0.00    -0.081 HD
ENDROOT
BRANCH   1   4
ATOM      4  C   UNL     1       1.544  -1.418   5.756  0.00  0.00    +0.019 C 
BRANCH   4   6
ATOM      5  N   UNL     1       2.493  -3.170   4.289  0.00  0.00    -0.287 N 
ATOM      6  C   UNL     1       1.460  -2.353   4.577  0.00  0.00    +0.201 C 
ATOM      7  O   UNL     1       0.463  -2.370   3.887  0.00  0.00    -0.278 OA
ATOM      8  H   UNL     1       3.259  -3.210   4.883  0.00  0.00    +0.155 HD
BRANCH   5  15
ATOM      9  C   UNL     1       4.944  -3.673   2.935  0.00  0.00    +0.046 C 
ATOM     10  C   UNL     1       3.633  -4.230   2.443  0.00  0.00    -0.028 A 
ATOM     11  C   UNL     1       3.598  -5.015   1.307  0.00  0.00    +0.020 A 
ATOM     12  C   UNL     1       2.395  -5.526   0.854  0.00  0.00    +0.018 A 
ATOM     13  C   UNL     1       1.223  -5.253   1.538  0.00  0.00    +0.017 A 
ATOM     14  C   UNL     1       1.252  -4.469   2.675  0.00  0.00    +0.024 A 
ATOM     15  C   UNL     1       2.460  -3.959   3.134  0.00  0.00    +0.036 A 
ATOM     16 BR   UNL     1       2.352  -6.600  -0.702  0.00  0.00    -0.050 Br
ENDBRANCH   5  15
ENDBRANCH   4   6
ENDBRANCH   1   4
BRANCH   1  17
ATOM     17  C   UNL     1       0.334   0.183   7.070  0.00  0.00    -0.043 C 
BRANCH  17  18
ATOM     18  C   UNL     1       0.316  -0.725   8.302  0.00  0.00    +0.135 C 
BRANCH  18  19
ATOM     19  O   UNL     1      -0.870  -1.522   8.288  0.00  0.00    -0.390 OA
ATOM     20  H   UNL     1      -1.689  -1.009   8.299  0.00  0.00    +0.210 HD
ENDBRANCH  18  19
BRANCH  18  21
ATOM     21  C   UNL     1       0.338   0.134   9.568  0.00  0.00    +0.258 C 
BRANCH  21  22
ATOM     22  O   UNL     1       0.438  -0.712  10.716  0.00  0.00    -0.489 OA
BRANCH  22  23
ATOM     23  C   UNL     1       0.469  -0.104  11.929  0.00  0.00    +0.128 A 
ATOM     24  C   UNL     1       0.401   1.258  12.018  0.00  0.00    +0.046 A 
ATOM     25  C   UNL     1       0.432   1.897  13.255  0.00  0.00    +0.004 A 
ATOM     26  C   UNL     1       0.531   1.184  14.411  0.00  0.00    +0.009 A 
ATOM     27  C   UNL     1       0.603  -0.218  14.362  0.00  0.00    -0.014 A 
ATOM     28  C   UNL     1       0.567  -0.873  13.106  0.00  0.00    +0.024 A 
ATOM     29  C   UNL     1       0.635  -2.275  13.058  0.00  0.00    +0.012 A 
ATOM     30  C   UNL     1       0.729  -2.985  14.216  0.00  0.00    +0.001 A 
ATOM     31  C   UNL     1       0.759  -2.342  15.451  0.00  0.00    +0.001 A 
ATOM     32  C   UNL     1       0.707  -0.985  15.536  0.00  0.00    +0.008 A 
ENDBRANCH  22  23
ENDBRANCH  21  22
ENDBRANCH  18  21
ENDBRANCH  17  18
ENDBRANCH   1  17
TORSDOF 9
