REMARK  Name = ZINC02329055
REMARK  5 active torsions:
REMARK  status: ('A' for Active; 'I' for Inactive)
REMARK    1  A    between atoms: C_5  and  O_7
REMARK    2  A    between atoms: O_7  and  C_8
REMARK    3  A    between atoms: C_17  and  O_25
REMARK    4  A    between atoms: C_18  and  C_19
REMARK    5  A    between atoms: C_19  and  N_47
REMARK                            x       y       z     vdW  Elec       q    Type
REMARK                         _______ _______ _______ _____ _____    ______ ____
ROOT
ATOM      1  C   UNL     1       5.946   3.344   3.645  0.00  0.00    +0.210 A 
ATOM      2  C   UNL     1       4.666   2.940   3.766  0.00  0.00    +0.245 A 
ATOM      3  O   UNL     1       4.211   1.802   3.226  0.00  0.00    -0.459 OA
ATOM      4  C   UNL     1       5.003   0.971   2.518  0.00  0.00    +0.143 A 
ATOM      5  C   UNL     1       6.359   1.293   2.328  0.00  0.00    +0.068 A 
ATOM      6  C   UNL     1       6.870   2.542   2.917  0.00  0.00    +0.235 A 
ATOM      7  O   UNL     1       8.036   2.875   2.787  0.00  0.00    -0.283 OA
ATOM      8  C   UNL     1       7.188   0.441   1.596  0.00  0.00    +0.019 A 
ATOM      9  C   UNL     1       6.678  -0.708   1.064  0.00  0.00    +0.046 A 
ATOM     10  C   UNL     1       5.337  -1.038   1.253  0.00  0.00    +0.122 A 
ATOM     11  C   UNL     1       4.500  -0.201   1.971  0.00  0.00    +0.020 A 
ENDROOT
BRANCH  10  12
ATOM     12  O   UNL     1       4.846  -2.187   0.723  0.00  0.00    -0.506 OA
ATOM     13  H   UNL     1       4.497  -2.089  -0.174  0.00  0.00    +0.292 HD
ENDBRANCH  10  12
BRANCH   1  14
ATOM     14  O   UNL     1       6.353   4.511   4.215  0.00  0.00    -0.448 OA
BRANCH  14  19
ATOM     15  C   UNL     1       6.081   6.680   1.307  0.00  0.00    +0.004 A 
ATOM     16  C   UNL     1       6.603   7.856   1.812  0.00  0.00    +0.001 A 
ATOM     17  C   UNL     1       7.043   7.914   3.122  0.00  0.00    +0.019 A 
ATOM     18  C   UNL     1       6.960   6.795   3.930  0.00  0.00    +0.060 A 
ATOM     19  C   UNL     1       6.436   5.613   3.424  0.00  0.00    +0.143 A 
ATOM     20  C   UNL     1       6.001   5.557   2.107  0.00  0.00    +0.047 A 
ATOM     21 BR   UNL     1       7.560   6.874   5.721  0.00  0.00    -0.046 Br
ENDBRANCH  14  19
ENDBRANCH   1  14
BRANCH  11  22
ATOM     22  C   UNL     1       3.050  -0.564   2.163  0.00  0.00    -0.036 C 
BRANCH  22  28
ATOM     23  C   UNL     1       0.883  -0.526   1.083  0.00  0.00    -0.078 C 
ATOM     24  C   UNL     1       0.129  -0.033  -0.154  0.00  0.00    -0.019 C 
ATOM     25  C   UNL     1       0.109   1.498  -0.157  0.00  0.00    -0.004 C 
ATOM     26  C   UNL     1       1.548   2.020  -0.129  0.00  0.00    -0.019 C 
ATOM     27  C   UNL     1       2.261   1.468   1.108  0.00  0.00    -0.078 C 
ATOM     28  N   UNL     1       2.268  -0.009   1.038  0.00  0.00    +0.383 N 
ATOM     29  H   UNL     1       2.703  -0.299   0.155  0.00  0.00    -0.081 HD
ENDBRANCH  22  28
ENDBRANCH  11  22
TORSDOF 5
