REMARK  Name = ZINC36307981
REMARK  16 active torsions:
REMARK  status: ('A' for Active; 'I' for Inactive)
REMARK    1  A    between atoms: C_1  and  C_2
REMARK    2  A    between atoms: C_2  and  C_3
REMARK    3  A    between atoms: C_2  and  C_4
REMARK    4  A    between atoms: C_5  and  C_23
REMARK    5  A    between atoms: C_6  and  O_15
REMARK    6  A    between atoms: N_7  and  C_9
REMARK    7  A    between atoms: O_15  and  C_16
REMARK    8  A    between atoms: C_23  and  N_24
REMARK    9  A    between atoms: N_24  and  C_25
REMARK   10  A    between atoms: N_24  and  C_38
REMARK   11  A    between atoms: C_25  and  C_26
REMARK   12  A    between atoms: C_26  and  C_28
REMARK   13  A    between atoms: C_26  and  O_37
REMARK   14  A    between atoms: C_28  and  O_29
REMARK   15  A    between atoms: O_29  and  C_30
REMARK   16  A    between atoms: C_30  and  C_31
REMARK                            x       y       z     vdW  Elec       q    Type
REMARK                         _______ _______ _______ _____ _____    ______ ____
ROOT
ATOM      1  C   UNL     1      -0.843  -0.413   0.050  0.00  0.00    +0.071 A 
ATOM      2  C   UNL     1      -1.480  -1.438  -0.655  0.00  0.00    +0.021 A 
ATOM      3  C   UNL     1      -2.588  -1.801   0.046  0.00  0.00    +0.225 A 
ATOM      4  N   UNL     1      -2.639  -1.022   1.160  0.00  0.00    -0.200 N 
ATOM      5  N   UNL     1      -1.530  -0.167   1.136  0.00  0.00    -0.168 NA
ENDROOT
BRANCH   4   6
ATOM      6  C   UNL     1      -3.624  -1.071   2.156  0.00  0.00    +0.069 A 
ATOM      7  C   UNL     1      -4.962  -1.192   1.807  0.00  0.00    +0.028 A 
ATOM      8  C   UNL     1      -5.930  -1.239   2.791  0.00  0.00    +0.002 A 
ATOM      9  C   UNL     1      -5.567  -1.166   4.123  0.00  0.00    +0.000 A 
ATOM     10  C   UNL     1      -4.235  -1.045   4.475  0.00  0.00    +0.002 A 
ATOM     11  C   UNL     1      -3.262  -1.003   3.495  0.00  0.00    +0.028 A 
ENDBRANCH   4   6
BRANCH   1  13
ATOM     12  C   UNL     1       0.151   1.783  -0.533  0.00  0.00    +0.014 C 
ATOM     13  C   UNL     1       0.425   0.287  -0.367  0.00  0.00    +0.034 C 
ATOM     14  C   UNL     1       1.498   0.081   0.704  0.00  0.00    +0.014 C 
ENDBRANCH   1  13
BRANCH   3  15
ATOM     15  O   UNL     1      -3.478  -2.764  -0.302  0.00  0.00    -0.438 OA
BRANCH  15  16
ATOM     16  C   UNL     1      -4.508  -2.416  -1.118  0.00  0.00    +0.133 A 
ATOM     17  C   UNL     1      -4.572  -1.134  -1.648  0.00  0.00    +0.046 A 
ATOM     18  C   UNL     1      -5.618  -0.781  -2.477  0.00  0.00    +0.006 A 
ATOM     19  C   UNL     1      -6.603  -1.703  -2.781  0.00  0.00    +0.038 A 
ATOM     20  C   UNL     1      -6.542  -2.983  -2.255  0.00  0.00    +0.127 A 
ATOM     21  C   UNL     1      -5.492  -3.342  -1.428  0.00  0.00    +0.084 A 
ATOM     22  F   UNL     1      -7.506  -3.882  -2.553  0.00  0.00    -0.205 F 
ENDBRANCH  15  16
ENDBRANCH   3  15
BRANCH   2  23
ATOM     23  C   UNL     1      -1.022  -2.035  -1.961  0.00  0.00    -0.035 C 
BRANCH  23  24
ATOM     24  N   UNL     1      -0.127  -3.168  -1.694  0.00  0.00    +0.386 N 
ATOM     25  H   UNL     1       0.632  -2.865  -1.102  0.00  0.00    -0.081 HD
BRANCH  24  26
ATOM     26  C   UNL     1      -0.877  -4.237  -1.020  0.00  0.00    -0.068 C 
ATOM     27  C   UNL     1      -0.620  -4.447   0.473  0.00  0.00    -0.017 C 
ATOM     28  C   UNL     1      -0.091  -5.460  -0.544  0.00  0.00    -0.017 C 
ENDBRANCH  24  26
BRANCH  24  29
ATOM     29  C   UNL     1       0.414  -3.674  -2.962  0.00  0.00    -0.044 C 
BRANCH  29  30
ATOM     30  C   UNL     1       1.310  -2.608  -3.596  0.00  0.00    +0.124 C 
BRANCH  30  31
ATOM     31  O   UNL     1       2.392  -2.308  -2.712  0.00  0.00    -0.391 OA
ATOM     32  H   UNL     1       2.954  -3.068  -2.506  0.00  0.00    +0.210 HD
ENDBRANCH  30  31
BRANCH  30  33
ATOM     33  C   UNL     1       1.866  -3.132  -4.922  0.00  0.00    +0.189 C 
BRANCH  33  34
ATOM     34  O   UNL     1       2.607  -2.096  -5.570  0.00  0.00    -0.373 OA
BRANCH  34  35
ATOM     35  C   UNL     1       3.172  -2.483  -6.824  0.00  0.00    +0.195 C 
BRANCH  35  36
ATOM     36  C   UNL     1       3.928  -1.321  -7.415  0.00  0.00    -0.022 A 
ATOM     37  C   UNL     1       3.279  -0.422  -8.241  0.00  0.00    +0.006 A 
ATOM     38  C   UNL     1       3.972   0.644  -8.783  0.00  0.00    +0.000 A 
ATOM     39  C   UNL     1       5.314   0.812  -8.498  0.00  0.00    +0.000 A 
ATOM     40  C   UNL     1       5.963  -0.086  -7.671  0.00  0.00    +0.000 A 
ATOM     41  C   UNL     1       5.269  -1.150  -7.126  0.00  0.00    +0.006 A 
ENDBRANCH  35  36
ENDBRANCH  34  35
ENDBRANCH  33  34
ENDBRANCH  30  33
ENDBRANCH  29  30
ENDBRANCH  24  29
ENDBRANCH  23  24
ENDBRANCH   2  23
TORSDOF 14
