REMARK  Name = ZINC03083533
REMARK  8 active torsions:
REMARK  status: ('A' for Active; 'I' for Inactive)
REMARK    1  A    between atoms: C_1  and  C_2
REMARK    2  A    between atoms: C_2  and  C_4
REMARK    3  A    between atoms: C_2  and  O_26
REMARK    4  A    between atoms: N_6  and  N_7
REMARK    5  A    between atoms: C_8  and  C_9
REMARK    6  A    between atoms: N_11  and  C_20
REMARK    7  A    between atoms: C_13  and  C_14
REMARK    8  A    between atoms: O_26  and  C_27
REMARK                            x       y       z     vdW  Elec       q    Type
REMARK                         _______ _______ _______ _____ _____    ______ ____
ROOT
ATOM      1  N   UNL     1      -2.917   0.617   0.774  0.00  0.00    -0.188 NA
ATOM      2  C   UNL     1      -2.455   1.830   0.782  0.00  0.00    +0.142 C 
ENDROOT
BRANCH   2   3
ATOM      3  C   UNL     1      -1.029   2.077   0.502  0.00  0.00    +0.040 A 
ATOM      4  C   UNL     1      -0.378   3.277   0.573  0.00  0.00    +0.124 A 
ATOM      5  N   UNL     1       0.911   3.074   0.235  0.00  0.00    -0.239 N 
ATOM      6  N   UNL     1       1.109   1.720  -0.055  0.00  0.00    -0.166 NA
ATOM      7  C   UNL     1      -0.032   1.083   0.097  0.00  0.00    +0.102 A 
BRANCH   7   8
ATOM      8  C   UNL     1      -0.265  -0.367  -0.110  0.00  0.00    +0.003 A 
ATOM      9  C   UNL     1       0.641  -1.300   0.393  0.00  0.00    +0.010 A 
ATOM     10  C   UNL     1       0.415  -2.648   0.203  0.00  0.00    +0.001 A 
ATOM     11  C   UNL     1      -0.702  -3.074  -0.495  0.00  0.00    +0.000 A 
ATOM     12  C   UNL     1      -1.601  -2.152  -1.000  0.00  0.00    +0.001 A 
ATOM     13  C   UNL     1      -1.389  -0.802  -0.811  0.00  0.00    +0.010 A 
ENDBRANCH   7   8
BRANCH   5  14
ATOM     14  C   UNL     1       1.900   4.065   0.181  0.00  0.00    +0.065 A 
ATOM     15  C   UNL     1       1.582   5.382   0.486  0.00  0.00    +0.028 A 
ATOM     16  C   UNL     1       2.560   6.356   0.438  0.00  0.00    +0.002 A 
ATOM     17  C   UNL     1       3.852   6.023   0.075  0.00  0.00    +0.000 A 
ATOM     18  C   UNL     1       4.171   4.713  -0.234  0.00  0.00    +0.002 A 
ATOM     19  C   UNL     1       3.199   3.734  -0.182  0.00  0.00    +0.028 A 
ENDBRANCH   5  14
ENDBRANCH   2   3
BRANCH   1  22
ATOM     20  C   UNL     1      -4.753  -0.877   1.032  0.00  0.00    +0.273 C 
ATOM     21  O   UNL     1      -4.012  -1.807   0.793  0.00  0.00    -0.270 OA
ATOM     22  N   UNL     1      -4.272   0.382   1.040  0.00  0.00    -0.204 N 
ATOM     23  H   UNL     1      -4.865   1.126   1.231  0.00  0.00    +0.177 HD
BRANCH  20  25
ATOM     24  C   UNL     1      -7.064  -0.504   0.212  0.00  0.00    +0.062 C 
ATOM     25  C   UNL     1      -6.211  -1.129   1.318  0.00  0.00    +0.257 C 
BRANCH  25  26
ATOM     26  O   UNL     1      -6.450  -2.537   1.366  0.00  0.00    -0.480 OA
BRANCH  26  27
ATOM     27  C   UNL     1      -7.522  -2.957   2.087  0.00  0.00    +0.122 A 
ATOM     28  C   UNL     1      -8.387  -2.013   2.650  0.00  0.00    +0.046 A 
ATOM     29  C   UNL     1      -9.468  -2.402   3.377  0.00  0.00    +0.012 A 
ATOM     30  C   UNL     1      -9.724  -3.771   3.569  0.00  0.00    -0.018 A 
ATOM     31  C   UNL     1     -10.832  -4.208   4.314  0.00  0.00    +0.008 A 
ATOM     32  C   UNL     1     -11.050  -5.542   4.479  0.00  0.00    +0.001 A 
ATOM     33  C   UNL     1     -10.189  -6.484   3.919  0.00  0.00    +0.001 A 
ATOM     34  C   UNL     1      -9.106  -6.098   3.191  0.00  0.00    +0.008 A 
ATOM     35  C   UNL     1      -8.849  -4.730   2.999  0.00  0.00    -0.014 A 
ATOM     36  C   UNL     1      -7.744  -4.295   2.249  0.00  0.00    +0.054 A 
ENDBRANCH  26  27
ENDBRANCH  25  26
ENDBRANCH  20  25
ENDBRANCH   1  22
TORSDOF 7
