REMARK  Name = ZINC34998470
REMARK  13 active torsions:
REMARK  status: ('A' for Active; 'I' for Inactive)
REMARK    1  A    between atoms: C_1  and  C_2
REMARK    2  A    between atoms: C_9  and  C_11
REMARK    3  A    between atoms: C_11  and  C_12
REMARK    4  A    between atoms: C_12  and  C_13
REMARK    5  A    between atoms: C_18  and  C_20
REMARK    6  A    between atoms: C_20  and  C_22
REMARK    7  A    between atoms: C_20  and  N_25
REMARK    8  A    between atoms: C_22  and  C_23
REMARK    9  A    between atoms: C_22  and  C_24
REMARK   10  A    between atoms: C_26  and  C_28
REMARK   11  A    between atoms: C_28  and  C_29
REMARK   12  A    between atoms: C_28  and  C_30
REMARK   13  A    between atoms: C_28  and  C_31
REMARK                            x       y       z     vdW  Elec       q    Type
REMARK                         _______ _______ _______ _____ _____    ______ ____
ROOT
ATOM      1  C   UNL     1      -0.819   2.266  -0.527  0.00  0.00    +0.029 C 
ATOM      2  C   UNL     1      -0.155   0.924  -0.209  0.00  0.00    +0.090 C 
ATOM      3  C   UNL     1      -1.233  -0.122   0.102  0.00  0.00    +0.130 C 
ATOM      4  N   UNL     1      -1.847   0.206   1.396  0.00  0.00    -0.297 N 
ATOM      5  C   UNL     1      -0.981   0.351   2.574  0.00  0.00    +0.127 C 
ATOM      6  C   UNL     1       0.097   1.397   2.264  0.00  0.00    +0.127 C 
ATOM      7  N   UNL     1       0.714   1.071   0.967  0.00  0.00    -0.296 N 
ATOM      8  C   UNL     1       2.047   0.905   0.859  0.00  0.00    +0.216 C 
ATOM      9  O   UNL     1       2.539   0.633  -0.215  0.00  0.00    -0.276 OA
ATOM     10  C   UNL     1      -3.181   0.370   1.500  0.00  0.00    +0.236 C 
ATOM     11  O   UNL     1      -3.874   0.349   0.506  0.00  0.00    -0.274 OA
ENDROOT
BRANCH   8  12
ATOM     12  C   UNL     1       2.926   1.059   2.074  0.00  0.00    +0.096 C 
BRANCH  12  13
ATOM     13  C   UNL     1       4.386   0.821   1.680  0.00  0.00    +0.013 C 
BRANCH  13  14
ATOM     14  C   UNL     1       5.278   0.977   2.913  0.00  0.00    -0.011 C 
ATOM     15  C   UNL     1       5.287   2.448   3.377  0.00  0.00    +0.003 C 
ATOM     16  C   UNL     1       6.741   2.689   3.851  0.00  0.00    +0.000 C 
ATOM     17  C   UNL     1       7.574   1.885   2.821  0.00  0.00    +0.000 C 
ATOM     18  C   UNL     1       6.732   0.619   2.560  0.00  0.00    +0.003 C 
ENDBRANCH  13  14
ENDBRANCH  12  13
ENDBRANCH   8  12
BRANCH  10  19
ATOM     19  C   UNL     1      -3.810   0.580   2.853  0.00  0.00    +0.162 C 
BRANCH  19  20
ATOM     20  N   UNL     1      -5.091  -0.128   2.911  0.00  0.00    -0.303 N 
ATOM     21  C   UNL     1      -5.592  -0.519   4.100  0.00  0.00    +0.220 C 
ATOM     22  O   UNL     1      -4.982  -0.284   5.122  0.00  0.00    -0.275 OA
ATOM     23  H   UNL     1      -5.579  -0.316   2.094  0.00  0.00    +0.149 HD
BRANCH  21  24
ATOM     24  C   UNL     1      -6.910  -1.248   4.159  0.00  0.00    +0.055 C 
ATOM     25  C   UNL     1      -8.009  -0.362   3.568  0.00  0.00    +0.022 C 
ATOM     26  C   UNL     1      -6.812  -2.545   3.354  0.00  0.00    +0.022 C 
BRANCH  24  27
ATOM     27  C   UNL     1      -7.247  -1.575   5.615  0.00  0.00    +0.124 C 
ATOM     28 CL   UNL     1      -8.824  -2.446   5.686  0.00  0.00    -0.124 Cl
ENDBRANCH  24  27
ENDBRANCH  21  24
ENDBRANCH  19  20
BRANCH  19  29
ATOM     29  C   UNL     1      -4.043   2.075   3.081  0.00  0.00    +0.012 C 
ATOM     30  C   UNL     1      -4.605   2.295   4.487  0.00  0.00    +0.009 C 
ATOM     31  C   UNL     1      -2.717   2.825   2.938  0.00  0.00    +0.009 C 
ENDBRANCH  19  29
ENDBRANCH  10  19
TORSDOF 8
