REMARK  Name = ZINC39480605
REMARK  9 active torsions:
REMARK  status: ('A' for Active; 'I' for Inactive)
REMARK    1  A    between atoms: C_1  and  C_2
REMARK    2  A    between atoms: C_2  and  C_3
REMARK    3  A    between atoms: C_2  and  S_4
REMARK    4  A    between atoms: S_4  and  C_7
REMARK    5  A    between atoms: C_11  and  S_13
REMARK    6  A    between atoms: S_13  and  C_14
REMARK    7  A    between atoms: N_15  and  C_28
REMARK    8  A    between atoms: C_24  and  S_26
REMARK    9  A    between atoms: S_26  and  C_27
REMARK                            x       y       z     vdW  Elec       q    Type
REMARK                         _______ _______ _______ _____ _____    ______ ____
ROOT
ATOM      1  C   UNL     1      -2.441  -2.732   1.112  0.00  0.00    +0.090 A 
ATOM      2  C   UNL     1      -2.202  -3.150  -0.193  0.00  0.00    +0.033 A 
ATOM      3  C   UNL     1      -1.822  -4.433  -0.392  0.00  0.00    -0.017 A 
ATOM      4  C   UNL     1      -1.846  -5.359   0.637  0.00  0.00    +0.052 A 
ATOM      5  C   UNL     1      -1.898  -4.936   1.948  0.00  0.00    +0.031 A 
ATOM      6  C   UNL     1      -2.215  -3.594   2.173  0.00  0.00    +0.043 A 
ATOM      7  N   UNL     1      -2.312  -6.594   0.203  0.00  0.00    -0.285 N 
ATOM      8  C   UNL     1      -2.070  -7.853   0.663  0.00  0.00    +0.156 A 
ATOM      9  C   UNL     1      -1.328  -8.433  -0.471  0.00  0.00    +0.142 A 
ATOM     10  C   UNL     1      -0.887  -9.711  -0.350  0.00  0.00    +0.160 A 
ATOM     11  N   UNL     1      -1.156 -10.377   0.775  0.00  0.00    -0.222 NA
ATOM     12  C   UNL     1      -1.837  -9.824   1.759  0.00  0.00    +0.225 A 
ATOM     13  N   UNL     1      -2.288  -8.575   1.697  0.00  0.00    -0.218 NA
ATOM     14 CL   UNL     1       0.009 -10.464  -1.633  0.00  0.00    -0.060 Cl
ATOM     15  N   UNL     1      -1.262  -7.498  -1.459  0.00  0.00    -0.239 NA
ATOM     16  C   UNL     1      -0.691  -6.368  -1.192  0.00  0.00    +0.079 C 
ATOM     17  C   UNL     1      -1.113  -4.979  -1.649  0.00  0.00    +0.099 C 
ATOM     18  C   UNL     1      -3.219  -6.532  -0.947  0.00  0.00    +0.137 C 
ENDROOT
BRANCH   1  19
ATOM     19  S   UNL     1      -3.025  -1.098   1.418  0.00  0.00    -0.001 S 
ATOM     20  O   UNL     1      -3.717  -1.186   2.655  0.00  0.00    -0.169 OA
ATOM     21  O   UNL     1      -3.710  -0.730   0.229  0.00  0.00    -0.169 OA
BRANCH  19  23
ATOM     22  C   UNL     1      -1.913   1.331   2.005  0.00  0.00    +0.032 C 
ATOM     23  C   UNL     1      -1.525  -0.095   1.610  0.00  0.00    +0.130 C 
ATOM     24  C   UNL     1      -0.641  -0.704   2.701  0.00  0.00    +0.032 C 
ENDBRANCH  19  23
ENDBRANCH   1  19
BRANCH   5  25
ATOM     25  S   UNL     1      -1.573  -6.039   3.283  0.00  0.00    -0.127 S 
ATOM     26  C   UNL     1      -1.769  -5.008   4.762  0.00  0.00    +0.090 C 
ENDBRANCH   5  25
BRANCH  16  27
ATOM     27  S   UNL     1       0.747  -6.447  -0.177  0.00  0.00    -0.113 S 
ATOM     28  C   UNL     1       1.359  -4.739  -0.149  0.00  0.00    +0.091 C 
ENDBRANCH  16  27
TORSDOF 4
