REMARK  Name = ZINC34747914
REMARK  6 active torsions:
REMARK  status: ('A' for Active; 'I' for Inactive)
REMARK    1  A    between atoms: C_1  and  C_2
REMARK    2  A    between atoms: C_5  and  C_36
REMARK    3  A    between atoms: C_6  and  C_8
REMARK    4  A    between atoms: C_8  and  N_9
REMARK    5  A    between atoms: N_27  and  C_28
REMARK    6  A    between atoms: C_28  and  C_29
REMARK                            x       y       z     vdW  Elec       q    Type
REMARK                         _______ _______ _______ _____ _____    ______ ____
ROOT
ATOM      1  N   UNL     1       2.389  -2.398   2.568  0.00  0.00    +0.384 N 
ATOM      2  C   UNL     1       3.616  -1.629   2.810  0.00  0.00    -0.059 C 
ATOM      3  C   UNL     1       4.733  -2.577   3.257  0.00  0.00    +0.089 C 
ATOM      4  N   UNL     1       4.257  -3.343   4.419  0.00  0.00    -0.304 N 
ATOM      5  C   UNL     1       2.953  -4.015   4.320  0.00  0.00    +0.089 C 
ATOM      6  C   UNL     1       1.919  -2.999   3.823  0.00  0.00    -0.059 C 
ATOM      7  C   UNL     1       5.010  -3.429   5.564  0.00  0.00    +0.202 A 
ATOM      8  N   UNL     1       5.502  -2.331   6.101  0.00  0.00    -0.208 NA
ATOM      9  C   UNL     1       6.233  -2.386   7.209  0.00  0.00    +0.117 A 
ATOM     10  C   UNL     1       6.516  -3.597   7.855  0.00  0.00    +0.076 A 
ATOM     11  C   UNL     1       7.339  -3.503   9.072  0.00  0.00    -0.023 A 
ATOM     12  C   UNL     1       7.734  -2.275   9.444  0.00  0.00    -0.004 A 
ATOM     13  S   UNL     1       7.053  -1.181   8.219  0.00  0.00    -0.073 S 
ATOM     14  C   UNL     1       8.562  -2.300  10.701  0.00  0.00    +0.043 C 
ATOM     15  C   UNL     1       8.281  -3.686  11.322  0.00  0.00    +0.010 C 
ATOM     16  C   UNL     1       7.894  -4.513  10.080  0.00  0.00    +0.037 C 
ATOM     17  C   UNL     1       5.970  -4.773   7.252  0.00  0.00    +0.264 A 
ATOM     18  O   UNL     1       6.164  -5.870   7.746  0.00  0.00    -0.267 OA
ATOM     19  N   UNL     1       5.233  -4.648   6.132  0.00  0.00    -0.276 N 
ATOM     20  H   UNL     1       2.580  -3.129   1.898  0.00  0.00    -0.081 HD
ENDROOT
BRANCH   1  21
ATOM     21  C   UNL     1       1.351  -1.507   2.035  0.00  0.00    -0.043 C 
BRANCH  21  27
ATOM     22  C   UNL     1       3.301   2.142  -0.781  0.00  0.00    +0.044 C 
ATOM     23  C   UNL     1       2.712   0.760  -0.660  0.00  0.00    -0.050 A 
ATOM     24  C   UNL     1       2.564  -0.029  -1.785  0.00  0.00    +0.003 A 
ATOM     25  C   UNL     1       2.023  -1.296  -1.674  0.00  0.00    +0.004 A 
ATOM     26  C   UNL     1       1.630  -1.774  -0.438  0.00  0.00    -0.049 A 
ATOM     27  C   UNL     1       1.779  -0.986   0.687  0.00  0.00    -0.061 A 
ATOM     28  C   UNL     1       2.324   0.280   0.577  0.00  0.00    +0.005 A 
ATOM     29  C   UNL     1       1.040  -3.156  -0.317  0.00  0.00    +0.044 C 
ENDBRANCH  21  27
ENDBRANCH   1  21
BRANCH  19  30
ATOM     30  C   UNL     1       4.664  -5.846   5.508  0.00  0.00    +0.163 C 
BRANCH  30  31
ATOM     31  C   UNL     1       5.655  -6.420   4.528  0.00  0.00    -0.027 A 
ATOM     32  C   UNL     1       5.576  -6.085   3.189  0.00  0.00    +0.007 A 
ATOM     33  C   UNL     1       6.484  -6.612   2.290  0.00  0.00    +0.020 A 
ATOM     34  C   UNL     1       7.472  -7.474   2.730  0.00  0.00    +0.041 A 
ATOM     35  C   UNL     1       7.550  -7.810   4.070  0.00  0.00    +0.020 A 
ATOM     36  C   UNL     1       6.645  -7.278   4.969  0.00  0.00    +0.007 A 
ATOM     37 CL   UNL     1       8.612  -8.137   1.601  0.00  0.00    -0.084 Cl
ENDBRANCH  30  31
ENDBRANCH  19  30
TORSDOF 4
