REMARK  Name = ZINC20209351
REMARK  8 active torsions:
REMARK  status: ('A' for Active; 'I' for Inactive)
REMARK    1  A    between atoms: C_1  and  S_2
REMARK    2  A    between atoms: S_2  and  N_5
REMARK    3  A    between atoms: N_5  and  C_6
REMARK    4  A    between atoms: N_5  and  C_25
REMARK    5  A    between atoms: C_6  and  C_7
REMARK    6  A    between atoms: N_9  and  N_10
REMARK    7  A    between atoms: C_11  and  C_12
REMARK    8  A    between atoms: C_15  and  C_17
REMARK                            x       y       z     vdW  Elec       q    Type
REMARK                         _______ _______ _______ _____ _____    ______ ____
ROOT
ATOM      1  C   UNL     1       2.723  -2.037  -0.842  0.00  0.00    +0.251 C 
ATOM      2  O   UNL     1       1.825  -2.853  -0.845  0.00  0.00    -0.272 OA
ATOM      3  N   UNL     1       3.994  -2.433  -0.631  0.00  0.00    -0.206 N 
ATOM      4  H   UNL     1       4.711  -1.780  -0.628  0.00  0.00    +0.177 HD
ENDROOT
BRANCH   3   5
ATOM      5  N   UNL     1       4.279  -3.787  -0.416  0.00  0.00    -0.185 NA
ATOM      6  C   UNL     1       5.506  -4.170  -0.212  0.00  0.00    +0.176 C 
BRANCH   6   7
ATOM      7  C   UNL     1       5.804  -5.586   0.013  0.00  0.00    +0.148 A 
ATOM      8  C   UNL     1       7.051  -6.123   0.245  0.00  0.00    +0.051 A 
ATOM      9  C   UNL     1       6.873  -7.504   0.405  0.00  0.00    +0.050 A 
ATOM     10  C   UNL     1       5.540  -7.755   0.265  0.00  0.00    +0.137 A 
ATOM     11  O   UNL     1       4.904  -6.590   0.034  0.00  0.00    -0.454 OA
BRANCH  10  12
ATOM     12  C   UNL     1       4.900  -9.081   0.357  0.00  0.00    +0.036 A 
ATOM     13  C   UNL     1       5.410 -10.158  -0.373  0.00  0.00    +0.014 A 
ATOM     14  C   UNL     1       4.807 -11.395  -0.282  0.00  0.00    +0.021 A 
ATOM     15  C   UNL     1       3.699 -11.572   0.530  0.00  0.00    +0.042 A 
ATOM     16  C   UNL     1       3.188 -10.510   1.256  0.00  0.00    +0.040 A 
ATOM     17  C   UNL     1       3.785  -9.268   1.179  0.00  0.00    +0.053 A 
ATOM     18 CL   UNL     1       3.147  -7.938   2.095  0.00  0.00    -0.083 Cl
ATOM     19 CL   UNL     1       2.947 -13.133   0.637  0.00  0.00    -0.083 Cl
ENDBRANCH  10  12
ENDBRANCH   6   7
ENDBRANCH   3   5
BRANCH   1  20
ATOM     20  C   UNL     1       2.416  -0.579  -1.073  0.00  0.00    +0.228 C 
BRANCH  20  21
ATOM     21  N   UNL     1       0.975  -0.409  -1.275  0.00  0.00    -0.197 N 
BRANCH  21  22
ATOM     22  C   UNL     1       0.422  -0.590  -2.546  0.00  0.00    +0.070 A 
ATOM     23  C   UNL     1       0.066  -1.861  -2.976  0.00  0.00    +0.026 A 
ATOM     24  C   UNL     1      -0.482  -2.036  -4.232  0.00  0.00    +0.002 A 
ATOM     25  C   UNL     1      -0.675  -0.946  -5.062  0.00  0.00    +0.002 A 
ATOM     26  C   UNL     1      -0.322   0.321  -4.637  0.00  0.00    +0.022 A 
ATOM     27  C   UNL     1       0.221   0.504  -3.380  0.00  0.00    +0.064 A 
ATOM     28 CL   UNL     1       0.658   2.097  -2.845  0.00  0.00    -0.082 Cl
ENDBRANCH  21  22
BRANCH  21  30
ATOM     29  C   UNL     1      -0.022   1.810   0.012  0.00  0.00    +0.218 C 
ATOM     30  S   UNL     1       0.002  -0.004   0.002  0.00  0.00    +0.043 S 
ATOM     31  O   UNL     1       0.687  -0.491   1.148  0.00  0.00    -0.155 OA
ATOM     32  O   UNL     1      -1.280  -0.509  -0.345  0.00  0.00    -0.155 OA
ENDBRANCH  21  30
ENDBRANCH  20  21
ENDBRANCH   1  20
TORSDOF 7
