REMARK  Name = ZINC16493525
REMARK  5 active torsions:
REMARK  status: ('A' for Active; 'I' for Inactive)
REMARK    1  A    between atoms: C_4  and  C_7
REMARK    2  A    between atoms: C_10  and  C_26
REMARK    3  A    between atoms: N_11  and  N_12
REMARK    4  A    between atoms: N_12  and  S_13
REMARK    5  A    between atoms: S_13  and  C_16
REMARK                            x       y       z     vdW  Elec       q    Type
REMARK                         _______ _______ _______ _____ _____    ______ ____
ROOT
ATOM      1  C   UNL     1      -1.377   7.378  -2.215  0.00  0.00    +0.183 A 
ATOM      2  N   UNL     1      -1.215   6.582  -3.249  0.00  0.00    -0.127 NA
ATOM      3  N   UNL     1      -0.422   7.127  -4.102  0.00  0.00    -0.127 NA
ATOM      4  C   UNL     1      -0.036   8.307  -3.666  0.00  0.00    +0.183 A 
ATOM      5  N   UNL     1      -0.635   8.505  -2.451  0.00  0.00    -0.206 N 
ENDROOT
BRANCH   4   6
ATOM      6  C   UNL     1       0.875   9.242  -4.359  0.00  0.00    +0.021 A 
ATOM      7  C   UNL     1       1.363  10.368  -3.692  0.00  0.00    +0.013 A 
ATOM      8  C   UNL     1       2.217  11.234  -4.342  0.00  0.00    +0.021 A 
ATOM      9  C   UNL     1       2.583  10.995  -5.656  0.00  0.00    +0.041 A 
ATOM     10  C   UNL     1       2.098   9.883  -6.324  0.00  0.00    +0.021 A 
ATOM     11  C   UNL     1       1.248   9.007  -5.683  0.00  0.00    +0.013 A 
ATOM     12 CL   UNL     1       3.653  12.094  -6.469  0.00  0.00    -0.084 Cl
ENDBRANCH   4   6
BRANCH   1  16
ATOM     13  C   UNL     1      -3.763   6.604   1.213  0.00  0.00    +0.000 A 
ATOM     14  C   UNL     1      -4.152   6.116  -0.022  0.00  0.00    +0.001 A 
ATOM     15  C   UNL     1      -3.382   6.364  -1.139  0.00  0.00    +0.011 A 
ATOM     16  C   UNL     1      -2.208   7.109  -1.022  0.00  0.00    +0.021 A 
ATOM     17  C   UNL     1      -1.818   7.594   0.228  0.00  0.00    +0.011 A 
ATOM     18  C   UNL     1      -2.600   7.343   1.336  0.00  0.00    +0.001 A 
ENDBRANCH   1  16
BRANCH   5  19
ATOM     19  N   UNL     1      -0.511   9.626  -1.620  0.00  0.00    -0.149 N 
ATOM     20  H   UNL     1      -0.288   9.513  -0.683  0.00  0.00    +0.195 HD
BRANCH  19  21
ATOM     21  S   UNL     1      -0.746  11.145  -2.237  0.00  0.00    +0.085 S 
ATOM     22  O   UNL     1      -0.697  11.021  -3.652  0.00  0.00    -0.149 OA
ATOM     23  O   UNL     1       0.119  12.014  -1.518  0.00  0.00    -0.149 OA
BRANCH  21  24
ATOM     24  C   UNL     1      -2.392  11.624  -1.831  0.00  0.00    +0.110 A 
ATOM     25  C   UNL     1      -2.606  12.545  -0.807  0.00  0.00    +0.029 A 
ATOM     26  C   UNL     1      -3.865  12.936  -0.468  0.00  0.00    +0.010 A 
ATOM     27  C   UNL     1      -4.967  12.405  -1.158  0.00  0.00    -0.018 A 
ATOM     28  C   UNL     1      -6.282  12.785  -0.837  0.00  0.00    +0.008 A 
ATOM     29  C   UNL     1      -7.325  12.249  -1.527  0.00  0.00    +0.001 A 
ATOM     30  C   UNL     1      -7.112  11.324  -2.547  0.00  0.00    +0.001 A 
ATOM     31  C   UNL     1      -5.853  10.938  -2.890  0.00  0.00    +0.008 A 
ATOM     32  C   UNL     1      -4.750  11.469  -2.199  0.00  0.00    -0.016 A 
ATOM     33  C   UNL     1      -3.436  11.089  -2.521  0.00  0.00    +0.037 A 
ENDBRANCH  21  24
ENDBRANCH  19  21
ENDBRANCH   5  19
TORSDOF 5
