REMARK  Name = ZINC64704887
REMARK  6 active torsions:
REMARK  status: ('A' for Active; 'I' for Inactive)
REMARK    1  A    between atoms: C_7  and  C_10
REMARK    2  A    between atoms: C_10  and  C_11
REMARK    3  A    between atoms: C_11  and  C_13
REMARK    4  A    between atoms: C_11  and  N_22
REMARK    5  A    between atoms: N_22  and  S_23
REMARK    6  A    between atoms: S_23  and  C_26
REMARK                            x       y       z     vdW  Elec       q    Type
REMARK                         _______ _______ _______ _____ _____    ______ ____
ROOT
ATOM      1  C   UNL     1       0.455  -3.652  -1.459  0.00  0.00    +0.166 C 
ENDROOT
BRANCH   1   2
ATOM      2  C   UNL     1      -0.385  -4.903  -1.451  0.00  0.00    +0.237 C 
ATOM      3  O   UNL     1      -1.459  -4.916  -2.015  0.00  0.00    -0.274 OA
ATOM      4  N   UNL     1       0.057  -6.008  -0.819  0.00  0.00    -0.269 N 
ATOM      5  C   UNL     1      -0.765  -7.130  -0.720  0.00  0.00    +0.125 A 
ATOM      6  C   UNL     1      -0.345  -8.228   0.024  0.00  0.00    +0.044 A 
ATOM      7  C   UNL     1      -1.170  -9.335   0.113  0.00  0.00    +0.005 A 
ATOM      8  C   UNL     1      -2.391  -9.306  -0.548  0.00  0.00    +0.020 A 
ATOM      9  C   UNL     1      -2.744  -8.183  -1.268  0.00  0.00    +0.113 A 
ATOM     10  N   UNL     1      -1.939  -7.139  -1.331  0.00  0.00    -0.240 NA
ATOM     11  H   UNL     1       0.946  -6.022  -0.431  0.00  0.00    +0.156 HD
ENDBRANCH   1   2
BRANCH   1  12
ATOM     12  N   UNL     1      -0.240  -2.602  -2.206  0.00  0.00    -0.178 NA
ATOM     13  H   UNL     1      -1.207  -2.538  -2.169  0.00  0.00    +0.149 HD
BRANCH  12  14
ATOM     14  S   UNL     1       0.626  -1.522  -3.116  0.00  0.00    +0.059 S 
ATOM     15  O   UNL     1      -0.321  -0.658  -3.731  0.00  0.00    -0.153 OA
ATOM     16  O   UNL     1       1.672  -1.037  -2.285  0.00  0.00    -0.153 OA
BRANCH  14  17
ATOM     17  C   UNL     1       1.395  -2.432  -4.414  0.00  0.00    +0.105 A 
ATOM     18  C   UNL     1       2.651  -2.976  -4.226  0.00  0.00    +0.030 A 
ATOM     19  C   UNL     1       3.255  -3.690  -5.243  0.00  0.00    +0.022 A 
ATOM     20  C   UNL     1       2.601  -3.860  -6.451  0.00  0.00    +0.041 A 
ATOM     21  C   UNL     1       1.343  -3.316  -6.638  0.00  0.00    +0.022 A 
ATOM     22  C   UNL     1       0.738  -2.607  -5.618  0.00  0.00    +0.030 A 
ATOM     23 CL   UNL     1       3.359  -4.757  -7.730  0.00  0.00    -0.084 Cl
ENDBRANCH  14  17
ENDBRANCH  12  14
ENDBRANCH   1  12
BRANCH   1  24
ATOM     24  C   UNL     1       0.689  -3.186  -0.021  0.00  0.00    +0.063 C 
BRANCH  24  31
ATOM     25  C   UNL     1      -0.021   1.347   0.018  0.00  0.00    +0.001 A 
ATOM     26  C   UNL     1       1.160   2.101   0.012  0.00  0.00    +0.002 A 
ATOM     27  C   UNL     1       2.386   1.536  -0.003  0.00  0.00    +0.026 A 
ATOM     28  C   UNL     1       2.525   0.120  -0.014  0.00  0.00    +0.043 A 
ATOM     29  N   UNL     1       3.583  -0.653  -0.030  0.00  0.00    -0.380 N 
ATOM     30  C   UNL     1       3.140  -2.052  -0.035  0.00  0.00    +0.144 C 
ATOM     31  C   UNL     1       1.629  -2.008  -0.020  0.00  0.00    -0.040 C 
ATOM     32  C   UNL     1       1.292  -0.699  -0.008  0.00  0.00    -0.001 A 
ATOM     33  C   UNL     1      -0.002  -0.005   0.009  0.00  0.00    +0.010 A 
ATOM     34  H   UNL     1       4.505  -0.351  -0.036  0.00  0.00    +0.160 HD
ENDBRANCH  24  31
ENDBRANCH   1  24
TORSDOF 6
