REMARK  Name = ZINC35566079
REMARK  11 active torsions:
REMARK  status: ('A' for Active; 'I' for Inactive)
REMARK    1  A    between atoms: C_1  and  C_2
REMARK    2  A    between atoms: C_3  and  C_8
REMARK    3  A    between atoms: C_5  and  C_7
REMARK    4  A    between atoms: C_8  and  C_10
REMARK    5  A    between atoms: C_15  and  C_17
REMARK    6  A    between atoms: C_20  and  C_23
REMARK    7  A    between atoms: C_23  and  C_24
REMARK    8  A    between atoms: C_23  and  C_25
REMARK    9  A    between atoms: C_28  and  C_34
REMARK   10  A    between atoms: C_29  and  C_31
REMARK   11  A    between atoms: C_31  and  C_33
REMARK                            x       y       z     vdW  Elec       q    Type
REMARK                         _______ _______ _______ _____ _____    ______ ____
ROOT
ATOM      1  C   UNL     1      -0.006  -1.164  -3.859  0.00  0.00    +0.077 C 
ATOM      2  C   UNL     1       0.093  -0.896  -5.181  0.00  0.00    +0.250 C 
ATOM      3  C   UNL     1       0.213  -2.165  -5.926  0.00  0.00    +0.293 C 
ATOM      4  O   UNL     1       0.319  -2.257  -7.133  0.00  0.00    -0.266 OA
ATOM      5  N   UNL     1       0.188  -3.204  -5.071  0.00  0.00    -0.232 N 
ATOM      6  C   UNL     1       0.056  -2.666  -3.712  0.00  0.00    +0.152 C 
ATOM      7  C   UNL     1       0.277  -4.539  -5.412  0.00  0.00    +0.169 A 
ATOM      8  N   UNL     1       0.251  -5.590  -4.612  0.00  0.00    -0.229 NA
ATOM      9  C   UNL     1       0.346  -6.807  -5.077  0.00  0.00    +0.058 A 
ATOM     10  C   UNL     1       0.476  -6.930  -6.460  0.00  0.00    +0.078 A 
ATOM     11  S   UNL     1       0.437  -5.212  -6.946  0.00  0.00    -0.049 S 
ATOM     12  C   UNL     1       0.317  -8.011  -4.171  0.00  0.00    +0.067 C 
ATOM     13  O   UNL     1       0.083   0.340  -5.734  0.00  0.00    -0.282 OA
ENDROOT
BRANCH   6  14
ATOM     14  C   UNL     1      -1.211  -3.178  -3.077  0.00  0.00    -0.022 A 
ATOM     15  C   UNL     1      -2.360  -3.308  -3.834  0.00  0.00    +0.006 A 
ATOM     16  C   UNL     1      -3.523  -3.778  -3.251  0.00  0.00    +0.004 A 
ATOM     17  C   UNL     1      -3.536  -4.117  -1.911  0.00  0.00    -0.045 A 
ATOM     18  C   UNL     1      -2.387  -3.987  -1.154  0.00  0.00    +0.004 A 
ATOM     19  C   UNL     1      -1.223  -3.522  -1.738  0.00  0.00    +0.006 A 
BRANCH  17  20
ATOM     20  C   UNL     1      -4.803  -4.628  -1.276  0.00  0.00    +0.013 C 
ATOM     21  C   UNL     1      -4.565  -6.034  -0.722  0.00  0.00    +0.012 C 
ATOM     22  C   UNL     1      -5.215  -3.693  -0.136  0.00  0.00    +0.012 C 
ENDBRANCH  17  20
ENDBRANCH   6  14
BRANCH  10  23
ATOM     23  C   UNL     1       0.598  -8.088  -7.253  0.00  0.00    +0.168 C 
ATOM     24  O   UNL     1       0.599  -9.185  -6.731  0.00  0.00    -0.292 OA
ATOM     25  C   UNL     1       0.728  -7.966  -8.750  0.00  0.00    +0.092 C 
ENDBRANCH  10  23
BRANCH   1  26
ATOM     26  C   UNL     1      -0.142  -0.183  -2.775  0.00  0.00    +0.203 C 
ATOM     27  O   UNL     1      -1.154   0.489  -2.685  0.00  0.00    -0.286 OA
BRANCH  26  30
ATOM     28  C   UNL     1      -0.001   1.925  -0.469  0.00  0.00    +0.067 C 
ATOM     29  C   UNL     1       1.063   0.898  -0.758  0.00  0.00    +0.057 A 
ATOM     30  C   UNL     1       0.941  -0.013  -1.800  0.00  0.00    +0.082 A 
ATOM     31  S   UNL     1       2.470  -0.919  -1.622  0.00  0.00    -0.069 S 
ATOM     32  C   UNL     1       3.082  -0.083  -0.296  0.00  0.00    +0.076 A 
ATOM     33  N   UNL     1       2.158   0.817  -0.044  0.00  0.00    -0.249 NA
ATOM     34  C   UNL     1       4.384  -0.308   0.428  0.00  0.00    +0.073 C 
ENDBRANCH  26  30
ENDBRANCH   1  26
TORSDOF 5
