REMARK  Name = ZINC36550933
REMARK  7 active torsions:
REMARK  status: ('A' for Active; 'I' for Inactive)
REMARK    1  A    between atoms: C_1  and  C_2
REMARK    2  A    between atoms: C_2  and  O_37
REMARK    3  A    between atoms: C_6  and  C_28
REMARK    4  A    between atoms: C_8  and  C_21
REMARK    5  A    between atoms: C_10  and  C_12
REMARK    6  A    between atoms: N_14  and  C_15
REMARK    7  A    between atoms: N_30  and  C_31
REMARK                            x       y       z     vdW  Elec       q    Type
REMARK                         _______ _______ _______ _____ _____    ______ ____
ROOT
ATOM      1  C   UNL     1       1.063   1.938  -0.448  0.00  0.00    +0.042 C 
ATOM      2  C   UNL     1       0.585   0.485  -0.426  0.00  0.00    +0.082 C 
ATOM      3  C   UNL     1      -0.945   0.452  -0.346  0.00  0.00    +0.110 C 
ATOM      4  C   UNL     1      -1.388  -0.986  -0.191  0.00  0.00    +0.148 C 
ATOM      5  O   UNL     1      -2.228  -1.457  -0.920  0.00  0.00    -0.296 OA
ATOM      6  C   UNL     1      -0.751  -1.819   0.899  0.00  0.00    +0.149 C 
ATOM      7  C   UNL     1       0.772  -1.704   0.773  0.00  0.00    +0.053 C 
ATOM      8  C   UNL     1       1.173  -0.228   0.792  0.00  0.00    +0.115 C 
ENDROOT
BRANCH   7   9
ATOM      9  C   UNL     1       1.427  -2.418   1.927  0.00  0.00    -0.042 A 
ATOM     10  C   UNL     1       0.868  -2.350   3.189  0.00  0.00    +0.005 A 
ATOM     11  C   UNL     1       1.468  -3.005   4.248  0.00  0.00    +0.020 A 
ATOM     12  C   UNL     1       2.629  -3.729   4.044  0.00  0.00    +0.041 A 
ATOM     13  C   UNL     1       3.188  -3.798   2.780  0.00  0.00    +0.020 A 
ATOM     14  C   UNL     1       2.584  -3.147   1.721  0.00  0.00    +0.005 A 
ATOM     15 CL   UNL     1       3.384  -4.552   5.373  0.00  0.00    -0.084 Cl
ENDBRANCH   7   9
BRANCH   8  16
ATOM     16  C   UNL     1       0.651   0.416   2.050  0.00  0.00    +0.224 C 
ATOM     17  O   UNL     1      -0.544   0.511   2.232  0.00  0.00    -0.275 OA
ATOM     18  N   UNL     1       1.513   0.887   2.973  0.00  0.00    -0.285 N 
ATOM     19  H   UNL     1       2.464   0.719   2.880  0.00  0.00    +0.155 HD
BRANCH  18  20
ATOM     20  C   UNL     1       1.037   1.619   4.066  0.00  0.00    +0.033 A 
ATOM     21  C   UNL     1      -0.251   1.403   4.540  0.00  0.00    +0.023 A 
ATOM     22  C   UNL     1      -0.718   2.128   5.620  0.00  0.00    +0.002 A 
ATOM     23  C   UNL     1       0.094   3.067   6.228  0.00  0.00    +0.000 A 
ATOM     24  C   UNL     1       1.376   3.285   5.758  0.00  0.00    +0.002 A 
ATOM     25  C   UNL     1       1.852   2.559   4.683  0.00  0.00    +0.023 A 
ENDBRANCH  18  20
ENDBRANCH   8  16
BRANCH   6  26
ATOM     26  C   UNL     1      -1.168  -3.259   0.744  0.00  0.00    +0.228 C 
ATOM     27  O   UNL     1      -0.330  -4.118   0.567  0.00  0.00    -0.275 OA
ATOM     28  N   UNL     1      -2.473  -3.593   0.802  0.00  0.00    -0.285 N 
ATOM     29  H   UNL     1      -3.150  -2.899   0.830  0.00  0.00    +0.155 HD
BRANCH  28  30
ATOM     30  C   UNL     1      -2.850  -4.940   0.823  0.00  0.00    +0.033 A 
ATOM     31  C   UNL     1      -4.054  -5.334   0.254  0.00  0.00    +0.023 A 
ATOM     32  C   UNL     1      -4.423  -6.665   0.277  0.00  0.00    +0.002 A 
ATOM     33  C   UNL     1      -3.596  -7.604   0.864  0.00  0.00    +0.000 A 
ATOM     34  C   UNL     1      -2.397  -7.215   1.432  0.00  0.00    +0.002 A 
ATOM     35  C   UNL     1      -2.019  -5.886   1.408  0.00  0.00    +0.023 A 
ENDBRANCH  28  30
ENDBRANCH   6  26
BRANCH   2  36
ATOM     36  O   UNL     1       1.013  -0.175  -1.619  0.00  0.00    -0.388 OA
ATOM     37  H   UNL     1       0.677   0.224  -2.433  0.00  0.00    +0.210 HD
ENDBRANCH   2  36
TORSDOF 6
