REMARK  Name = ZINC39448622
REMARK  9 active torsions:
REMARK  status: ('A' for Active; 'I' for Inactive)
REMARK    1  A    between atoms: C_1  and  C_2
REMARK    2  A    between atoms: C_2  and  C_3
REMARK    3  A    between atoms: C_2  and  N_4
REMARK    4  A    between atoms: C_10  and  N_14
REMARK    5  A    between atoms: C_11  and  C_12
REMARK    6  A    between atoms: C_15  and  C_18
REMARK    7  A    between atoms: N_16  and  O_17
REMARK    8  A    between atoms: C_18  and  C_21
REMARK    9  A    between atoms: N_19  and  O_20
REMARK                            x       y       z     vdW  Elec       q    Type
REMARK                         _______ _______ _______ _____ _____    ______ ____
ROOT
ATOM      1  N   UNL     1      -8.194  -1.338  -1.094  0.00  0.00    -0.289 N 
ATOM      2  C   UNL     1      -8.743  -0.499  -2.052  0.00  0.00    +0.192 C 
ATOM      3  N   UNL     1      -7.976   0.303  -2.730  0.00  0.00    -0.069 NA
ATOM      4  H   UNL     1      -8.766  -1.936  -0.588  0.00  0.00    +0.154 HD
ENDROOT
BRANCH   1  11
ATOM      5  N   UNL     1      -2.035  -0.973   0.248  0.00  0.00    +0.384 N 
ATOM      6  C   UNL     1      -2.295  -2.401   0.473  0.00  0.00    -0.073 C 
ATOM      7  C   UNL     1      -3.710  -2.600   1.026  0.00  0.00    +0.019 C 
ATOM      8  C   UNL     1      -4.679  -1.871   0.105  0.00  0.00    -0.022 A 
ATOM      9  C   UNL     1      -4.222  -0.938  -0.761  0.00  0.00    -0.021 A 
ATOM     10  S   UNL     1      -5.664  -0.372  -1.610  0.00  0.00    -0.079 S 
ATOM     11  C   UNL     1      -6.830  -1.320  -0.858  0.00  0.00    +0.089 A 
ATOM     12  C   UNL     1      -6.112  -2.081   0.053  0.00  0.00    +0.083 A 
ATOM     13  C   UNL     1      -2.798  -0.509  -0.926  0.00  0.00    -0.035 C 
ATOM     14  H   UNL     1      -2.319  -0.448   1.061  0.00  0.00    -0.081 HD
BRANCH   5  16
ATOM     15  C   UNL     1      -0.343   0.702  -0.323  0.00  0.00    -0.014 C 
ATOM     16  C   UNL     1      -0.600  -0.769   0.010  0.00  0.00    -0.074 C 
ATOM     17  C   UNL     1       0.184  -1.152   1.267  0.00  0.00    -0.014 C 
ENDBRANCH   5  16
BRANCH  12  18
ATOM     18  C   UNL     1      -6.759  -3.033   0.905  0.00  0.00    +0.102 C 
ATOM     19  N   UNL     1      -7.272  -3.789   1.581  0.00  0.00    -0.191 NA
ENDBRANCH  12  18
ENDBRANCH   1  11
BRANCH   3  20
ATOM     20  O   UNL     1      -8.547   1.238  -3.628  0.00  0.00    -0.408 OA
ATOM     21  H   UNL     1      -7.898   1.737  -4.141  0.00  0.00    +0.328 HD
ENDBRANCH   3  20
BRANCH   2  22
ATOM     22  C   UNL     1     -10.201  -0.518  -2.304  0.00  0.00    +0.153 C 
ATOM     23  N   UNL     1     -10.955  -1.391  -1.699  0.00  0.00    -0.083 NA
BRANCH  22  24
ATOM     24  C   UNL     1     -10.803   0.456  -3.244  0.00  0.00    +0.007 A 
ATOM     25  C   UNL     1     -10.979   0.118  -4.586  0.00  0.00    +0.010 A 
ATOM     26  C   UNL     1     -11.540   1.030  -5.456  0.00  0.00    +0.001 A 
ATOM     27  C   UNL     1     -11.928   2.277  -5.001  0.00  0.00    +0.000 A 
ATOM     28  C   UNL     1     -11.756   2.619  -3.671  0.00  0.00    +0.001 A 
ATOM     29  C   UNL     1     -11.202   1.713  -2.790  0.00  0.00    +0.010 A 
ENDBRANCH  22  24
BRANCH  23  30
ATOM     30  O   UNL     1     -12.331  -1.482  -2.021  0.00  0.00    -0.409 OA
ATOM     31  H   UNL     1     -12.809  -2.158  -1.521  0.00  0.00    +0.328 HD
ENDBRANCH  23  30
ENDBRANCH   2  22
TORSDOF 7
