REMARK  Name = ZINC39682974
REMARK  9 active torsions:
REMARK  status: ('A' for Active; 'I' for Inactive)
REMARK    1  A    between atoms: C_1  and  O_2
REMARK    2  A    between atoms: O_2  and  C_3
REMARK    3  A    between atoms: C_6  and  O_37
REMARK    4  A    between atoms: C_7  and  C_9
REMARK    5  A    between atoms: C_9  and  N_10
REMARK    6  A    between atoms: C_11  and  C_13
REMARK    7  A    between atoms: C_24  and  C_26
REMARK    8  A    between atoms: C_29  and  C_33
REMARK    9  A    between atoms: O_37  and  C_38
REMARK                            x       y       z     vdW  Elec       q    Type
REMARK                         _______ _______ _______ _____ _____    ______ ____
ROOT
ATOM      1  C   UNL     1      -3.318  -6.425  -3.661  0.00  0.00    +0.100 C 
ATOM      2  C   UNL     1      -2.038  -5.875  -4.330  0.00  0.00    +0.121 C 
ATOM      3  N   UNL     1      -1.090  -7.014  -4.316  0.00  0.00    -0.296 N 
ATOM      4  C   UNL     1      -1.929  -8.196  -4.625  0.00  0.00    +0.115 C 
ATOM      5  C   UNL     1      -3.245  -7.949  -3.861  0.00  0.00    -0.004 C 
ATOM      6  C   UNL     1      -4.434  -8.431  -4.685  0.00  0.00    -0.010 C 
ATOM      7  C   UNL     1      -4.370  -9.956  -4.821  0.00  0.00    -0.082 C 
ATOM      8  N   UNL     1      -4.392 -10.569  -3.487  0.00  0.00    +0.379 N 
ATOM      9  C   UNL     1      -3.196 -10.172  -2.734  0.00  0.00    -0.082 C 
ATOM     10  C   UNL     1      -3.210  -8.657  -2.510  0.00  0.00    -0.010 C 
ATOM     11  C   UNL     1       0.236  -6.982  -4.077  0.00  0.00    +0.247 C 
ATOM     12  O   UNL     1       0.763  -5.949  -3.713  0.00  0.00    -0.270 OA
ATOM     13  H   UNL     1      -5.217 -10.263  -2.992  0.00  0.00    -0.086 HD
ATOM     14  H   UNL     1      -4.412 -11.573  -3.580  0.00  0.00    -0.086 HD
ENDROOT
BRANCH  11  15
ATOM     15  C   UNL     1       1.050  -8.203  -4.258  0.00  0.00    +0.040 A 
ATOM     16  C   UNL     1       0.583  -9.242  -5.065  0.00  0.00    +0.014 A 
ATOM     17  C   UNL     1       1.347 -10.379  -5.231  0.00  0.00    +0.016 A 
ATOM     18  C   UNL     1       2.573 -10.492  -4.601  0.00  0.00    +0.090 A 
ATOM     19  C   UNL     1       3.042  -9.465  -3.798  0.00  0.00    +0.136 A 
ATOM     20  C   UNL     1       2.289  -8.318  -3.629  0.00  0.00    +0.052 A 
ATOM     21  F   UNL     1       4.240  -9.582  -3.185  0.00  0.00    -0.205 F 
BRANCH  18  22
ATOM     22  C   UNL     1       3.401 -11.737  -4.787  0.00  0.00    +0.420 C 
ATOM     23  F   UNL     1       2.725 -12.625  -5.632  0.00  0.00    -0.166 F 
ATOM     24  F   UNL     1       4.632 -11.398  -5.357  0.00  0.00    -0.166 F 
ATOM     25  F   UNL     1       3.614 -12.346  -3.546  0.00  0.00    -0.166 F 
ENDBRANCH  18  22
ENDBRANCH  11  15
BRANCH   1  27
ATOM     26  N   UNL     1      -4.497  -6.030  -1.523  0.00  0.00    -0.311 N 
ATOM     27  C   UNL     1      -3.329  -6.089  -2.192  0.00  0.00    +0.218 C 
ATOM     28  O   UNL     1      -2.287  -5.871  -1.612  0.00  0.00    -0.275 OA
ATOM     29  H   UNL     1      -5.331  -6.204  -1.987  0.00  0.00    +0.149 HD
BRANCH  26  30
ATOM     30  C   UNL     1      -4.508  -5.702  -0.095  0.00  0.00    +0.143 C 
BRANCH  30  35
ATOM     31  C   UNL     1      -7.911  -4.506   1.032  0.00  0.00    +0.121 A 
ATOM     32  C   UNL     1      -8.539  -5.705   1.337  0.00  0.00    +0.049 A 
ATOM     33  C   UNL     1      -7.863  -6.899   1.179  0.00  0.00    +0.049 A 
ATOM     34  C   UNL     1      -6.556  -6.899   0.715  0.00  0.00    +0.125 A 
ATOM     35  C   UNL     1      -5.928  -5.701   0.409  0.00  0.00    +0.015 A 
ATOM     36  C   UNL     1      -6.606  -4.508   0.563  0.00  0.00    +0.054 A 
BRANCH  31  38
ATOM     37  C   UNL     1      -9.917  -3.404   1.677  0.00  0.00    +0.277 C 
ATOM     38  O   UNL     1      -8.576  -3.331   1.189  0.00  0.00    -0.495 OA
ENDBRANCH  31  38
BRANCH  34  39
ATOM     39  O   UNL     1      -5.891  -8.075   0.559  0.00  0.00    -0.495 OA
ATOM     40  C   UNL     1      -6.599  -9.271   0.893  0.00  0.00    +0.277 C 
ENDBRANCH  34  39
ENDBRANCH  30  35
ENDBRANCH  26  30
ENDBRANCH   1  27
TORSDOF 7
