REMARK  Name = ZINC22325127
REMARK  11 active torsions:
REMARK  status: ('A' for Active; 'I' for Inactive)
REMARK    1  A    between atoms: C_1  and  C_2
REMARK    2  A    between atoms: C_5  and  S_8
REMARK    3  A    between atoms: S_8  and  N_11
REMARK    4  A    between atoms: N_11  and  C_12
REMARK    5  A    between atoms: N_11  and  C_30
REMARK    6  A    between atoms: C_12  and  C_13
REMARK    7  A    between atoms: N_15  and  C_16
REMARK    8  A    between atoms: C_19  and  C_28
REMARK    9  A    between atoms: C_19  and  C_29
REMARK   10  A    between atoms: C_24  and  C_27
REMARK   11  A    between atoms: C_35  and  C_36
REMARK                            x       y       z     vdW  Elec       q    Type
REMARK                         _______ _______ _______ _____ _____    ______ ____
ROOT
ATOM      1  N   UNL     1      -0.925   1.789  -1.338  0.00  0.00    -0.194 N 
ENDROOT
BRANCH   1   2
ATOM      2  C   UNL     1      -1.844   0.944  -1.966  0.00  0.00    +0.055 A 
ATOM      3  C   UNL     1      -1.417   0.058  -2.947  0.00  0.00    +0.026 A 
ATOM      4  C   UNL     1      -2.327  -0.780  -3.562  0.00  0.00    +0.022 A 
ATOM      5  C   UNL     1      -3.664  -0.730  -3.209  0.00  0.00    +0.041 A 
ATOM      6  C   UNL     1      -4.093   0.156  -2.236  0.00  0.00    +0.025 A 
ATOM      7  C   UNL     1      -3.186   0.993  -1.614  0.00  0.00    -0.026 A 
ATOM      8  C   UNL     1      -3.654   1.957  -0.554  0.00  0.00    +0.046 C 
ATOM      9 CL   UNL     1      -4.806  -1.779  -3.989  0.00  0.00    -0.084 Cl
ENDBRANCH   1   2
BRANCH   1  10
ATOM     10  S   UNL     1      -0.195   1.318   0.072  0.00  0.00    +0.075 S 
ATOM     11  O   UNL     1      -0.391  -0.085   0.181  0.00  0.00    -0.150 OA
ATOM     12  O   UNL     1       1.096   1.910   0.079  0.00  0.00    -0.150 OA
BRANCH  10  17
ATOM     13  C   UNL     1      -3.275   3.847   4.603  0.00  0.00    +0.044 C 
ATOM     14  C   UNL     1      -2.505   3.215   3.472  0.00  0.00    -0.050 A 
ATOM     15  C   UNL     1      -2.772   1.911   3.097  0.00  0.00    +0.005 A 
ATOM     16  C   UNL     1      -2.067   1.332   2.059  0.00  0.00    +0.029 A 
ATOM     17  C   UNL     1      -1.095   2.057   1.395  0.00  0.00    +0.109 A 
ATOM     18  C   UNL     1      -0.824   3.358   1.773  0.00  0.00    +0.029 A 
ATOM     19  C   UNL     1      -1.532   3.939   2.808  0.00  0.00    +0.005 A 
ENDBRANCH  10  17
ENDBRANCH   1  10
BRANCH   1  20
ATOM     20  C   UNL     1      -0.606   3.092  -1.928  0.00  0.00    +0.227 C 
BRANCH  20  21
ATOM     21  C   UNL     1       0.475   2.924  -2.964  0.00  0.00    +0.233 C 
ATOM     22  O   UNL     1       0.934   1.824  -3.188  0.00  0.00    -0.274 OA
ATOM     23  N   UNL     1       0.931   3.995  -3.642  0.00  0.00    -0.307 N 
ATOM     24  H   UNL     1       0.514   4.993  -3.439  0.00  0.00    +0.149 HD
BRANCH  23  25
ATOM     25  C   UNL     1       1.982   3.832  -4.650  0.00  0.00    +0.111 C 
ATOM     26  C   UNL     1       1.893   4.970  -5.669  0.00  0.00    +0.074 C 
ATOM     27  C   UNL     1       3.163   4.948  -6.529  0.00  0.00    +0.107 C 
ATOM     28  O   UNL     1       4.280   5.240  -5.689  0.00  0.00    -0.486 OA
ATOM     29  C   UNL     1       4.397   4.550  -4.525  0.00  0.00    +0.126 A 
ATOM     30  C   UNL     1       3.331   3.858  -3.976  0.00  0.00    +0.015 A 
ATOM     31  C   UNL     1       3.494   3.172  -2.785  0.00  0.00    +0.012 A 
ATOM     32  C   UNL     1       4.717   3.171  -2.143  0.00  0.00    -0.050 A 
ATOM     33  C   UNL     1       5.785   3.859  -2.689  0.00  0.00    +0.007 A 
ATOM     34  C   UNL     1       5.628   4.546  -3.876  0.00  0.00    +0.046 A 
ATOM     35  C   UNL     1       4.888   2.423  -0.846  0.00  0.00    +0.044 C 
ATOM     36  C   UNL     1       3.337   3.563  -7.155  0.00  0.00    +0.055 C 
ATOM     37  C   UNL     1       3.057   6.003  -7.631  0.00  0.00    +0.055 C 
ENDBRANCH  23  25
ENDBRANCH  20  21
ENDBRANCH   1  20
TORSDOF 6
