REMARK  Name = ZINC10318148
REMARK  9 active torsions:
REMARK  status: ('A' for Active; 'I' for Inactive)
REMARK    1  A    between atoms: C_1  and  C_2
REMARK    2  A    between atoms: C_3  and  N_9
REMARK    3  A    between atoms: C_10  and  C_26
REMARK    4  A    between atoms: C_13  and  S_14
REMARK    5  A    between atoms: S_14  and  C_15
REMARK    6  A    between atoms: C_15  and  C_17
REMARK    7  A    between atoms: C_15  and  C_20
REMARK    8  A    between atoms: C_17  and  C_18
REMARK    9  A    between atoms: C_17  and  C_19
REMARK                            x       y       z     vdW  Elec       q    Type
REMARK                         _______ _______ _______ _____ _____    ______ ____
ROOT
ATOM      1  N   UNL     1       3.546   2.293  -0.026  0.00  0.00    -0.270 N 
ATOM      2  C   UNL     1       4.116   2.954  -1.093  0.00  0.00    +0.169 A 
ATOM      3  N   UNL     1       5.101   3.679  -0.616  0.00  0.00    -0.128 NA
ATOM      4  N   UNL     1       5.186   3.522   0.656  0.00  0.00    -0.122 NA
ATOM      5  C   UNL     1       4.256   2.689   1.073  0.00  0.00    +0.197 A 
ENDROOT
BRANCH   1   8
ATOM      6  C   UNL     1       0.925   3.360   0.283  0.00  0.00    +0.047 C 
ATOM      7  C   UNL     1       1.167   1.885   0.087  0.00  0.00    -0.008 A 
ATOM      8  C   UNL     1       2.462   1.406  -0.060  0.00  0.00    +0.055 A 
ATOM      9  C   UNL     1       2.680   0.047  -0.241  0.00  0.00    +0.026 A 
ATOM     10  C   UNL     1       1.609  -0.825  -0.273  0.00  0.00    +0.003 A 
ATOM     11  C   UNL     1       0.321  -0.347  -0.126  0.00  0.00    +0.020 A 
ATOM     12  C   UNL     1       0.099   1.008   0.054  0.00  0.00    +0.046 A 
ATOM     13 CL   UNL     1      -1.521   1.606   0.230  0.00  0.00    -0.083 Cl
ENDBRANCH   1   8
BRANCH   2  14
ATOM     14  C   UNL     1       3.699   2.862  -2.508  0.00  0.00    +0.022 A 
ATOM     15  C   UNL     1       2.856   1.831  -2.944  0.00  0.00    +0.031 A 
ATOM     16  C   UNL     1       2.488   1.786  -4.272  0.00  0.00    +0.111 A 
ATOM     17  N   UNL     1       2.926   2.691  -5.128  0.00  0.00    -0.263 NA
ATOM     18  C   UNL     1       3.724   3.675  -4.760  0.00  0.00    +0.111 A 
ATOM     19  C   UNL     1       4.138   3.799  -3.450  0.00  0.00    +0.031 A 
ENDBRANCH   2  14
BRANCH   5  20
ATOM     20  S   UNL     1       3.981   2.177   2.736  0.00  0.00    -0.073 S 
BRANCH  20  21
ATOM     21  C   UNL     1       5.372   2.997   3.552  0.00  0.00    +0.143 C 
BRANCH  21  22
ATOM     22  C   UNL     1       6.662   2.352   3.115  0.00  0.00    +0.234 C 
ATOM     23  O   UNL     1       6.652   1.237   2.639  0.00  0.00    -0.274 OA
ATOM     24  N   UNL     1       7.828   3.015   3.253  0.00  0.00    -0.239 N 
ATOM     25  C   UNL     1       8.981   2.438   2.862  0.00  0.00    +0.303 C 
ATOM     26  O   UNL     1       8.970   1.320   2.385  0.00  0.00    -0.253 OA
ATOM     27  N   UNL     1      10.147   3.100   3.000  0.00  0.00    -0.313 N 
ATOM     28  H   UNL     1       7.836   3.907   3.634  0.00  0.00    +0.159 HD
ATOM     29  H   UNL     1      10.155   3.993   3.381  0.00  0.00    +0.146 HD
ATOM     30  H   UNL     1      10.977   2.685   2.719  0.00  0.00    +0.146 HD
ENDBRANCH  21  22
BRANCH  21  31
ATOM     31  C   UNL     1       5.224   2.864   5.069  0.00  0.00    +0.005 C 
ATOM     32  C   UNL     1       6.409   3.544   5.759  0.00  0.00    +0.009 C 
ATOM     33  C   UNL     1       3.922   3.532   5.515  0.00  0.00    +0.009 C 
ENDBRANCH  21  31
ENDBRANCH  20  21
ENDBRANCH   5  20
TORSDOF 6
