REMARK  Name = ZINC34601541
REMARK  10 active torsions:
REMARK  status: ('A' for Active; 'I' for Inactive)
REMARK    1  A    between atoms: C_1  and  C_2
REMARK    2  A    between atoms: C_2  and  C_4
REMARK    3  A    between atoms: C_2  and  C_12
REMARK    4  A    between atoms: C_4  and  C_5
REMARK    5  A    between atoms: C_5  and  C_6
REMARK    6  A    between atoms: C_8  and  C_10
REMARK    7  A    between atoms: C_8  and  C_11
REMARK    8  A    between atoms: C_18  and  C_36
REMARK    9  A    between atoms: C_28  and  C_35
REMARK   10  A    between atoms: C_31  and  O_34
REMARK                            x       y       z     vdW  Elec       q    Type
REMARK                         _______ _______ _______ _____ _____    ______ ____
ROOT
ATOM      1  C   UNL     1      -1.330  -0.705   0.166  0.00  0.00    -0.002 C 
ATOM      2  C   UNL     1      -0.956  -2.199   0.354  0.00  0.00    +0.004 C 
ATOM      3  C   UNL     1      -1.395  -2.929  -0.947  0.00  0.00    +0.004 C 
ATOM      4  C   UNL     1      -1.517  -1.766  -1.950  0.00  0.00    -0.001 C 
ATOM      5  C   UNL     1      -2.228  -0.702  -1.087  0.00  0.00    -0.026 C 
ATOM      6  C   UNL     1      -2.344   0.593  -1.838  0.00  0.00    +0.007 C 
ATOM      7  C   UNL     1      -2.886   0.385  -3.259  0.00  0.00    +0.005 C 
ATOM      8  C   UNL     1      -3.326  -1.039  -3.542  0.00  0.00    +0.003 C 
ATOM      9  C   UNL     1      -2.228  -2.058  -3.234  0.00  0.00    +0.000 C 
ATOM     10  C   UNL     1      -2.876  -3.448  -3.246  0.00  0.00    +0.031 C 
ATOM     11  C   UNL     1      -3.507  -3.647  -4.598  0.00  0.00    -0.027 C 
ATOM     12  C   UNL     1      -3.872  -2.668  -5.367  0.00  0.00    -0.065 C 
ATOM     13  C   UNL     1      -3.758  -1.210  -4.997  0.00  0.00    -0.008 C 
ATOM     14  C   UNL     1      -2.805  -0.535  -5.974  0.00  0.00    +0.014 C 
ATOM     15  C   UNL     1      -2.486  -1.474  -7.138  0.00  0.00    +0.032 C 
ATOM     16  C   UNL     1      -3.743  -2.081  -7.752  0.00  0.00    +0.119 C 
ATOM     17  C   UNL     1      -4.463  -2.972  -6.733  0.00  0.00    +0.062 C 
ATOM     18  C   UNL     1      -5.142  -0.567  -5.139  0.00  0.00    +0.016 C 
ATOM     19  C   UNL     1      -3.608  -1.170  -0.604  0.00  0.00    +0.012 C 
ENDROOT
BRANCH   1  21
ATOM     20  C   UNL     1       0.804   0.027   1.226  0.00  0.00    +0.008 C 
ATOM     21  C   UNL     1      -0.073   0.134  -0.023  0.00  0.00    -0.010 C 
BRANCH  21  22
ATOM     22  C   UNL     1       0.704  -0.378  -1.237  0.00  0.00    +0.006 C 
BRANCH  22  23
ATOM     23  C   UNL     1       2.074   0.303  -1.290  0.00  0.00    +0.035 C 
BRANCH  23  24
ATOM     24  C   UNL     1       2.851  -0.209  -2.504  0.00  0.00    +0.150 C 
ATOM     25  C   UNL     1       4.220   0.412  -2.789  0.00  0.00    +0.090 C 
ATOM     26  O   UNL     1       4.073  -0.911  -2.265  0.00  0.00    -0.365 OA
ATOM     27  C   UNL     1       4.647   0.557  -4.250  0.00  0.00    +0.044 C 
ATOM     28  C   UNL     1       4.718   1.504  -1.839  0.00  0.00    +0.044 C 
ENDBRANCH  23  24
ENDBRANCH  22  23
ENDBRANCH  21  22
ENDBRANCH   1  21
BRANCH  16  29
ATOM     29  O   UNL     1      -4.618  -1.043  -8.196  0.00  0.00    -0.391 OA
ATOM     30  H   UNL     1      -5.437  -1.364  -8.597  0.00  0.00    +0.210 HD
ENDBRANCH  16  29
TORSDOF 5
