REMARK  Name = ZINC04283337
REMARK  11 active torsions:
REMARK  status: ('A' for Active; 'I' for Inactive)
REMARK    1  A    between atoms: C_1  and  C_2
REMARK    2  A    between atoms: C_2  and  C_3
REMARK    3  A    between atoms: C_9  and  C_10
REMARK    4  A    between atoms: C_9  and  N_63
REMARK    5  A    between atoms: C_11  and  O_35
REMARK    6  A    between atoms: C_17  and  C_31
REMARK    7  A    between atoms: C_18  and  C_21
REMARK    8  A    between atoms: C_24  and  O_29
REMARK    9  A    between atoms: C_25  and  O_27
REMARK   10  A    between atoms: O_27  and  C_28
REMARK   11  A    between atoms: O_29  and  C_30
REMARK                            x       y       z     vdW  Elec       q    Type
REMARK                         _______ _______ _______ _____ _____    ______ ____
ROOT
ATOM      1  C   UNL     1       6.352  -1.459   0.005  0.00  0.00    +0.020 A 
ATOM      2  C   UNL     1       7.367  -1.686  -0.908  0.00  0.00    +0.122 A 
ATOM      3  C   UNL     1       7.323  -1.110  -2.176  0.00  0.00    +0.046 A 
ATOM      4  C   UNL     1       6.275  -0.311  -2.534  0.00  0.00    +0.019 A 
ATOM      5  C   UNL     1       5.245  -0.071  -1.624  0.00  0.00    +0.065 A 
ATOM      6  C   UNL     1       5.279  -0.648  -0.342  0.00  0.00    +0.144 A 
ATOM      7  O   UNL     1       4.284  -0.414   0.536  0.00  0.00    -0.450 OA
ATOM      8  C   UNL     1       3.231   0.360   0.262  0.00  0.00    +0.219 A 
ATOM      9  C   UNL     1       3.068   0.973  -0.939  0.00  0.00    +0.077 A 
ATOM     10  C   UNL     1       4.098   0.786  -1.975  0.00  0.00    +0.201 A 
ATOM     11  O   UNL     1       4.008   1.316  -3.069  0.00  0.00    -0.286 OA
ENDROOT
BRANCH   9  12
ATOM     12  C   UNL     1       1.878   1.819  -1.200  0.00  0.00    -0.007 A 
ATOM     13  C   UNL     1       0.607   1.246  -1.231  0.00  0.00    +0.012 A 
ATOM     14  C   UNL     1      -0.499   2.033  -1.480  0.00  0.00    +0.050 A 
ATOM     15  C   UNL     1      -0.351   3.396  -1.687  0.00  0.00    +0.162 A 
ATOM     16  C   UNL     1       0.915   3.973  -1.657  0.00  0.00    +0.162 A 
ATOM     17  C   UNL     1       2.028   3.188  -1.415  0.00  0.00    +0.058 A 
BRANCH  16  18
ATOM     18  O   UNL     1       1.059   5.309  -1.866  0.00  0.00    -0.491 OA
ATOM     19  C   UNL     1       2.387   5.834  -1.821  0.00  0.00    +0.277 C 
ENDBRANCH  16  18
BRANCH  15  20
ATOM     20  O   UNL     1      -1.444   4.169  -1.926  0.00  0.00    -0.491 OA
ATOM     21  C   UNL     1      -2.713   3.511  -1.943  0.00  0.00    +0.277 C 
ENDBRANCH  15  20
ENDBRANCH   9  12
BRANCH   8  22
ATOM     22  C   UNL     1       2.180   0.556   1.324  0.00  0.00    +0.451 C 
ATOM     23  F   UNL     1       1.203  -0.438   1.202  0.00  0.00    -0.163 F 
ATOM     24  F   UNL     1       2.773   0.474   2.588  0.00  0.00    -0.163 F 
ATOM     25  F   UNL     1       1.587   1.813   1.167  0.00  0.00    -0.163 F 
ENDBRANCH   8  22
BRANCH   2  26
ATOM     26  O   UNL     1       8.415  -2.479  -0.566  0.00  0.00    -0.506 OA
ATOM     27  H   UNL     1       9.152  -2.003  -0.161  0.00  0.00    +0.292 HD
ENDBRANCH   2  26
BRANCH   1  28
ATOM     28  C   UNL     1       6.411  -2.088   1.373  0.00  0.00    -0.035 C 
BRANCH  28  34
ATOM     29  C   UNL     1       7.097  -1.721   3.666  0.00  0.00    -0.068 C 
ATOM     30  C   UNL     1       7.703  -0.692   4.623  0.00  0.00    -0.015 C 
ATOM     31  C   UNL     1       9.139  -0.384   4.190  0.00  0.00    -0.003 C 
ATOM     32  C   UNL     1       9.131   0.125   2.746  0.00  0.00    -0.019 C 
ATOM     33  C   UNL     1       8.483  -0.927   1.843  0.00  0.00    -0.078 C 
ATOM     34  N   UNL     1       7.095  -1.161   2.297  0.00  0.00    +0.384 N 
ATOM     35  H   UNL     1       6.592  -0.266   2.305  0.00  0.00    -0.081 HD
BRANCH  29  37
ATOM     36  C   UNL     1       5.649  -2.681   5.461  0.00  0.00    +0.002 C 
ATOM     37  C   UNL     1       5.655  -2.017   4.083  0.00  0.00    -0.019 C 
ENDBRANCH  29  37
ENDBRANCH  28  34
ENDBRANCH   1  28
TORSDOF 8
