REMARK  Name = ZINC05635460
REMARK  4 active torsions:
REMARK  status: ('A' for Active; 'I' for Inactive)
REMARK    1  A    between atoms: C_4  and  C_7
REMARK    2  A    between atoms: C_9  and  C_13
REMARK    3  A    between atoms: N_15  and  N_16
REMARK    4  A    between atoms: C_17  and  C_18
REMARK                            x       y       z     vdW  Elec       q    Type
REMARK                         _______ _______ _______ _____ _____    ______ ____
ROOT
ATOM      1  C   UNL     1      -1.142   1.914   0.017  0.00  0.00    +0.093 A 
ATOM      2  C   UNL     1      -0.013   1.076   0.008  0.00  0.00    +0.062 A 
ATOM      3  C   UNL     1       1.075   1.929   0.002  0.00  0.00    +0.122 A 
ATOM      4  N   UNL     1       0.570   3.199   0.014  0.00  0.00    -0.272 N 
ATOM      5  H   UNL     1       1.118   4.036   0.013  0.00  0.00    +0.189 HD
ATOM      6  N   UNL     1      -0.714   3.159   0.026  0.00  0.00    -0.173 NA
ENDROOT
BRANCH   1  10
ATOM      7  C   UNL     1      -5.205   0.655   0.024  0.00  0.00    +0.000 A 
ATOM      8  C   UNL     1      -4.901   2.005   0.031  0.00  0.00    +0.001 A 
ATOM      9  C   UNL     1      -3.585   2.419   0.029  0.00  0.00    +0.010 A 
ATOM     10  C   UNL     1      -2.560   1.475   0.020  0.00  0.00    +0.002 A 
ATOM     11  C   UNL     1      -2.871   0.117   0.007  0.00  0.00    +0.010 A 
ATOM     12  C   UNL     1      -4.191  -0.286   0.015  0.00  0.00    +0.001 A 
ENDBRANCH   1  10
BRANCH   3  13
ATOM     13  C   UNL     1       2.495   1.546  -0.013  0.00  0.00    +0.281 C 
ATOM     14  O   UNL     1       2.808   0.370  -0.023  0.00  0.00    -0.267 OA
ATOM     15  N   UNL     1       3.450   2.498  -0.018  0.00  0.00    -0.202 N 
ATOM     16  H   UNL     1       3.200   3.435  -0.010  0.00  0.00    +0.178 HD
BRANCH  15  17
ATOM     17  N   UNL     1       4.802   2.133  -0.032  0.00  0.00    -0.187 NA
ATOM     18  C   UNL     1       5.724   3.051  -0.036  0.00  0.00    +0.145 C 
BRANCH  18  19
ATOM     19  C   UNL     1       7.139   2.670  -0.052  0.00  0.00    +0.033 A 
ATOM     20  C   UNL     1       8.261   3.480  -0.058  0.00  0.00    +0.018 A 
ATOM     21  C   UNL     1       9.500   2.882  -0.072  0.00  0.00    +0.028 A 
ATOM     22  C   UNL     1       9.582   1.524  -0.080  0.00  0.00    +0.079 A 
ATOM     23  S   UNL     1       7.865   1.039  -0.060  0.00  0.00    -0.076 S 
ATOM     24 CL   UNL     1      10.998   0.520  -0.097  0.00  0.00    -0.076 Cl
ENDBRANCH  18  19
ENDBRANCH  15  17
ENDBRANCH   3  13
TORSDOF 4
