REMARK  Name = ZINC60205398
REMARK  5 active torsions:
REMARK  status: ('A' for Active; 'I' for Inactive)
REMARK    1  A    between atoms: C_1  and  C_2
REMARK    2  A    between atoms: C_2  and  C_32
REMARK    3  A    between atoms: C_5  and  N_13
REMARK    4  A    between atoms: C_14  and  C_16
REMARK    5  A    between atoms: C_16  and  N_17
REMARK                            x       y       z     vdW  Elec       q    Type
REMARK                         _______ _______ _______ _____ _____    ______ ____
ROOT
ATOM      1  C   UNL     1       3.228  -5.733   0.939  0.00  0.00    +0.213 C 
ENDROOT
BRANCH   1   2
ATOM      2  N   UNL     1       4.557  -6.074   1.454  0.00  0.00    -0.215 N 
ATOM      3  C   UNL     1       5.605  -6.425   0.678  0.00  0.00    +0.251 C 
ATOM      4  O   UNL     1       5.629  -6.516  -0.530  0.00  0.00    -0.272 OA
ATOM      5  C   UNL     1       6.739  -6.679   1.637  0.00  0.00    +0.138 C 
ATOM      6  C   UNL     1       7.256  -8.119   1.518  0.00  0.00    +0.045 C 
ATOM      7  C   UNL     1       8.760  -7.952   1.833  0.00  0.00    +0.038 C 
ATOM      8  C   UNL     1       9.086  -6.519   1.466  0.00  0.00    -0.042 A 
ATOM      9  C   UNL     1       7.917  -5.786   1.355  0.00  0.00    -0.012 A 
ATOM     10  C   UNL     1       7.979  -4.442   1.027  0.00  0.00    +0.006 A 
ATOM     11  C   UNL     1       9.199  -3.833   0.810  0.00  0.00    +0.000 A 
ATOM     12  C   UNL     1      10.365  -4.566   0.920  0.00  0.00    +0.000 A 
ATOM     13  C   UNL     1      10.308  -5.906   1.248  0.00  0.00    +0.004 A 
ATOM     14  N   UNL     1       6.168  -6.425   2.960  0.00  0.00    -0.281 N 
ATOM     15  C   UNL     1       4.884  -6.070   2.753  0.00  0.00    +0.310 C 
ATOM     16  O   UNL     1       4.110  -5.782   3.645  0.00  0.00    -0.252 OA
ATOM     17  H   UNL     1       6.623  -6.495   3.814  0.00  0.00    +0.152 HD
ENDBRANCH   1   2
BRANCH   1  19
ATOM     18  N   UNL     1       2.027  -3.710   0.177  0.00  0.00    -0.307 N 
ATOM     19  C   UNL     1       3.161  -4.254   0.660  0.00  0.00    +0.231 C 
ATOM     20  O   UNL     1       4.128  -3.553   0.872  0.00  0.00    -0.274 OA
ATOM     21  H   UNL     1       1.254  -4.271   0.008  0.00  0.00    +0.149 HD
BRANCH  18  26
ATOM     22  C   UNL     1      -0.019   1.526   0.010  0.00  0.00    +0.016 C 
ATOM     23  C   UNL     1       0.002  -0.004   0.002  0.00  0.00    -0.009 C 
ATOM     24  C   UNL     1       0.694  -0.491  -1.270  0.00  0.00    +0.013 C 
ATOM     25  C   UNL     1       0.899  -2.007  -1.158  0.00  0.00    +0.028 C 
ATOM     26  C   UNL     1       1.962  -2.271  -0.094  0.00  0.00    +0.104 C 
ATOM     27  C   UNL     1       1.629  -1.541   1.181  0.00  0.00    -0.024 A 
ATOM     28  C   UNL     1       0.732  -0.498   1.224  0.00  0.00    -0.037 A 
ATOM     29  C   UNL     1       0.474   0.138   2.432  0.00  0.00    +0.004 A 
ATOM     30  C   UNL     1       1.106  -0.271   3.588  0.00  0.00    +0.000 A 
ATOM     31  C   UNL     1       2.004  -1.321   3.545  0.00  0.00    +0.000 A 
ATOM     32  C   UNL     1       2.263  -1.952   2.346  0.00  0.00    +0.006 A 
ATOM     33  C   UNL     1      -1.435  -0.528   0.026  0.00  0.00    +0.016 C 
ENDBRANCH  18  26
ENDBRANCH   1  19
TORSDOF 3
