REMARK  Name = ZINC15352800
REMARK  7 active torsions:
REMARK  status: ('A' for Active; 'I' for Inactive)
REMARK    1  A    between atoms: C_1  and  O_2
REMARK    2  A    between atoms: O_2  and  C_3
REMARK    3  A    between atoms: C_5  and  C_12
REMARK    4  A    between atoms: C_8  and  O_9
REMARK    5  A    between atoms: O_9  and  C_10
REMARK    6  A    between atoms: C_13  and  C_14
REMARK    7  A    between atoms: C_20  and  C_25
REMARK                            x       y       z     vdW  Elec       q    Type
REMARK                         _______ _______ _______ _____ _____    ______ ____
ROOT
ATOM      1  C   UNL     1       2.369   0.030  -0.126  0.00  0.00    +0.153 A 
ATOM      2  N   UNL     1       1.197  -0.668  -0.278  0.00  0.00    -0.306 N 
ATOM      3  H   UNL     1       1.229  -1.626  -0.426  0.00  0.00    +0.170 HD
ATOM      4  C   UNL     1       0.005  -0.045  -0.223  0.00  0.00    +0.261 A 
ATOM      5  O   UNL     1      -1.028  -0.678  -0.359  0.00  0.00    -0.267 OA
ATOM      6  C   UNL     1      -0.034   1.368  -0.004  0.00  0.00    +0.080 A 
ATOM      7  C   UNL     1      -1.191   2.252   0.087  0.00  0.00    +0.010 A 
ATOM      8  C   UNL     1      -0.985   3.575   0.306  0.00  0.00    +0.057 A 
ATOM      9  S   UNL     1       0.790   3.709   0.391  0.00  0.00    -0.076 S 
ATOM     10  C   UNL     1       1.213   2.004   0.140  0.00  0.00    +0.116 A 
ATOM     11  N   UNL     1       2.356   1.335   0.077  0.00  0.00    -0.221 NA
ENDROOT
BRANCH   7  12
ATOM     12  C   UNL     1      -2.561   1.716  -0.052  0.00  0.00    +0.021 A 
ATOM     13  C   UNL     1      -3.647   1.901   0.761  0.00  0.00    +0.016 A 
ATOM     14  C   UNL     1      -4.839   1.296   0.422  0.00  0.00    +0.008 A 
ATOM     15  C   UNL     1      -4.897   0.530  -0.696  0.00  0.00    +0.046 A 
ATOM     16  S   UNL     1      -3.229   0.652  -1.321  0.00  0.00    -0.097 S 
ENDBRANCH   7  12
BRANCH   1  18
ATOM     17  C   UNL     1       4.804   0.000  -0.043  0.00  0.00    +0.031 C 
ATOM     18  C   UNL     1       3.647  -0.679  -0.191  0.00  0.00    +0.084 C 
ATOM     19 CL   UNL     1       3.675  -2.394  -0.459  0.00  0.00    -0.080 Cl
BRANCH  17  22
ATOM     20  C   UNL     1       8.444  -0.852  -0.368  0.00  0.00    +0.164 A 
ATOM     21  C   UNL     1       7.250  -0.163  -0.460  0.00  0.00    +0.057 A 
ATOM     22  C   UNL     1       6.078  -0.729   0.052  0.00  0.00    -0.018 A 
ATOM     23  C   UNL     1       6.122  -1.988   0.660  0.00  0.00    +0.032 A 
ATOM     24  C   UNL     1       7.317  -2.672   0.743  0.00  0.00    +0.087 A 
ATOM     25  C   UNL     1       8.480  -2.109   0.233  0.00  0.00    +0.180 A 
ATOM     26 CL   UNL     1       7.369  -4.238   1.491  0.00  0.00    -0.080 Cl
BRANCH  20  28
ATOM     27  C   UNL     1       9.476   0.987  -1.468  0.00  0.00    +0.277 C 
ATOM     28  O   UNL     1       9.585  -0.304  -0.865  0.00  0.00    -0.491 OA
ENDBRANCH  20  28
BRANCH  25  29
ATOM     29  O   UNL     1       9.655  -2.784   0.322  0.00  0.00    -0.490 OA
ATOM     30  C   UNL     1      10.445  -2.561   1.492  0.00  0.00    +0.277 C 
ENDBRANCH  25  29
ENDBRANCH  17  22
ENDBRANCH   1  18
TORSDOF 5
