REMARK  Name = ZINC36572825
REMARK  19 active torsions:
REMARK  status: ('A' for Active; 'I' for Inactive)
REMARK    1  A    between atoms: C_1  and  C_2
REMARK    2  A    between atoms: C_2  and  C_3
REMARK    3  A    between atoms: C_3  and  N_4
REMARK    4  A    between atoms: N_4  and  C_5
REMARK    5  A    between atoms: C_5  and  C_7
REMARK    6  A    between atoms: C_5  and  C_16
REMARK    7  A    between atoms: C_8  and  O_15
REMARK    8  A    between atoms: C_10  and  O_14
REMARK    9  A    between atoms: C_12  and  O_13
REMARK   10  A    between atoms: N_18  and  C_19
REMARK   11  A    between atoms: C_19  and  C_20
REMARK   12  A    between atoms: C_19  and  C_21
REMARK   13  A    between atoms: C_19  and  C_22
REMARK   14  A    between atoms: C_22  and  C_23
REMARK   15  A    between atoms: C_23  and  C_24
REMARK   16  A    between atoms: C_23  and  C_25
REMARK   17  A    between atoms: C_23  and  C_26
REMARK   18  A    between atoms: C_27  and  C_29
REMARK   19  A    between atoms: C_29  and  C_30
REMARK                            x       y       z     vdW  Elec       q    Type
REMARK                         _______ _______ _______ _____ _____    ______ ____
ROOT
ATOM      1  C   UNL     1      -1.911  -2.593   2.776  0.00  0.00    +0.199 C 
ENDROOT
BRANCH   1   2
ATOM      2  C   UNL     1      -2.931  -2.555   3.885  0.00  0.00    +0.065 A 
ATOM      3  C   UNL     1      -3.624  -3.705   4.229  0.00  0.00    +0.129 A 
ATOM      4  C   UNL     1      -4.562  -3.670   5.250  0.00  0.00    +0.091 A 
ATOM      5  C   UNL     1      -4.807  -2.484   5.926  0.00  0.00    +0.124 A 
ATOM      6  C   UNL     1      -4.114  -1.334   5.582  0.00  0.00    +0.091 A 
ATOM      7  C   UNL     1      -3.172  -1.370   4.564  0.00  0.00    +0.129 A 
BRANCH   7   8
ATOM      8  O   UNL     1      -2.489  -0.244   4.230  0.00  0.00    -0.506 OA
ATOM      9  H   UNL     1      -2.919   0.290   3.548  0.00  0.00    +0.292 HD
ENDBRANCH   7   8
BRANCH   5  10
ATOM     10  O   UNL     1      -5.728  -2.450   6.925  0.00  0.00    -0.507 OA
ATOM     11  H   UNL     1      -5.365  -2.644   7.800  0.00  0.00    +0.292 HD
ENDBRANCH   5  10
BRANCH   3  12
ATOM     12  O   UNL     1      -3.384  -4.867   3.567  0.00  0.00    -0.506 OA
ATOM     13  H   UNL     1      -2.740  -5.443   4.003  0.00  0.00    +0.292 HD
ENDBRANCH   3  12
ENDBRANCH   1   2
BRANCH   1  14
ATOM     14  C   UNL     1      -0.531  -2.725   3.367  0.00  0.00    +0.239 C 
ATOM     15  O   UNL     1       0.301  -1.866   3.163  0.00  0.00    -0.273 OA
ATOM     16  N   UNL     1      -0.221  -3.798   4.122  0.00  0.00    -0.308 N 
ATOM     17  H   UNL     1      -0.886  -4.485   4.285  0.00  0.00    +0.149 HD
BRANCH  16  18
ATOM     18  C   UNL     1       1.121  -3.926   4.696  0.00  0.00    +0.030 C 
ATOM     19  C   UNL     1       2.099  -4.378   3.611  0.00  0.00    +0.031 C 
ATOM     20  C   UNL     1       1.568  -2.574   5.255  0.00  0.00    +0.031 C 
BRANCH  18  21
ATOM     21  C   UNL     1       1.096  -4.960   5.824  0.00  0.00    +0.031 C 
BRANCH  21  22
ATOM     22  C   UNL     1      -0.207  -4.822   6.614  0.00  0.00    -0.036 C 
ATOM     23  C   UNL     1      -1.336  -5.531   5.864  0.00  0.00    +0.010 C 
ATOM     24  C   UNL     1      -0.036  -5.456   7.995  0.00  0.00    +0.010 C 
ATOM     25  C   UNL     1      -0.553  -3.340   6.772  0.00  0.00    +0.010 C 
ENDBRANCH  21  22
ENDBRANCH  18  21
ENDBRANCH  16  18
ENDBRANCH   1  14
BRANCH   1  26
ATOM     26  N   UNL     1      -1.991  -1.356   1.995  0.00  0.00    -0.285 N 
ATOM     27  C   UNL     1      -3.058  -1.127   1.203  0.00  0.00    +0.221 C 
ATOM     28  O   UNL     1      -3.950  -1.945   1.137  0.00  0.00    -0.275 OA
BRANCH  26  29
ATOM     29  C   UNL     1      -0.913  -0.367   2.076  0.00  0.00    +0.108 C 
BRANCH  29  31
ATOM     30  C   UNL     1       1.230   0.402   1.048  0.00  0.00    +0.005 C 
ATOM     31  C   UNL     1       0.112  -0.639   0.972  0.00  0.00    +0.016 C 
ENDBRANCH  29  31
ENDBRANCH  26  29
BRANCH  27  32
ATOM     32  C   UNL     1      -3.140   0.146   0.400  0.00  0.00    +0.131 C 
BRANCH  32  33
ATOM     33  C   UNL     1      -4.421   0.156  -0.394  0.00  0.00    -0.035 A 
ATOM     34  C   UNL     1      -4.447  -0.383  -1.667  0.00  0.00    +0.008 A 
ATOM     35  C   UNL     1      -5.619  -0.377  -2.400  0.00  0.00    +0.050 A 
ATOM     36  C   UNL     1      -6.771   0.171  -1.860  0.00  0.00    +0.166 A 
ATOM     37  C   UNL     1      -6.745   0.714  -0.578  0.00  0.00    +0.166 A 
ATOM     38  C   UNL     1      -5.568   0.699   0.153  0.00  0.00    +0.053 A 
ATOM     39  O   UNL     1      -7.991   1.184  -0.278  0.00  0.00    -0.453 OA
ATOM     40  C   UNL     1      -8.675   1.293  -1.540  0.00  0.00    +0.466 C 
ATOM     41  O   UNL     1      -8.033   0.301  -2.363  0.00  0.00    -0.453 OA
ENDBRANCH  32  33
ENDBRANCH  27  32
ENDBRANCH   1  26
TORSDOF 13
