REMARK  Name = ZINC08870889
REMARK  6 active torsions:
REMARK  status: ('A' for Active; 'I' for Inactive)
REMARK    1  A    between atoms: C_3  and  S_8
REMARK    2  A    between atoms: S_8  and  N_11
REMARK    3  A    between atoms: N_11  and  C_12
REMARK    4  A    between atoms: C_14  and  S_20
REMARK    5  A    between atoms: C_15  and  O_19
REMARK    6  A    between atoms: S_20  and  C_21
REMARK                            x       y       z     vdW  Elec       q    Type
REMARK                         _______ _______ _______ _____ _____    ______ ____
ROOT
ATOM      1  C   UNL     1       4.754   1.512   2.408  0.00  0.00    +0.050 A 
ATOM      2  C   UNL     1       4.241   1.427   3.695  0.00  0.00    +0.043 A 
ATOM      3  C   UNL     1       4.468   0.291   4.457  0.00  0.00    +0.060 A 
ATOM      4  C   UNL     1       5.210  -0.763   3.928  0.00  0.00    +0.145 A 
ATOM      5  C   UNL     1       5.720  -0.674   2.643  0.00  0.00    +0.062 A 
ATOM      6  C   UNL     1       5.488   0.458   1.882  0.00  0.00    +0.043 A 
ATOM      7 BR   UNL     1       6.727  -2.105   1.926  0.00  0.00    -0.046 Br
ENDROOT
BRANCH   1   8
ATOM      8  N   UNL     1       4.526   2.658   1.638  0.00  0.00    -0.216 N 
ATOM      9  H   UNL     1       4.639   3.537   2.032  0.00  0.00    +0.174 HD
BRANCH   8  10
ATOM     10  S   UNL     1       4.063   2.513   0.055  0.00  0.00    +0.072 S 
ATOM     11  O   UNL     1       4.957   1.588  -0.547  0.00  0.00    -0.150 OA
ATOM     12  O   UNL     1       3.887   3.834  -0.439  0.00  0.00    -0.150 OA
BRANCH  10  15
ATOM     13  C   UNL     1       0.085   1.946   0.085  0.00  0.00    +0.040 A 
ATOM     14  C   UNL     1       1.333   2.539   0.093  0.00  0.00    +0.031 A 
ATOM     15  C   UNL     1       2.472   1.756   0.045  0.00  0.00    +0.109 A 
ATOM     16  C   UNL     1       2.363   0.379  -0.011  0.00  0.00    +0.031 A 
ATOM     17  C   UNL     1       1.115  -0.216  -0.020  0.00  0.00    +0.040 A 
ATOM     18  C   UNL     1      -0.025   0.567   0.029  0.00  0.00    +0.124 A 
ATOM     19  F   UNL     1      -1.245  -0.013   0.021  0.00  0.00    -0.205 F 
ENDBRANCH  10  15
ENDBRANCH   8  10
ENDBRANCH   1   8
BRANCH   4  20
ATOM     20  O   UNL     1       5.434  -1.880   4.674  0.00  0.00    -0.505 OA
ATOM     21  H   UNL     1       4.759  -2.564   4.571  0.00  0.00    +0.292 HD
ENDBRANCH   4  20
BRANCH   3  22
ATOM     22  S   UNL     1       3.818   0.180   6.091  0.00  0.00    -0.047 S 
BRANCH  22  23
ATOM     23  C   UNL     1       5.220   0.446   7.126  0.00  0.00    +0.189 A 
ATOM     24  H   UNL     1       4.495   0.150   9.055  0.00  0.00    +0.191 HD
ATOM     25  N   UNL     1       6.432   0.765   6.722  0.00  0.00    -0.209 NA
ATOM     26  C   UNL     1       7.239   0.888   7.777  0.00  0.00    +0.245 A 
ATOM     27  N   UNL     1       6.559   0.650   8.866  0.00  0.00    -0.160 NA
ATOM     28  N   UNL     1       5.241   0.365   8.474  0.00  0.00    -0.254 N 
ENDBRANCH  22  23
ENDBRANCH   3  22
TORSDOF 6
