REMARK  Name = ZINC63812435
REMARK  9 active torsions:
REMARK  status: ('A' for Active; 'I' for Inactive)
REMARK    1  A    between atoms: C_1  and  O_2
REMARK    2  A    between atoms: O_2  and  C_3
REMARK    3  A    between atoms: C_6  and  N_9
REMARK    4  A    between atoms: N_9  and  C_10
REMARK    5  A    between atoms: C_10  and  C_11
REMARK    6  A    between atoms: C_16  and  C_18
REMARK    7  A    between atoms: C_18  and  N_19
REMARK    8  A    between atoms: C_22  and  C_27
REMARK    9  A    between atoms: C_27  and  C_28
REMARK                            x       y       z     vdW  Elec       q    Type
REMARK                         _______ _______ _______ _____ _____    ______ ____
ROOT
ATOM      1  N   UNL     1       3.915  -1.372  -7.514  0.00  0.00    -0.216 N 
ATOM      2  C   UNL     1       3.121  -0.854  -8.472  0.00  0.00    +0.244 C 
ATOM      3  O   UNL     1       1.961  -1.132  -8.691  0.00  0.00    -0.273 OA
ATOM      4  C   UNL     1       3.979   0.147  -9.219  0.00  0.00    +0.165 C 
ATOM      5  N   UNL     1       5.279   0.070  -8.530  0.00  0.00    -0.287 N 
ATOM      6  C   UNL     1       5.141  -0.839  -7.548  0.00  0.00    +0.310 C 
ATOM      7  O   UNL     1       6.032  -1.144  -6.780  0.00  0.00    -0.252 OA
ATOM      8  H   UNL     1       6.078   0.578  -8.741  0.00  0.00    +0.151 HD
ENDROOT
BRANCH   1   9
ATOM      9  C   UNL     1       3.486  -2.389  -6.551  0.00  0.00    +0.214 C 
BRANCH   9  11
ATOM     10  N   UNL     1       2.458  -2.458  -4.302  0.00  0.00    -0.265 N 
ATOM     11  C   UNL     1       2.919  -1.715  -5.328  0.00  0.00    +0.238 C 
ATOM     12  O   UNL     1       2.877  -0.504  -5.267  0.00  0.00    -0.273 OA
BRANCH  10  16
ATOM     13  C   UNL     1       0.618  -0.606  -1.050  0.00  0.00    +0.120 A 
ATOM     14  C   UNL     1       1.849  -1.225  -0.890  0.00  0.00    +0.047 A 
ATOM     15  C   UNL     1       2.458  -1.839  -1.966  0.00  0.00    +0.027 A 
ATOM     16  C   UNL     1       1.840  -1.836  -3.209  0.00  0.00    +0.037 A 
ATOM     17  C   UNL     1       0.608  -1.215  -3.369  0.00  0.00    +0.027 A 
ATOM     18  C   UNL     1      -0.004  -0.607  -2.291  0.00  0.00    +0.047 A 
BRANCH  13  20
ATOM     19  C   UNL     1       0.715  -0.038   1.257  0.00  0.00    +0.277 C 
ATOM     20  O   UNL     1       0.018  -0.002   0.010  0.00  0.00    -0.495 OA
ENDBRANCH  13  20
ENDBRANCH  10  16
BRANCH  10  21
ATOM     21  C   UNL     1       2.604  -3.915  -4.329  0.00  0.00    +0.156 C 
BRANCH  21  22
ATOM     22  C   UNL     1       1.395  -4.529  -4.986  0.00  0.00    +0.007 A 
ATOM     23  C   UNL     1       1.188  -4.816  -6.295  0.00  0.00    +0.013 A 
ATOM     24  C   UNL     1      -0.013  -5.385  -6.674  0.00  0.00    +0.008 A 
ATOM     25  C   UNL     1      -0.949  -5.638  -5.727  0.00  0.00    +0.045 A 
ATOM     26  S   UNL     1      -0.135  -5.073  -4.242  0.00  0.00    -0.100 S 
ENDBRANCH  21  22
ENDBRANCH  10  21
ENDBRANCH   9  11
ENDBRANCH   1   9
BRANCH   4  27
ATOM     27  C   UNL     1       4.121  -0.254 -10.688  0.00  0.00    +0.065 C 
BRANCH  27  28
ATOM     28  C   UNL     1       4.873   0.819 -11.432  0.00  0.00    -0.039 C 
ATOM     29  C   UNL     1       6.200   0.850 -11.693  0.00  0.00    -0.001 A 
ATOM     30  C   UNL     1       7.298  -0.071 -11.373  0.00  0.00    +0.010 A 
ATOM     31  C   UNL     1       8.551   0.237 -11.777  0.00  0.00    +0.001 A 
ATOM     32  C   UNL     1       8.828   1.412 -12.490  0.00  0.00    +0.002 A 
ATOM     33  C   UNL     1       7.872   2.306 -12.821  0.00  0.00    +0.026 A 
ATOM     34  C   UNL     1       6.519   2.083 -12.448  0.00  0.00    +0.043 A 
ATOM     35  N   UNL     1       5.431   2.787 -12.646  0.00  0.00    -0.380 N 
ATOM     36  C   UNL     1       4.297   2.076 -12.043  0.00  0.00    +0.144 C 
ATOM     37  H   UNL     1       5.383   3.634 -13.116  0.00  0.00    +0.160 HD
ENDBRANCH  27  28
ENDBRANCH   4  27
TORSDOF 8
