REMARK  Name = ZINC20978082
REMARK  9 active torsions:
REMARK  status: ('A' for Active; 'I' for Inactive)
REMARK    1  A    between atoms: C_1  and  C_2
REMARK    2  A    between atoms: C_5  and  C_8
REMARK    3  A    between atoms: C_8  and  N_9
REMARK    4  A    between atoms: C_12  and  C_15
REMARK    5  A    between atoms: C_15  and  N_16
REMARK    6  A    between atoms: N_16  and  S_17
REMARK    7  A    between atoms: S_17  and  C_20
REMARK    8  A    between atoms: C_23  and  C_25
REMARK    9  A    between atoms: C_27  and  C_30
REMARK                            x       y       z     vdW  Elec       q    Type
REMARK                         _______ _______ _______ _____ _____    ______ ____
ROOT
ATOM      1  N   UNL     1      -0.698   1.558   1.213  0.00  0.00    -0.189 NA
ATOM      2  H   UNL     1      -1.314   2.469   1.175  0.00  0.00    +0.148 HD
ENDROOT
BRANCH   1   3
ATOM      3  S   UNL     1      -0.356   0.875   2.682  0.00  0.00    +0.065 S 
ATOM      4  O   UNL     1      -1.151   1.557   3.643  0.00  0.00    -0.153 OA
ATOM      5  O   UNL     1      -0.422  -0.533   2.500  0.00  0.00    -0.153 OA
BRANCH   3   6
ATOM      6  C   UNL     1       1.323   1.256   3.056  0.00  0.00    +0.143 A 
ATOM      7  C   UNL     1       1.828   2.327   3.722  0.00  0.00    +0.037 A 
ATOM      8  C   UNL     1       3.189   2.424   3.902  0.00  0.00    +0.020 A 
ATOM      9  C   UNL     1       3.992   1.434   3.402  0.00  0.00    +0.043 A 
ATOM     10  S   UNL     1       2.798   0.330   2.664  0.00  0.00    -0.067 S 
BRANCH   9  11
ATOM     11  C   UNL     1       5.463   1.308   3.463  0.00  0.00    +0.120 A 
ATOM     12  C   UNL     1       6.256   0.250   2.930  0.00  0.00    +0.085 A 
ATOM     13  C   UNL     1       7.522   0.603   3.243  0.00  0.00    +0.240 A 
ATOM     14  O   UNL     1       7.446   1.765   3.908  0.00  0.00    -0.350 OA
ATOM     15  N   UNL     1       6.304   2.145   4.023  0.00  0.00    -0.077 NA
BRANCH  13  16
ATOM     16  C   UNL     1       8.777  -0.164   2.914  0.00  0.00    +0.453 C 
ATOM     17  F   UNL     1       9.268   0.256   1.673  0.00  0.00    -0.163 F 
ATOM     18  F   UNL     1       9.739   0.071   3.901  0.00  0.00    -0.163 F 
ATOM     19  F   UNL     1       8.486  -1.532   2.861  0.00  0.00    -0.163 F 
ENDBRANCH  13  16
ENDBRANCH   9  11
ENDBRANCH   3   6
ENDBRANCH   1   3
BRANCH   1  20
ATOM     20  C   UNL     1      -0.013   1.086   0.008  0.00  0.00    +0.107 C 
BRANCH  20  24
ATOM     21  N   UNL     1      -0.126   2.083  -3.527  0.00  0.00    +0.383 N 
ATOM     22  C   UNL     1      -0.740   3.290  -2.934  0.00  0.00    -0.078 C 
ATOM     23  C   UNL     1      -0.548   3.121  -1.406  0.00  0.00    -0.016 C 
ATOM     24  C   UNL     1      -0.753   1.593  -1.232  0.00  0.00    -0.014 C 
ATOM     25  C   UNL     1      -0.128   1.009  -2.516  0.00  0.00    -0.074 C 
ATOM     26  H   UNL     1       0.908   2.302  -3.831  0.00  0.00    -0.081 HD
BRANCH  21  27
ATOM     27  C   UNL     1      -0.845   1.667  -4.738  0.00  0.00    -0.043 C 
BRANCH  27  32
ATOM     28  C   UNL     1       0.035   5.548  -8.929  0.00  0.00    +0.044 C 
ATOM     29  C   UNL     1      -0.196   4.535  -7.837  0.00  0.00    -0.050 A 
ATOM     30  C   UNL     1       0.663   3.461  -7.698  0.00  0.00    +0.003 A 
ATOM     31  C   UNL     1       0.453   2.533  -6.696  0.00  0.00    +0.002 A 
ATOM     32  C   UNL     1      -0.616   2.679  -5.831  0.00  0.00    -0.064 A 
ATOM     33  C   UNL     1      -1.478   3.751  -5.973  0.00  0.00    +0.002 A 
ATOM     34  C   UNL     1      -1.265   4.681  -6.973  0.00  0.00    +0.003 A 
ENDBRANCH  27  32
ENDBRANCH  21  27
ENDBRANCH  20  24
ENDBRANCH   1  20
TORSDOF 8
