REMARK  Name = ZINC19793140
REMARK  10 active torsions:
REMARK  status: ('A' for Active; 'I' for Inactive)
REMARK    1  A    between atoms: C_1  and  C_2
REMARK    2  A    between atoms: C_4  and  O_10
REMARK    3  A    between atoms: C_6  and  C_9
REMARK    4  A    between atoms: O_10  and  C_11
REMARK    5  A    between atoms: C_17  and  O_37
REMARK    6  A    between atoms: C_18  and  C_26
REMARK    7  A    between atoms: C_21  and  C_22
REMARK    8  A    between atoms: C_26  and  N_27
REMARK    9  A    between atoms: C_29  and  C_36
REMARK   10  A    between atoms: C_32  and  C_35
REMARK                            x       y       z     vdW  Elec       q    Type
REMARK                         _______ _______ _______ _____ _____    ______ ____
ROOT
ATOM      1  C   UNL     1       0.079  -4.875   1.256  0.00  0.00    +0.222 A 
ATOM      2  C   UNL     1       0.058  -4.239  -0.018  0.00  0.00    +0.235 A 
ATOM      3  O   UNL     1       0.057  -4.887  -1.052  0.00  0.00    -0.283 OA
ATOM      4  C   UNL     1       0.038  -2.766  -0.036  0.00  0.00    +0.068 A 
ATOM      5  C   UNL     1       0.018  -2.053  -1.236  0.00  0.00    +0.019 A 
ATOM      6  C   UNL     1      -0.006  -0.688  -1.212  0.00  0.00    +0.046 A 
ATOM      7  C   UNL     1       0.002  -0.004   0.002  0.00  0.00    +0.125 A 
ATOM      8  C   UNL     1       0.023  -0.697   1.201  0.00  0.00    +0.051 A 
ATOM      9  C   UNL     1       0.041  -2.084   1.194  0.00  0.00    +0.147 A 
ATOM     10  O   UNL     1       0.062  -2.783   2.347  0.00  0.00    -0.447 OA
ATOM     11  C   UNL     1       0.080  -4.122   2.374  0.00  0.00    +0.254 A 
ENDROOT
BRANCH  11  12
ATOM     12  C   UNL     1       0.102  -4.817   3.711  0.00  0.00    +0.454 C 
ATOM     13  F   UNL     1       1.428  -5.014   4.112  0.00  0.00    -0.163 F 
ATOM     14  F   UNL     1      -0.559  -4.027   4.658  0.00  0.00    -0.163 F 
ATOM     15  F   UNL     1      -0.542  -6.054   3.605  0.00  0.00    -0.163 F 
ENDBRANCH  11  12
BRANCH   7  16
ATOM     16  O   UNL     1      -0.016   1.353   0.009  0.00  0.00    -0.506 OA
ATOM     17  H   UNL     1      -0.010   1.898   0.965  0.00  0.00    +0.292 HD
ENDBRANCH   7  16
BRANCH   1  18
ATOM     18  O   UNL     1       0.097  -6.233   1.343  0.00  0.00    -0.448 OA
BRANCH  18  22
ATOM     19  C   UNL     1       2.678 -10.368   1.587  0.00  0.00    +0.045 C 
ATOM     20  C   UNL     1       2.603  -8.866   1.491  0.00  0.00    -0.028 A 
ATOM     21  C   UNL     1       1.374  -8.237   1.461  0.00  0.00    +0.051 A 
ATOM     22  C   UNL     1       1.306  -6.854   1.373  0.00  0.00    +0.129 A 
ATOM     23  C   UNL     1       2.473  -6.106   1.308  0.00  0.00    +0.051 A 
ATOM     24  C   UNL     1       3.700  -6.739   1.344  0.00  0.00    -0.028 A 
ATOM     25  C   UNL     1       3.766  -8.118   1.432  0.00  0.00    +0.047 A 
ATOM     26 CL   UNL     1       5.310  -8.912   1.470  0.00  0.00    -0.083 Cl
ATOM     27  C   UNL     1       4.968  -5.927   1.280  0.00  0.00    +0.045 C 
ENDBRANCH  18  22
ENDBRANCH   1  18
BRANCH   8  28
ATOM     28  C   UNL     1       0.025   0.054   2.508  0.00  0.00    +0.127 C 
BRANCH  28  29
ATOM     29  N   UNL     1      -1.359   0.279   2.946  0.00  0.00    -0.293 NA
ATOM     30  C   UNL     1      -2.060   1.189   2.029  0.00  0.00    +0.116 C 
ATOM     31  C   UNL     1      -3.512   1.348   2.487  0.00  0.00    +0.130 C 
ATOM     32  O   UNL     1      -3.531   1.819   3.838  0.00  0.00    -0.371 OA
ATOM     33  C   UNL     1      -2.858   0.956   4.758  0.00  0.00    +0.130 C 
ATOM     34  C   UNL     1      -1.399   0.793   4.322  0.00  0.00    +0.116 C 
ATOM     35  C   UNL     1      -2.907   1.565   6.160  0.00  0.00    +0.039 C 
ATOM     36  C   UNL     1      -4.227   2.356   1.585  0.00  0.00    +0.039 C 
ENDBRANCH  28  29
ENDBRANCH   8  28
TORSDOF 6
