REMARK  Name = ZINC65696833
REMARK  10 active torsions:
REMARK  status: ('A' for Active; 'I' for Inactive)
REMARK    1  A    between atoms: C_1  and  C_2
REMARK    2  A    between atoms: C_2  and  C_3
REMARK    3  A    between atoms: C_2  and  C_4
REMARK    4  A    between atoms: C_2  and  N_5
REMARK    5  A    between atoms: N_5  and  S_6
REMARK    6  A    between atoms: S_6  and  C_9
REMARK    7  A    between atoms: C_14  and  C_15
REMARK    8  A    between atoms: C_15  and  N_16
REMARK    9  A    between atoms: N_19  and  N_20
REMARK   10  A    between atoms: N_20  and  C_21
REMARK                            x       y       z     vdW  Elec       q    Type
REMARK                         _______ _______ _______ _____ _____    ______ ____
ROOT
ATOM      1  C   UNL     1       1.391  -0.071   2.006  0.00  0.00    +0.143 C 
ENDROOT
BRANCH   1   7
ATOM      2  C   UNL     1       2.299  -1.232  -0.017  0.00  0.00    +0.110 A 
ATOM      3  C   UNL     1       3.149  -2.144  -0.615  0.00  0.00    +0.029 A 
ATOM      4  C   UNL     1       4.009  -2.898   0.162  0.00  0.00    +0.002 A 
ATOM      5  C   UNL     1       4.019  -2.739   1.535  0.00  0.00    +0.000 A 
ATOM      6  C   UNL     1       3.170  -1.827   2.132  0.00  0.00    +0.007 A 
ATOM      7  C   UNL     1       2.313  -1.070   1.355  0.00  0.00    -0.004 A 
BRANCH   2   8
ATOM      8  S   UNL     1       1.203  -0.270  -1.007  0.00  0.00    +0.059 S 
ATOM      9  O   UNL     1      -0.088  -0.400  -0.426  0.00  0.00    -0.153 OA
ATOM     10  O   UNL     1       1.467  -0.616  -2.359  0.00  0.00    -0.153 OA
BRANCH   8  11
ATOM     11  N   UNL     1       1.645   1.315  -0.828  0.00  0.00    -0.185 NA
ATOM     12  H   UNL     1       1.038   1.944  -0.409  0.00  0.00    +0.149 HD
BRANCH  11  14
ATOM     13  C   UNL     1       3.105   1.424  -2.788  0.00  0.00    +0.029 C 
ATOM     14  C   UNL     1       2.954   1.769  -1.305  0.00  0.00    +0.032 C 
ATOM     15  C   UNL     1       4.057   1.072  -0.505  0.00  0.00    +0.029 C 
ATOM     16  C   UNL     1       3.069   3.283  -1.119  0.00  0.00    +0.029 C 
ENDBRANCH  11  14
ENDBRANCH   8  11
ENDBRANCH   2   8
ENDBRANCH   1   7
BRANCH   1  17
ATOM     17  N   UNL     1       0.054  -0.655   2.139  0.00  0.00    -0.294 N 
ATOM     18  C   UNL     1      -0.965   0.093   2.607  0.00  0.00    +0.316 C 
ATOM     19  O   UNL     1      -0.796   1.275   2.835  0.00  0.00    -0.251 OA
ATOM     20  N   UNL     1      -2.170  -0.470   2.823  0.00  0.00    -0.220 N 
ATOM     21  H   UNL     1      -0.098  -1.581   1.891  0.00  0.00    +0.151 HD
ATOM     22  H   UNL     1      -2.921   0.081   3.095  0.00  0.00    +0.174 HD
BRANCH  20  23
ATOM     23  N   UNL     1      -2.339  -1.850   2.654  0.00  0.00    -0.263 N 
ATOM     24  H   UNL     1      -1.573  -2.412   2.458  0.00  0.00    +0.170 HD
BRANCH  23  25
ATOM     25  C   UNL     1      -3.612  -2.418   2.768  0.00  0.00    +0.045 A 
ATOM     26  C   UNL     1      -4.710  -1.614   3.043  0.00  0.00    +0.027 A 
ATOM     27  C   UNL     1      -5.966  -2.177   3.156  0.00  0.00    +0.040 A 
ATOM     28  C   UNL     1      -6.131  -3.542   2.995  0.00  0.00    +0.124 A 
ATOM     29  C   UNL     1      -5.038  -4.346   2.720  0.00  0.00    +0.040 A 
ATOM     30  C   UNL     1      -3.780  -3.787   2.601  0.00  0.00    +0.027 A 
ATOM     31  F   UNL     1      -7.361  -4.091   3.106  0.00  0.00    -0.205 F 
ENDBRANCH  23  25
ENDBRANCH  20  23
ENDBRANCH   1  17
TORSDOF 7
