REMARK  Name = ZINC63374525
REMARK  12 active torsions:
REMARK  status: ('A' for Active; 'I' for Inactive)
REMARK    1  A    between atoms: C_1  and  C_2
REMARK    2  A    between atoms: C_2  and  C_3
REMARK    3  A    between atoms: C_2  and  O_4
REMARK    4  A    between atoms: O_4  and  C_5
REMARK    5  A    between atoms: C_8  and  C_13
REMARK    6  A    between atoms: C_10  and  O_11
REMARK    7  A    between atoms: O_11  and  C_12
REMARK    8  A    between atoms: N_20  and  C_35
REMARK    9  A    between atoms: C_23  and  C_34
REMARK   10  A    between atoms: C_35  and  C_36
REMARK   11  A    between atoms: C_36  and  C_37
REMARK   12  A    between atoms: C_37  and  O_38
REMARK                            x       y       z     vdW  Elec       q    Type
REMARK                         _______ _______ _______ _____ _____    ______ ____
ROOT
ATOM      1  C   UNL     1      -2.432  -5.020  -3.255  0.00  0.00    +0.065 C 
ATOM      2  C   UNL     1      -1.761  -6.129  -2.439  0.00  0.00    +0.121 C 
ATOM      3  N   UNL     1      -1.499  -7.334  -3.205  0.00  0.00    -0.283 N 
ATOM      4  C   UNL     1      -1.192  -8.471  -2.494  0.00  0.00    +0.234 C 
ATOM      5  O   UNL     1      -1.276  -8.505  -1.284  0.00  0.00    -0.274 OA
ATOM      6  C   UNL     1      -0.746  -9.677  -3.293  0.00  0.00    +0.203 C 
ATOM      7  N   UNL     1       0.206  -9.229  -4.327  0.00  0.00    -0.291 N 
ATOM      8  C   UNL     1      -0.153  -8.125  -5.049  0.00  0.00    +0.242 C 
ATOM      9  O   UNL     1       0.531  -7.688  -5.950  0.00  0.00    -0.273 OA
ATOM     10  C   UNL     1      -1.460  -7.489  -4.648  0.00  0.00    +0.135 C 
ATOM     11  C   UNL     1      -1.839  -6.301  -5.476  0.00  0.00    +0.139 C 
ATOM     12  C   UNL     1      -1.781  -5.049  -4.615  0.00  0.00    -0.027 C 
ATOM     13  C   UNL     1      -1.084  -4.154  -5.299  0.00  0.00    -0.000 A 
ATOM     14  C   UNL     1      -0.775  -2.739  -5.039  0.00  0.00    +0.010 A 
ATOM     15  C   UNL     1       0.003  -2.115  -5.962  0.00  0.00    +0.001 A 
ATOM     16  C   UNL     1       0.500  -2.749  -7.105  0.00  0.00    +0.002 A 
ATOM     17  C   UNL     1       0.259  -4.045  -7.428  0.00  0.00    +0.026 A 
ATOM     18  C   UNL     1      -0.555  -4.803  -6.538  0.00  0.00    +0.043 A 
ATOM     19  N   UNL     1      -0.946  -6.031  -6.601  0.00  0.00    -0.375 N 
ATOM     20  C   UNL     1      -2.525  -8.539  -4.968  0.00  0.00    +0.044 C 
ATOM     21  H   UNL     1      -0.693  -6.664  -7.292  0.00  0.00    +0.160 HD
ENDROOT
BRANCH   1  25
ATOM     22  C   UNL     1      -1.776  -1.226  -1.394  0.00  0.00    +0.162 A 
ATOM     23  C   UNL     1      -0.699  -2.006  -1.782  0.00  0.00    +0.050 A 
ATOM     24  C   UNL     1      -0.914  -3.232  -2.383  0.00  0.00    +0.008 A 
ATOM     25  C   UNL     1      -2.203  -3.683  -2.599  0.00  0.00    -0.035 A 
ATOM     26  C   UNL     1      -3.282  -2.910  -2.214  0.00  0.00    +0.053 A 
ATOM     27  C   UNL     1      -3.074  -1.682  -1.606  0.00  0.00    +0.162 A 
BRANCH  27  28
ATOM     28  O   UNL     1      -4.134  -0.923  -1.222  0.00  0.00    -0.491 OA
ATOM     29  C   UNL     1      -5.437  -1.455  -1.470  0.00  0.00    +0.277 C 
ENDBRANCH  27  28
BRANCH  22  30
ATOM     30  O   UNL     1      -1.566  -0.019  -0.802  0.00  0.00    -0.486 OA
BRANCH  30  32
ATOM     31  C   UNL     1      -0.166   1.950  -0.774  0.00  0.00    +0.051 C 
ATOM     32  C   UNL     1      -0.212   0.423  -0.694  0.00  0.00    +0.167 C 
ATOM     33  C   UNL     1       0.368  -0.035   0.646  0.00  0.00    +0.051 C 
ENDBRANCH  30  32
ENDBRANCH  22  30
ENDBRANCH   1  25
BRANCH   7  34
ATOM     34  C   UNL     1       1.470  -9.930  -4.567  0.00  0.00    +0.110 C 
BRANCH  34  35
ATOM     35  C   UNL     1       1.256 -11.020  -5.619  0.00  0.00    +0.047 C 
BRANCH  35  36
ATOM     36  C   UNL     1       2.576 -11.752  -5.870  0.00  0.00    +0.157 C 
BRANCH  36  37
ATOM     37  O   UNL     1       2.377 -12.771  -6.852  0.00  0.00    -0.395 OA
ATOM     38  H   UNL     1       3.174 -13.277  -7.061  0.00  0.00    +0.209 HD
ENDBRANCH  36  37
ENDBRANCH  35  36
ENDBRANCH  34  35
ENDBRANCH   7  34
TORSDOF 8
