REMARK  Name = ZINC09502875
REMARK  7 active torsions:
REMARK  status: ('A' for Active; 'I' for Inactive)
REMARK    1  A    between atoms: C_1  and  C_2
REMARK    2  A    between atoms: C_2  and  C_4
REMARK    3  A    between atoms: C_2  and  S_17
REMARK    4  A    between atoms: S_17  and  C_18
REMARK    5  A    between atoms: C_21  and  C_29
REMARK    6  A    between atoms: N_22  and  C_23
REMARK    7  A    between atoms: C_29  and  C_30
REMARK                            x       y       z     vdW  Elec       q    Type
REMARK                         _______ _______ _______ _____ _____    ______ ____
ROOT
ATOM      1  S   UNL     1       1.685   1.712  -0.005  0.00  0.00    -0.073 S 
ENDROOT
BRANCH   1   2
ATOM      2  C   UNL     1       2.330   0.877   1.406  0.00  0.00    +0.193 A 
ATOM      3  N   UNL     1       1.677   0.052   2.191  0.00  0.00    -0.122 NA
ATOM      4  N   UNL     1       2.456  -0.376   3.120  0.00  0.00    -0.133 NA
ATOM      5  C   UNL     1       3.640   0.153   2.990  0.00  0.00    +0.139 A 
ATOM      6  N   UNL     1       3.603   0.970   1.893  0.00  0.00    -0.303 N 
BRANCH   6   7
ATOM      7  C   UNL     1       4.700   1.776   1.353  0.00  0.00    +0.091 C 
ATOM      8  C   UNL     1       4.301   3.253   1.365  0.00  0.00    +0.025 C 
ATOM      9  C   UNL     1       5.447   4.096   0.802  0.00  0.00    +0.002 C 
ATOM     10  C   UNL     1       5.742   3.659  -0.634  0.00  0.00    +0.000 C 
ATOM     11  C   UNL     1       6.142   2.182  -0.646  0.00  0.00    +0.002 C 
ATOM     12  C   UNL     1       4.996   1.339  -0.083  0.00  0.00    +0.025 C 
ENDBRANCH   6   7
BRANCH   5  13
ATOM     13  C   UNL     1       4.830  -0.091   3.882  0.00  0.00    +0.118 C 
BRANCH  13  14
ATOM     14  C   UNL     1       4.832   0.916   5.003  0.00  0.00    -0.003 A 
ATOM     15  C   UNL     1       4.252   0.833   6.225  0.00  0.00    +0.011 A 
ATOM     16  C   UNL     1       4.389   1.890   7.105  0.00  0.00    +0.008 A 
ATOM     17  C   UNL     1       5.091   2.983   6.716  0.00  0.00    +0.045 A 
ATOM     18  S   UNL     1       5.591   2.530   5.063  0.00  0.00    -0.101 S 
ENDBRANCH  13  14
ENDBRANCH   5  13
ENDBRANCH   1   2
BRANCH   1  20
ATOM     19  C   UNL     1      -0.729   1.579   1.267  0.00  0.00    +0.029 C 
ATOM     20  C   UNL     1      -0.013   1.086   0.008  0.00  0.00    +0.137 C 
BRANCH  20  21
ATOM     21  C   UNL     1      -0.742   1.585  -1.213  0.00  0.00    +0.233 C 
ATOM     22  O   UNL     1      -0.327   2.555  -1.812  0.00  0.00    -0.274 OA
ATOM     23  N   UNL     1      -1.854   0.954  -1.639  0.00  0.00    -0.260 N 
ATOM     24  C   UNL     1      -2.373  -0.228  -0.934  0.00  0.00    +0.209 C 
ATOM     25  C   UNL     1      -2.812  -1.253  -1.942  0.00  0.00    +0.235 C 
ATOM     26  O   UNL     1      -2.772  -2.430  -1.654  0.00  0.00    -0.274 OA
ATOM     27  N   UNL     1      -3.246  -0.881  -3.161  0.00  0.00    -0.283 N 
ATOM     28  C   UNL     1      -3.256   0.467  -3.536  0.00  0.00    +0.055 A 
ATOM     29  C   UNL     1      -2.550   1.400  -2.773  0.00  0.00    +0.058 A 
ATOM     30  C   UNL     1      -2.545   2.734  -3.136  0.00  0.00    +0.025 A 
ATOM     31  C   UNL     1      -3.245   3.143  -4.258  0.00  0.00    +0.002 A 
ATOM     32  C   UNL     1      -3.947   2.222  -5.013  0.00  0.00    +0.002 A 
ATOM     33  C   UNL     1      -3.955   0.886  -4.656  0.00  0.00    +0.025 A 
ATOM     34  H   UNL     1      -3.555  -1.555  -3.786  0.00  0.00    +0.155 HD
ENDBRANCH  20  21
ENDBRANCH   1  20
TORSDOF 6
