REMARK  Name = ZINC09589943
REMARK  5 active torsions:
REMARK  status: ('A' for Active; 'I' for Inactive)
REMARK    1  A    between atoms: C_1  and  C_2
REMARK    2  A    between atoms: C_8  and  N_10
REMARK    3  A    between atoms: C_11  and  C_13
REMARK    4  A    between atoms: N_23  and  C_26
REMARK    5  A    between atoms: C_26  and  C_27
REMARK                            x       y       z     vdW  Elec       q    Type
REMARK                         _______ _______ _______ _____ _____    ______ ____
ROOT
ATOM      1  C   UNL     1       9.390  -1.502  -2.486  0.00  0.00    +0.039 A 
ATOM      2  C   UNL     1       9.190  -0.129  -2.313  0.00  0.00    +0.014 A 
ATOM      3  C   UNL     1       8.315   0.330  -1.353  0.00  0.00    +0.016 A 
ATOM      4  C   UNL     1       7.628  -0.580  -0.553  0.00  0.00    +0.063 A 
ATOM      5  C   UNL     1       7.825  -1.961  -0.722  0.00  0.00    +0.056 A 
ATOM      6  C   UNL     1       8.706  -2.417  -1.689  0.00  0.00    +0.039 A 
ATOM      7  N   UNL     1       7.125  -2.840   0.093  0.00  0.00    -0.307 N 
ATOM      8  H   UNL     1       7.251  -3.796  -0.013  0.00  0.00    +0.170 HD
ATOM      9  C   UNL     1       6.278  -2.381   1.030  0.00  0.00    +0.330 A 
ATOM     10  O   UNL     1       5.688  -3.184   1.725  0.00  0.00    -0.246 OA
ATOM     11  N   UNL     1       6.051  -1.073   1.226  0.00  0.00    -0.256 N 
ATOM     12  C   UNL     1       6.681  -0.133   0.488  0.00  0.00    +0.265 A 
ATOM     13  O   UNL     1       6.474   1.050   0.676  0.00  0.00    -0.267 OA
ENDROOT
BRANCH   1  15
ATOM     14  N   UNL     1      10.996  -1.101  -4.292  0.00  0.00    -0.308 N 
ATOM     15  C   UNL     1      10.332  -1.985  -3.520  0.00  0.00    +0.244 C 
ATOM     16  O   UNL     1      10.508  -3.177  -3.673  0.00  0.00    -0.270 OA
ATOM     17  H   UNL     1      10.855  -0.149  -4.170  0.00  0.00    +0.149 HD
BRANCH  14  24
ATOM     18  C   UNL     1      13.740  -0.175  -4.320  0.00  0.00    +0.009 C 
ATOM     19  C   UNL     1      12.970  -0.495  -5.603  0.00  0.00    +0.006 C 
ATOM     20  C   UNL     1      12.266   0.768  -6.104  0.00  0.00    +0.005 C 
ATOM     21  C   UNL     1      11.496   0.448  -7.387  0.00  0.00    +0.000 C 
ATOM     22  C   UNL     1      10.455  -0.636  -7.099  0.00  0.00    +0.002 C 
ATOM     23  C   UNL     1      11.159  -1.899  -6.598  0.00  0.00    +0.022 C 
ATOM     24  C   UNL     1      11.929  -1.579  -5.316  0.00  0.00    +0.076 C 
ENDBRANCH  14  24
ENDBRANCH   1  15
BRANCH  11  25
ATOM     25  C   UNL     1       5.107  -0.655   2.265  0.00  0.00    +0.165 C 
BRANCH  25  26
ATOM     26  C   UNL     1       3.725  -0.548   1.674  0.00  0.00    -0.024 A 
ATOM     27  C   UNL     1       2.885  -1.646   1.677  0.00  0.00    +0.009 A 
ATOM     28  C   UNL     1       1.617  -1.553   1.135  0.00  0.00    +0.050 A 
ATOM     29  C   UNL     1       1.183  -0.356   0.589  0.00  0.00    +0.166 A 
ATOM     30  C   UNL     1       2.028   0.751   0.586  0.00  0.00    +0.167 A 
ATOM     31  C   UNL     1       3.299   0.650   1.130  0.00  0.00    +0.055 A 
ATOM     32  O   UNL     1       1.376   1.797  -0.001  0.00  0.00    -0.453 OA
ATOM     33  C   UNL     1      -0.018   1.436   0.010  0.00  0.00    +0.466 C 
ATOM     34  O   UNL     1       0.002  -0.004   0.002  0.00  0.00    -0.453 OA
ENDBRANCH  25  26
ENDBRANCH  11  25
TORSDOF 4
