REMARK  Name = ZINC06348466
REMARK  5 active torsions:
REMARK  status: ('A' for Active; 'I' for Inactive)
REMARK    1  A    between atoms: C_1  and  C_2
REMARK    2  A    between atoms: C_3  and  C_19
REMARK    3  A    between atoms: C_4  and  C_10
REMARK    4  A    between atoms: C_14  and  N_16
REMARK    5  A    between atoms: N_21  and  C_22
REMARK                            x       y       z     vdW  Elec       q    Type
REMARK                         _______ _______ _______ _____ _____    ______ ____
ROOT
ATOM      1  C   UNL     1      -1.700   6.897   2.493  0.00  0.00    +0.061 C 
ATOM      2  C   UNL     1      -1.348   6.223   1.192  0.00  0.00    +0.017 C 
ATOM      3  C   UNL     1      -0.320   5.349   1.154  0.00  0.00    +0.056 C 
ATOM      4  C   UNL     1      -0.001   4.693  -0.174  0.00  0.00    +0.139 C 
ATOM      5  N   UNL     1      -0.844   5.067  -1.323  0.00  0.00    -0.315 N 
ATOM      6  C   UNL     1      -1.837   5.957  -1.127  0.00  0.00    +0.135 C 
ATOM      7  S   UNL     1      -2.824   6.401  -2.453  0.00  0.00    -0.019 S 
ATOM      8  N   UNL     1      -2.075   6.507   0.071  0.00  0.00    -0.300 N 
ATOM      9  H   UNL     1      -0.689   4.681  -2.199  0.00  0.00    +0.149 HD
ATOM     10  H   UNL     1      -2.804   7.142   0.146  0.00  0.00    +0.154 HD
ENDROOT
BRANCH   4  11
ATOM     11  C   UNL     1      -0.100   3.201   0.009  0.00  0.00    -0.020 A 
ATOM     12  C   UNL     1      -1.298   2.553  -0.228  0.00  0.00    +0.006 A 
ATOM     13  C   UNL     1      -1.387   1.183  -0.065  0.00  0.00    +0.003 A 
ATOM     14  C   UNL     1      -0.281   0.463   0.345  0.00  0.00    +0.033 A 
ATOM     15  C   UNL     1       0.917   1.110   0.582  0.00  0.00    +0.127 A 
ATOM     16  C   UNL     1       1.008   2.479   0.414  0.00  0.00    +0.038 A 
BRANCH  15  17
ATOM     17  N   UNL     1       2.103   0.338   1.015  0.00  0.00    +0.056 N 
ATOM     18  O   UNL     1       2.023  -0.869   1.163  0.00  0.00    -0.126 OA
ATOM     19  O   UNL     1       3.159   0.908   1.223  0.00  0.00    -0.126 OA
ENDBRANCH  15  17
ENDBRANCH   4  11
BRANCH   3  20
ATOM     20  C   UNL     1       0.433   5.054   2.316  0.00  0.00    +0.248 C 
ATOM     21  O   UNL     1       1.601   5.394   2.387  0.00  0.00    -0.270 OA
ATOM     22  N   UNL     1      -0.141   4.397   3.343  0.00  0.00    -0.282 N 
ATOM     23  H   UNL     1      -1.094   4.216   3.331  0.00  0.00    +0.155 HD
BRANCH  22  24
ATOM     24  C   UNL     1       0.637   3.978   4.428  0.00  0.00    +0.034 A 
ATOM     25  C   UNL     1       1.748   4.716   4.814  0.00  0.00    +0.026 A 
ATOM     26  C   UNL     1       2.512   4.303   5.888  0.00  0.00    +0.040 A 
ATOM     27  C   UNL     1       2.177   3.146   6.573  0.00  0.00    +0.124 A 
ATOM     28  C   UNL     1       1.073   2.405   6.186  0.00  0.00    +0.040 A 
ATOM     29  C   UNL     1       0.303   2.818   5.116  0.00  0.00    +0.026 A 
ATOM     30  F   UNL     1       2.929   2.740   7.619  0.00  0.00    -0.205 F 
ENDBRANCH  22  24
ENDBRANCH   3  20
TORSDOF 4
