REMARK  Name = ZINC63427083
REMARK  6 active torsions:
REMARK  status: ('A' for Active; 'I' for Inactive)
REMARK    1  A    between atoms: C_1  and  C_2
REMARK    2  A    between atoms: C_3  and  C_15
REMARK    3  A    between atoms: C_4  and  O_5
REMARK    4  A    between atoms: N_6  and  C_9
REMARK    5  A    between atoms: C_15  and  C_36
REMARK    6  A    between atoms: N_23  and  C_29
REMARK                            x       y       z     vdW  Elec       q    Type
REMARK                         _______ _______ _______ _____ _____    ______ ____
ROOT
ATOM      1  C   UNL     1       1.277   1.501  -2.772  0.00  0.00    +0.187 C 
ATOM      2  C   UNL     1       2.083   2.212  -3.897  0.00  0.00    +0.144 C 
ATOM      3  C   UNL     1       2.231   3.617  -3.266  0.00  0.00    +0.183 C 
ATOM      4  N   UNL     1       2.331   3.368  -1.823  0.00  0.00    -0.295 N 
ATOM      5  C   UNL     1       1.796   2.169  -1.511  0.00  0.00    +0.235 C 
ATOM      6  O   UNL     1       1.739   1.698  -0.395  0.00  0.00    -0.274 OA
ATOM      7  N   UNL     1       3.435   4.260  -3.786  0.00  0.00    -0.234 N 
ATOM      8  C   UNL     1       4.598   3.555  -3.864  0.00  0.00    +0.334 C 
ATOM      9  O   UNL     1       5.780   4.199  -3.828  0.00  0.00    -0.250 OA
ATOM     10  N   UNL     1       4.566   2.240  -3.976  0.00  0.00    -0.127 NA
ATOM     11  C   UNL     1       3.425   1.538  -3.992  0.00  0.00    +0.248 C 
ATOM     12  O   UNL     1       3.461   0.328  -4.097  0.00  0.00    -0.273 OA
ATOM     13  H   UNL     1       2.727   3.979  -1.183  0.00  0.00    +0.151 HD
ENDROOT
BRANCH   7  14
ATOM     14  C   UNL     1       3.394   5.595  -4.202  0.00  0.00    +0.040 A 
ATOM     15  C   UNL     1       2.960   6.583  -3.329  0.00  0.00    +0.026 A 
ATOM     16  C   UNL     1       2.920   7.900  -3.742  0.00  0.00    +0.040 A 
ATOM     17  C   UNL     1       3.313   8.236  -5.027  0.00  0.00    +0.124 A 
ATOM     18  C   UNL     1       3.746   7.252  -5.900  0.00  0.00    +0.040 A 
ATOM     19  C   UNL     1       3.794   5.935  -5.488  0.00  0.00    +0.026 A 
ATOM     20  F   UNL     1       3.273   9.525  -5.429  0.00  0.00    -0.205 F 
ENDBRANCH   7  14
BRANCH   1  23
ATOM     21  C   UNL     1      -0.334   1.401  -5.496  0.00  0.00    +0.068 C 
ATOM     22  C   UNL     1      -0.913   1.704  -4.138  0.00  0.00    +0.069 A 
ATOM     23  C   UNL     1      -0.201   1.748  -2.936  0.00  0.00    +0.061 A 
ATOM     24  C   UNL     1      -1.077   2.053  -1.942  0.00  0.00    +0.220 A 
ATOM     25  N   UNL     1      -2.304   2.195  -2.509  0.00  0.00    -0.200 N 
ATOM     26  N   UNL     1      -2.168   1.977  -3.886  0.00  0.00    -0.168 NA
BRANCH  25  27
ATOM     27  C   UNL     1      -3.493   2.510  -1.836  0.00  0.00    +0.069 A 
ATOM     28  C   UNL     1      -3.712   2.033  -0.550  0.00  0.00    +0.028 A 
ATOM     29  C   UNL     1      -4.884   2.345   0.110  0.00  0.00    +0.002 A 
ATOM     30  C   UNL     1      -5.839   3.131  -0.508  0.00  0.00    +0.000 A 
ATOM     31  C   UNL     1      -5.624   3.607  -1.788  0.00  0.00    +0.002 A 
ATOM     32  C   UNL     1      -4.451   3.304  -2.451  0.00  0.00    +0.028 A 
ENDBRANCH  25  27
BRANCH  24  33
ATOM     33  O   UNL     1      -0.779   2.190  -0.624  0.00  0.00    -0.492 OA
ATOM     34  H   UNL     1      -0.536   3.090  -0.367  0.00  0.00    +0.294 HD
ENDBRANCH  24  33
ENDBRANCH   1  23
BRANCH   1  35
ATOM     35  C   UNL     1       1.575   0.001  -2.751  0.00  0.00    +0.409 C 
ATOM     36  F   UNL     1       1.493  -0.508  -4.052  0.00  0.00    -0.169 F 
ATOM     37  F   UNL     1       2.862  -0.213  -2.247  0.00  0.00    -0.169 F 
ATOM     38  F   UNL     1       0.641  -0.649  -1.937  0.00  0.00    -0.169 F 
ENDBRANCH   1  35
TORSDOF 5
