REMARK  Name = ZINC39535971
REMARK  8 active torsions:
REMARK  status: ('A' for Active; 'I' for Inactive)
REMARK    1  A    between atoms: C_1  and  C_2
REMARK    2  A    between atoms: C_2  and  N_3
REMARK    3  A    between atoms: N_3  and  C_4
REMARK    4  A    between atoms: N_3  and  C_11
REMARK    5  A    between atoms: C_4  and  C_5
REMARK    6  A    between atoms: C_11  and  C_12
REMARK    7  A    between atoms: C_22  and  S_24
REMARK    8  A    between atoms: S_24  and  N_27
REMARK                            x       y       z     vdW  Elec       q    Type
REMARK                         _______ _______ _______ _____ _____    ______ ____
ROOT
ATOM      1  C   UNL     1      -2.263   1.112  -1.170  0.00  0.00    +0.203 C 
ATOM      2  O   UNL     1      -2.205  -0.088  -1.006  0.00  0.00    -0.277 OA
ATOM      3  N   UNL     1      -2.926   1.617  -2.229  0.00  0.00    -0.273 N 
ATOM      4  C   UNL     1      -2.927   3.063  -2.490  0.00  0.00    +0.114 C 
ATOM      5  C   UNL     1      -4.364   3.475  -2.836  0.00  0.00    +0.024 C 
ATOM      6  C   UNL     1      -4.785   2.766  -4.124  0.00  0.00    +0.038 C 
ATOM      7  C   UNL     1      -4.527   1.286  -4.019  0.00  0.00    -0.024 A 
ATOM      8  C   UNL     1      -3.622   0.770  -3.103  0.00  0.00    +0.039 A 
ATOM      9  C   UNL     1      -3.399  -0.600  -3.039  0.00  0.00    +0.026 A 
ATOM     10  C   UNL     1      -4.076  -1.451  -3.890  0.00  0.00    +0.030 A 
ATOM     11  C   UNL     1      -4.976  -0.938  -4.805  0.00  0.00    +0.106 A 
ATOM     12  C   UNL     1      -5.208   0.426  -4.864  0.00  0.00    +0.034 A 
ENDROOT
BRANCH  11  13
ATOM     13  S   UNL     1      -5.842  -2.024  -5.890  0.00  0.00    +0.061 S 
ATOM     14  O   UNL     1      -6.221  -1.251  -7.021  0.00  0.00    -0.153 OA
ATOM     15  O   UNL     1      -5.053  -3.201  -6.001  0.00  0.00    -0.153 OA
BRANCH  13  16
ATOM     16  N   UNL     1      -7.244  -2.464  -5.127  0.00  0.00    -0.177 NA
ATOM     17  C   UNL     1      -7.408  -3.623  -4.237  0.00  0.00    +0.109 C 
ATOM     18  C   UNL     1      -8.883  -3.648  -3.784  0.00  0.00    +0.018 C 
ATOM     19  C   UNL     1      -9.600  -2.830  -4.891  0.00  0.00    +0.018 C 
ATOM     20  C   UNL     1      -8.533  -1.754  -5.221  0.00  0.00    +0.109 C 
ENDBRANCH  13  16
ENDBRANCH  11  13
BRANCH   1  21
ATOM     21  C   UNL     1      -1.592   2.039  -0.189  0.00  0.00    +0.020 C 
BRANCH  21  22
ATOM     22  N   UNL     1      -0.989   1.253   0.895  0.00  0.00    +0.388 N 
ATOM     23  H   UNL     1      -1.682   0.630   1.284  0.00  0.00    -0.081 HD
BRANCH  22  25
ATOM     24  C   UNL     1      -1.686   2.884   2.583  0.00  0.00    -0.017 C 
ATOM     25  C   UNL     1      -0.501   2.158   1.944  0.00  0.00    -0.081 C 
ENDBRANCH  22  25
BRANCH  22  26
ATOM     26  C   UNL     1       0.133   0.467   0.365  0.00  0.00    -0.035 C 
BRANCH  26  27
ATOM     27  C   UNL     1       0.673  -0.431   1.447  0.00  0.00    -0.025 A 
ATOM     28  C   UNL     1       0.313  -1.699   1.762  0.00  0.00    +0.011 A 
ATOM     29  C   UNL     1       0.953  -2.338   2.808  0.00  0.00    +0.028 A 
ATOM     30  C   UNL     1       1.923  -1.676   3.488  0.00  0.00    +0.078 A 
ATOM     31  S   UNL     1       1.958  -0.104   2.642  0.00  0.00    -0.084 S 
ATOM     32 CL   UNL     1       2.883  -2.218   4.828  0.00  0.00    -0.076 Cl
ENDBRANCH  26  27
ENDBRANCH  22  26
ENDBRANCH  21  22
ENDBRANCH   1  21
TORSDOF 7
