REMARK  Name = ZINC39948224
REMARK  11 active torsions:
REMARK  status: ('A' for Active; 'I' for Inactive)
REMARK    1  A    between atoms: C_1  and  C_2
REMARK    2  A    between atoms: C_4  and  C_12
REMARK    3  A    between atoms: C_12  and  C_14
REMARK    4  A    between atoms: C_14  and  C_37
REMARK    5  A    between atoms: C_15  and  C_16
REMARK    6  A    between atoms: C_17  and  C_27
REMARK    7  A    between atoms: N_19  and  C_21
REMARK    8  A    between atoms: C_30  and  O_35
REMARK    9  A    between atoms: C_31  and  O_33
REMARK   10  A    between atoms: O_33  and  C_34
REMARK   11  A    between atoms: O_35  and  C_36
REMARK                            x       y       z     vdW  Elec       q    Type
REMARK                         _______ _______ _______ _____ _____    ______ ____
ROOT
ATOM      1  C   UNL     1      -6.057  -1.345  -1.607  0.00  0.00    -0.004 C 
ATOM      2  C   UNL     1      -6.952  -1.592  -2.641  0.00  0.00    +0.057 C 
ATOM      3  N   UNL     1      -7.885  -2.512  -2.264  0.00  0.00    -0.263 N 
ATOM      4  N   UNL     1      -7.671  -2.940  -0.949  0.00  0.00    -0.249 N 
ATOM      5  C   UNL     1      -6.486  -2.224  -0.452  0.00  0.00    +0.164 C 
ATOM      6  H   UNL     1      -8.604  -2.829  -2.833  0.00  0.00    +0.170 HD
ENDROOT
BRANCH   4   7
ATOM      7  C   UNL     1      -8.435  -3.873  -0.244  0.00  0.00    +0.048 A 
ATOM      8  C   UNL     1      -8.104  -4.196   1.066  0.00  0.00    +0.025 A 
ATOM      9  C   UNL     1      -8.862  -5.118   1.760  0.00  0.00    +0.002 A 
ATOM     10  C   UNL     1      -9.949  -5.720   1.153  0.00  0.00    +0.000 A 
ATOM     11  C   UNL     1     -10.281  -5.401  -0.151  0.00  0.00    +0.002 A 
ATOM     12  C   UNL     1      -9.531  -4.475  -0.849  0.00  0.00    +0.025 A 
ENDBRANCH   4   7
BRANCH   2  13
ATOM     13  C   UNL     1      -6.901  -0.948  -3.963  0.00  0.00    +0.001 A 
ATOM     14  C   UNL     1      -5.689  -0.874  -4.661  0.00  0.00    +0.013 A 
ATOM     15  C   UNL     1      -5.644  -0.270  -5.898  0.00  0.00    +0.050 A 
ATOM     16  C   UNL     1      -6.797   0.265  -6.456  0.00  0.00    +0.162 A 
ATOM     17  C   UNL     1      -8.008   0.195  -5.767  0.00  0.00    +0.162 A 
ATOM     18  C   UNL     1      -8.064  -0.413  -4.529  0.00  0.00    +0.059 A 
BRANCH  17  19
ATOM     19  O   UNL     1      -9.135   0.721  -6.317  0.00  0.00    -0.491 OA
ATOM     20  C   UNL     1     -10.340   0.614  -5.556  0.00  0.00    +0.277 C 
ENDBRANCH  17  19
BRANCH  16  21
ATOM     21  O   UNL     1      -6.746   0.859  -7.676  0.00  0.00    -0.491 OA
ATOM     22  C   UNL     1      -5.474   0.897  -8.327  0.00  0.00    +0.277 C 
ENDBRANCH  16  21
ENDBRANCH   2  13
BRANCH   1  24
ATOM     23  C   UNL     1      -4.103  -0.414  -0.543  0.00  0.00    +0.099 C 
ATOM     24  C   UNL     1      -4.982  -0.472  -1.631  0.00  0.00    +0.029 C 
BRANCH  23  25
ATOM     25  C   UNL     1      -2.968   0.508  -0.569  0.00  0.00    +0.202 C 
ATOM     26  O   UNL     1      -2.840   1.292  -1.495  0.00  0.00    -0.286 OA
BRANCH  25  29
ATOM     27  C   UNL     1       0.233   0.196  -0.586  0.00  0.00    +0.035 C 
ATOM     28  C   UNL     1      -0.677  -0.269   0.552  0.00  0.00    +0.111 C 
ATOM     29  C   UNL     1      -1.986   0.489   0.517  0.00  0.00    +0.031 C 
ATOM     30  C   UNL     1      -2.060   1.161   1.721  0.00  0.00    +0.007 A 
ATOM     31  C   UNL     1      -3.030   2.028   2.280  0.00  0.00    +0.010 A 
ATOM     32  C   UNL     1      -2.842   2.557   3.510  0.00  0.00    +0.001 A 
ATOM     33  C   UNL     1      -1.704   2.283   4.281  0.00  0.00    +0.002 A 
ATOM     34  C   UNL     1      -0.720   1.468   3.838  0.00  0.00    +0.026 A 
ATOM     35  C   UNL     1      -0.846   0.851   2.510  0.00  0.00    +0.043 A 
ATOM     36  N   UNL     1      -0.063   0.040   1.848  0.00  0.00    -0.377 N 
ATOM     37  H   UNL     1       0.788  -0.303   2.162  0.00  0.00    +0.160 HD
ENDBRANCH  25  29
ENDBRANCH  23  25
BRANCH  23  38
ATOM     38  C   UNL     1      -4.316  -1.256   0.595  0.00  0.00    +0.103 C 
ATOM     39  N   UNL     1      -4.485  -1.925   1.498  0.00  0.00    -0.191 NA
ENDBRANCH  23  38
ENDBRANCH   1  24
TORSDOF 8
