REMARK  Name = ZINC09849158
REMARK  8 active torsions:
REMARK  status: ('A' for Active; 'I' for Inactive)
REMARK    1  A    between atoms: C_1  and  C_2
REMARK    2  A    between atoms: C_2  and  C_3
REMARK    3  A    between atoms: C_6  and  S_9
REMARK    4  A    between atoms: S_9  and  C_12
REMARK    5  A    between atoms: C_20  and  N_21
REMARK    6  A    between atoms: N_24  and  C_27
REMARK    7  A    between atoms: C_32  and  O_33
REMARK    8  A    between atoms: O_33  and  C_34
REMARK                            x       y       z     vdW  Elec       q    Type
REMARK                         _______ _______ _______ _____ _____    ______ ____
ROOT
ATOM      1  C   UNL     1      -2.377   5.232   0.177  0.00  0.00    +0.131 A 
ATOM      2  C   UNL     1      -1.141   5.863   0.166  0.00  0.00    +0.112 A 
ATOM      3  C   UNL     1      -0.009   3.855  -0.050  0.00  0.00    +0.048 A 
ATOM      4  C   UNL     1       1.200   3.148  -0.167  0.00  0.00    +0.026 A 
ATOM      5  C   UNL     1       1.181   1.791  -0.274  0.00  0.00    +0.002 A 
ATOM      6  C   UNL     1      -0.021   1.087  -0.271  0.00  0.00    +0.001 A 
ATOM      7  C   UNL     1      -1.212   1.740  -0.165  0.00  0.00    +0.012 A 
ATOM      8  C   UNL     1      -1.228   3.137  -0.047  0.00  0.00    +0.021 A 
ATOM      9  C   UNL     1      -2.444   3.852   0.070  0.00  0.00    +0.066 A 
ATOM     10  N   UNL     1       0.049   5.229   0.056  0.00  0.00    -0.359 N 
ATOM     11  H   UNL     1       0.940   5.739   0.052  0.00  0.00    +0.165 HD
ENDROOT
BRANCH   9  12
ATOM     12  N   UNL     1      -3.664   3.192   0.078  0.00  0.00    -0.325 N 
ATOM     13  C   UNL     1      -3.767   2.289   1.233  0.00  0.00    +0.124 C 
ATOM     14  C   UNL     1      -5.154   1.642   1.249  0.00  0.00    +0.124 C 
ATOM     15  N   UNL     1      -5.365   0.911  -0.009  0.00  0.00    -0.324 N 
ATOM     16  C   UNL     1      -5.262   1.815  -1.163  0.00  0.00    +0.124 C 
ATOM     17  C   UNL     1      -3.875   2.462  -1.179  0.00  0.00    +0.124 C 
BRANCH  15  18
ATOM     18  C   UNL     1      -6.596   0.245  -0.001  0.00  0.00    +0.072 A 
ATOM     19  C   UNL     1      -7.517   0.497   1.006  0.00  0.00    +0.027 A 
ATOM     20  C   UNL     1      -8.734  -0.158   1.009  0.00  0.00    +0.002 A 
ATOM     21  C   UNL     1      -9.033  -1.072   0.015  0.00  0.00    +0.004 A 
ATOM     22  C   UNL     1      -8.118  -1.332  -0.988  0.00  0.00    +0.047 A 
ATOM     23  C   UNL     1      -6.898  -0.676  -1.001  0.00  0.00    +0.141 A 
BRANCH  23  24
ATOM     24  O   UNL     1      -5.997  -0.932  -1.987  0.00  0.00    -0.493 OA
ATOM     25  C   UNL     1      -6.375  -1.888  -2.979  0.00  0.00    +0.277 C 
ENDBRANCH  23  24
ENDBRANCH  15  18
ENDBRANCH   9  12
BRANCH   1  26
ATOM     26  S   UNL     1      -3.854   6.181   0.325  0.00  0.00    +0.028 S 
ATOM     27  O   UNL     1      -4.631   5.567   1.345  0.00  0.00    -0.164 OA
ATOM     28  O   UNL     1      -3.457   7.544   0.386  0.00  0.00    -0.164 OA
BRANCH  26  32
ATOM     29  C   UNL     1      -6.162   5.678  -3.536  0.00  0.00    -0.048 A 
ATOM     30  C   UNL     1      -6.374   4.805  -2.486  0.00  0.00    +0.005 A 
ATOM     31  C   UNL     1      -5.669   4.958  -1.307  0.00  0.00    +0.027 A 
ATOM     32  C   UNL     1      -4.753   5.985  -1.178  0.00  0.00    +0.094 A 
ATOM     33  C   UNL     1      -4.545   6.862  -2.226  0.00  0.00    +0.027 A 
ATOM     34  C   UNL     1      -5.246   6.706  -3.407  0.00  0.00    +0.005 A 
BRANCH  29  36
ATOM     35  C   UNL     1      -8.229   6.316  -4.750  0.00  0.00    +0.009 C 
ATOM     36  C   UNL     1      -6.930   5.510  -4.822  0.00  0.00    +0.032 C 
ENDBRANCH  29  36
ENDBRANCH  26  32
ENDBRANCH   1  26
TORSDOF 6
