REMARK  Name = ZINC43095619
REMARK  9 active torsions:
REMARK  status: ('A' for Active; 'I' for Inactive)
REMARK    1  A    between atoms: C_1  and  C_2
REMARK    2  A    between atoms: C_2  and  C_3
REMARK    3  A    between atoms: C_3  and  C_5
REMARK    4  A    between atoms: C_3  and  N_22
REMARK    5  A    between atoms: C_5  and  C_7
REMARK    6  A    between atoms: C_5  and  O_14
REMARK    7  A    between atoms: O_14  and  C_15
REMARK    8  A    between atoms: C_15  and  C_16
REMARK    9  A    between atoms: C_16  and  C_17
REMARK                            x       y       z     vdW  Elec       q    Type
REMARK                         _______ _______ _______ _____ _____    ______ ____
ROOT
ATOM      1  C   UNL     1       0.719  -2.136   1.261  0.00  0.00    +0.135 C 
ENDROOT
BRANCH   1   2
ATOM      2  C   UNL     1       1.499  -2.891   2.306  0.00  0.00    -0.007 A 
ATOM      3  C   UNL     1       0.845  -3.444   3.391  0.00  0.00    +0.007 A 
ATOM      4  C   UNL     1       1.561  -4.137   4.349  0.00  0.00    +0.000 A 
ATOM      5  C   UNL     1       2.930  -4.278   4.223  0.00  0.00    +0.001 A 
ATOM      6  C   UNL     1       3.585  -3.725   3.138  0.00  0.00    +0.015 A 
ATOM      7  C   UNL     1       2.868  -3.036   2.176  0.00  0.00    +0.023 A 
ATOM      8 BR   UNL     1       3.762  -2.286   0.688  0.00  0.00    -0.050 Br
ENDBRANCH   1   2
BRANCH   1   9
ATOM      9  C   UNL     1       0.759  -0.639   1.576  0.00  0.00    -0.041 C 
BRANCH   9  10
ATOM     10  N   UNL     1       0.108   0.108   0.492  0.00  0.00    +0.382 N 
ATOM     11  H   UNL     1       0.228   1.097   0.646  0.00  0.00    -0.090 HD
ATOM     12  H   UNL     1       0.526  -0.148  -0.391  0.00  0.00    -0.090 HD
ATOM     13  H   UNL     1      -0.876  -0.114   0.474  0.00  0.00    -0.090 HD
ENDBRANCH   9  10
BRANCH   9  15
ATOM     14  C   UNL     1       0.163   1.101   3.266  0.00  0.00    +0.002 C 
ATOM     15  C   UNL     1       0.023  -0.375   2.891  0.00  0.00    -0.017 C 
ENDBRANCH   9  15
ENDBRANCH   1   9
BRANCH   1  16
ATOM     16  O   UNL     1      -0.637  -2.586   1.261  0.00  0.00    -0.373 OA
BRANCH  16  17
ATOM     17  C   UNL     1      -1.212  -2.701  -0.043  0.00  0.00    +0.165 C 
BRANCH  17  18
ATOM     18  C   UNL     1      -2.680  -3.115   0.082  0.00  0.00    +0.070 C 
BRANCH  18  19
ATOM     19  C   UNL     1      -3.286  -3.236  -1.293  0.00  0.00    -0.008 A 
ATOM     20  C   UNL     1      -3.351  -4.319  -2.104  0.00  0.00    +0.011 A 
ATOM     21  C   UNL     1      -3.962  -4.197  -3.338  0.00  0.00    +0.008 A 
ATOM     22  C   UNL     1      -4.478  -2.997  -3.700  0.00  0.00    +0.045 A 
ATOM     23  S   UNL     1      -4.110  -1.991  -2.272  0.00  0.00    -0.102 S 
ENDBRANCH  18  19
ENDBRANCH  17  18
ENDBRANCH  16  17
ENDBRANCH   1  16
TORSDOF 8
