REMARK  Name = ZINC33775465
REMARK  7 active torsions:
REMARK  status: ('A' for Active; 'I' for Inactive)
REMARK    1  A    between atoms: C_1  and  C_2
REMARK    2  A    between atoms: C_2  and  C_21
REMARK    3  A    between atoms: N_3  and  N_4
REMARK    4  A    between atoms: C_5  and  C_7
REMARK    5  A    between atoms: N_10  and  C_13
REMARK    6  A    between atoms: C_13  and  C_14
REMARK    7  A    between atoms: C_24  and  N_27
REMARK                            x       y       z     vdW  Elec       q    Type
REMARK                         _______ _______ _______ _____ _____    ______ ____
ROOT
ATOM      1  N   UNL     1       2.566   4.242  -0.071  0.00  0.00    -0.207 N 
ATOM      2  C   UNL     1       1.405   3.557  -0.053  0.00  0.00    +0.235 C 
ATOM      3  O   UNL     1       0.349   4.153  -0.079  0.00  0.00    -0.274 OA
ATOM      4  H   UNL     1       3.524   3.701  -0.047  0.00  0.00    +0.177 HD
ENDROOT
BRANCH   2   5
ATOM      5  C   UNL     1       1.420   2.051  -0.001  0.00  0.00    +0.073 C 
ATOM      6  C   UNL     1      -0.019   1.526   0.010  0.00  0.00    -0.006 C 
ATOM      7  C   UNL     1       0.002  -0.004   0.002  0.00  0.00    -0.078 C 
ATOM      8  N   UNL     1       0.706  -0.479  -1.196  0.00  0.00    +0.382 N 
ATOM      9  C   UNL     1       2.103  -0.026  -1.205  0.00  0.00    -0.078 C 
ATOM     10  C   UNL     1       2.145   1.503  -1.232  0.00  0.00    -0.006 C 
ATOM     11  H   UNL     1       0.207  -0.042  -2.073  0.00  0.00    -0.081 HD
BRANCH   8  12
ATOM     12  C   UNL     1       0.626  -1.941  -1.309  0.00  0.00    -0.040 C 
BRANCH  12  13
ATOM     13  C   UNL     1       1.139  -2.369  -2.660  0.00  0.00    -0.029 A 
ATOM     14  C   UNL     1       0.249  -2.676  -3.672  0.00  0.00    +0.004 A 
ATOM     15  C   UNL     1       0.719  -3.063  -4.913  0.00  0.00    +0.000 A 
ATOM     16  C   UNL     1       2.079  -3.155  -5.140  0.00  0.00    +0.003 A 
ATOM     17  C   UNL     1       2.971  -2.855  -4.128  0.00  0.00    +0.038 A 
ATOM     18  C   UNL     1       2.501  -2.462  -2.886  0.00  0.00    +0.125 A 
ATOM     19  F   UNL     1       3.372  -2.168  -1.896  0.00  0.00    -0.205 F 
ENDBRANCH  12  13
ENDBRANCH   8  12
ENDBRANCH   2   5
BRANCH   1  22
ATOM     20  C   UNL     1       4.983   5.561  -0.104  0.00  0.00    +0.068 C 
ATOM     21  C   UNL     1       3.671   6.301  -0.136  0.00  0.00    +0.063 C 
ATOM     22  N   UNL     1       2.553   5.642  -0.119  0.00  0.00    -0.185 NA
BRANCH  21  23
ATOM     23  C   UNL     1       3.657   7.775  -0.188  0.00  0.00    -0.002 A 
ATOM     24  C   UNL     1       4.858   8.488  -0.200  0.00  0.00    +0.012 A 
ATOM     25  C   UNL     1       4.838   9.866  -0.255  0.00  0.00    +0.033 A 
ATOM     26  C   UNL     1       3.631  10.543  -0.284  0.00  0.00    +0.126 A 
ATOM     27  C   UNL     1       2.437   9.843  -0.265  0.00  0.00    +0.033 A 
ATOM     28  C   UNL     1       2.442   8.465  -0.218  0.00  0.00    +0.012 A 
BRANCH  26  29
ATOM     29  N   UNL     1       3.617  12.022  -0.337  0.00  0.00    +0.056 N 
ATOM     30  O   UNL     1       2.557  12.621  -0.363  0.00  0.00    -0.126 OA
ATOM     31  O   UNL     1       4.666  12.641  -0.353  0.00  0.00    -0.126 OA
ENDBRANCH  26  29
ENDBRANCH  21  23
ENDBRANCH   1  22
TORSDOF 6
