REMARK  Name = ZINC63742862
REMARK  10 active torsions:
REMARK  status: ('A' for Active; 'I' for Inactive)
REMARK    1  A    between atoms: C_1  and  N_2
REMARK    2  A    between atoms: N_2  and  C_3
REMARK    3  A    between atoms: N_2  and  S_9
REMARK    4  A    between atoms: S_9  and  C_12
REMARK    5  A    between atoms: C_16  and  N_18
REMARK    6  A    between atoms: C_19  and  C_21
REMARK    7  A    between atoms: C_21  and  S_22
REMARK    8  A    between atoms: S_22  and  C_23
REMARK    9  A    between atoms: C_29  and  O_33
REMARK   10  A    between atoms: O_33  and  C_34
REMARK                            x       y       z     vdW  Elec       q    Type
REMARK                         _______ _______ _______ _____ _____    ______ ____
ROOT
ATOM      1  N   UNL     1       4.047  -4.176  -2.304  0.00  0.00    -0.285 N 
ATOM      2  C   UNL     1       5.380  -4.374  -2.293  0.00  0.00    +0.227 C 
ATOM      3  O   UNL     1       6.134  -3.428  -2.382  0.00  0.00    -0.275 OA
ATOM      4  H   UNL     1       3.445  -4.923  -2.158  0.00  0.00    +0.155 HD
ENDROOT
BRANCH   1   9
ATOM      5  C   UNL     1       1.850  -1.234  -2.120  0.00  0.00    +0.110 A 
ATOM      6  C   UNL     1       2.511  -0.361  -2.964  0.00  0.00    +0.029 A 
ATOM      7  C   UNL     1       3.681  -0.751  -3.590  0.00  0.00    +0.004 A 
ATOM      8  C   UNL     1       4.193  -2.015  -3.373  0.00  0.00    +0.023 A 
ATOM      9  C   UNL     1       3.531  -2.895  -2.526  0.00  0.00    +0.035 A 
ATOM     10  C   UNL     1       2.359  -2.498  -1.895  0.00  0.00    +0.052 A 
BRANCH   5  11
ATOM     11  S   UNL     1       0.359  -0.732  -1.325  0.00  0.00    +0.075 S 
ATOM     12  O   UNL     1      -0.281  -1.918  -0.876  0.00  0.00    -0.150 OA
ATOM     13  O   UNL     1      -0.275   0.193  -2.199  0.00  0.00    -0.150 OA
BRANCH  11  15
ATOM     14  C   UNL     1       0.996   1.565  -0.047  0.00  0.00    +0.157 C 
ATOM     15  N   UNL     1       0.790   0.117   0.030  0.00  0.00    -0.206 N 
BRANCH  15  16
ATOM     16  C   UNL     1       0.956  -0.549   1.247  0.00  0.00    +0.051 A 
ATOM     17  C   UNL     1       1.306  -1.893   1.263  0.00  0.00    +0.025 A 
ATOM     18  C   UNL     1       1.470  -2.548   2.468  0.00  0.00    +0.002 A 
ATOM     19  C   UNL     1       1.285  -1.867   3.657  0.00  0.00    +0.000 A 
ATOM     20  C   UNL     1       0.936  -0.529   3.645  0.00  0.00    +0.002 A 
ATOM     21  C   UNL     1       0.776   0.133   2.444  0.00  0.00    +0.025 A 
ENDBRANCH  15  16
ENDBRANCH  11  15
ENDBRANCH   5  11
ENDBRANCH   1   9
BRANCH   2  22
ATOM     22  C   UNL     1       5.934  -5.770  -2.172  0.00  0.00    +0.169 C 
BRANCH  22  23
ATOM     23  S   UNL     1       7.747  -5.705  -2.188  0.00  0.00    -0.106 S 
BRANCH  23  24
ATOM     24  C   UNL     1       8.250  -7.441  -2.036  0.00  0.00    +0.236 C 
ATOM     25  N   UNL     1       7.678  -8.229  -3.134  0.00  0.00    -0.355 N 
ATOM     26  C   UNL     1       6.913  -9.140  -2.606  0.00  0.00    +0.061 A 
ATOM     27  C   UNL     1       6.088 -10.204  -3.198  0.00  0.00    +0.031 A 
ATOM     28  C   UNL     1       5.380 -11.024  -2.399  0.00  0.00    +0.048 A 
ATOM     29  C   UNL     1       5.402 -10.893  -0.948  0.00  0.00    +0.122 A 
ATOM     30  C   UNL     1       6.137  -9.938  -0.328  0.00  0.00    +0.073 A 
ATOM     31  C   UNL     1       6.936  -9.005  -1.124  0.00  0.00    +0.064 A 
ATOM     32  N   UNL     1       7.718  -8.012  -0.793  0.00  0.00    -0.355 N 
ATOM     33  H   UNL     1       7.840  -8.095  -4.081  0.00  0.00    +0.162 HD
ATOM     34  H   UNL     1       7.912  -7.709   0.108  0.00  0.00    +0.162 HD
BRANCH  29  35
ATOM     35  O   UNL     1       4.666 -11.750  -0.198  0.00  0.00    -0.495 OA
ATOM     36  C   UNL     1       3.908 -12.739  -0.898  0.00  0.00    +0.277 C 
ENDBRANCH  29  35
ENDBRANCH  23  24
ENDBRANCH  22  23
ENDBRANCH   2  22
TORSDOF 8
