REMARK  Name = ZINC40826959
REMARK  7 active torsions:
REMARK  status: ('A' for Active; 'I' for Inactive)
REMARK    1  A    between atoms: C_1  and  C_2
REMARK    2  A    between atoms: C_4  and  C_38
REMARK    3  A    between atoms: C_10  and  C_11
REMARK    4  A    between atoms: C_11  and  C_12
REMARK    5  A    between atoms: N_14  and  N_15
REMARK    6  A    between atoms: C_22  and  C_37
REMARK    7  A    between atoms: C_23  and  C_25
REMARK                            x       y       z     vdW  Elec       q    Type
REMARK                         _______ _______ _______ _____ _____    ______ ____
ROOT
ATOM      1  N   UNL     1       2.570  -7.425  -2.033  0.00  0.00    -0.184 NA
ATOM      2  C   UNL     1       2.654  -8.208  -3.063  0.00  0.00    +0.070 C 
ATOM      3  C   UNL     1       1.438  -8.898  -3.665  0.00  0.00    +0.058 C 
ATOM      4  C   UNL     1       1.824 -10.341  -4.005  0.00  0.00    +0.014 C 
ATOM      5  C   UNL     1       2.901 -10.369  -5.094  0.00  0.00    +0.075 C 
ATOM      6  C   UNL     1       4.055  -9.493  -4.680  0.00  0.00    +0.115 A 
ATOM      7  C   UNL     1       3.937  -8.491  -3.744  0.00  0.00    +0.042 A 
ATOM      8  C   UNL     1       5.193  -7.887  -3.612  0.00  0.00    +0.009 A 
ATOM      9  C   UNL     1       6.024  -8.539  -4.479  0.00  0.00    +0.193 A 
ATOM     10  O   UNL     1       5.315  -9.508  -5.108  0.00  0.00    -0.454 OA
ATOM     11  C   UNL     1       5.556  -6.745  -2.697  0.00  0.00    +0.048 C 
ENDROOT
BRANCH   9  12
ATOM     12  C   UNL     1       7.447  -8.247  -4.686  0.00  0.00    +0.282 C 
ATOM     13  O   UNL     1       7.951  -7.271  -4.161  0.00  0.00    -0.267 OA
ATOM     14  N   UNL     1       8.197  -9.059  -5.458  0.00  0.00    -0.290 N 
ATOM     15  C   UNL     1       9.594  -8.730  -5.783  0.00  0.00    +0.113 C 
ATOM     16  C   UNL     1      10.486  -9.803  -5.159  0.00  0.00    +0.054 C 
ATOM     17  C   UNL     1       9.960 -11.181  -5.462  0.00  0.00    -0.041 A 
ATOM     18  C   UNL     1      10.844 -12.247  -5.350  0.00  0.00    +0.004 A 
ATOM     19  C   UNL     1      10.425 -13.536  -5.604  0.00  0.00    +0.000 A 
ATOM     20  C   UNL     1       9.113 -13.772  -5.972  0.00  0.00    +0.000 A 
ATOM     21  C   UNL     1       8.234 -12.716  -6.087  0.00  0.00    +0.005 A 
ATOM     22  C   UNL     1       8.657 -11.417  -5.837  0.00  0.00    -0.027 A 
ATOM     23  C   UNL     1       7.654 -10.308  -6.002  0.00  0.00    +0.143 C 
ENDBRANCH   9  12
BRANCH   1  26
ATOM     24  C   UNL     1       1.241  -6.378  -0.357  0.00  0.00    +0.237 C 
ATOM     25  O   UNL     1       2.239  -5.847   0.083  0.00  0.00    -0.274 OA
ATOM     26  N   UNL     1       1.328  -7.192  -1.428  0.00  0.00    -0.206 N 
ATOM     27  H   UNL     1       0.530  -7.617  -1.780  0.00  0.00    +0.177 HD
BRANCH  24  28
ATOM     28  C   UNL     1      -0.095  -6.128   0.293  0.00  0.00    +0.136 C 
BRANCH  28  38
ATOM     29  C   UNL     1       1.364  -5.571   7.002  0.00  0.00    +0.044 C 
ATOM     30  C   UNL     1       1.032  -5.557   5.532  0.00  0.00    -0.047 A 
ATOM     31  C   UNL     1       0.983  -6.752   4.828  0.00  0.00    +0.007 A 
ATOM     32  C   UNL     1       0.683  -6.757   3.494  0.00  0.00    -0.039 A 
ATOM     33  C   UNL     1       0.425  -5.554   2.839  0.00  0.00    +0.027 A 
ATOM     34  C   UNL     1       0.474  -4.341   3.546  0.00  0.00    +0.136 A 
ATOM     35  C   UNL     1       0.775  -4.358   4.902  0.00  0.00    +0.050 A 
ATOM     36  O   UNL     1       0.187  -3.356   2.671  0.00  0.00    -0.463 OA
ATOM     37  C   UNL     1      -0.044  -3.856   1.445  0.00  0.00    +0.200 A 
ATOM     38  C   UNL     1       0.081  -5.190   1.459  0.00  0.00    +0.007 A 
ATOM     39  C   UNL     1       0.631  -8.059   2.735  0.00  0.00    +0.044 C 
ENDBRANCH  28  38
ENDBRANCH  24  28
ENDBRANCH   1  26
TORSDOF 4
