REMARK  Name = ZINC00881900
REMARK  5 active torsions:
REMARK  status: ('A' for Active; 'I' for Inactive)
REMARK    1  A    between atoms: C_1  and  C_2
REMARK    2  A    between atoms: C_7  and  C_8
REMARK    3  A    between atoms: C_13  and  C_18
REMARK    4  A    between atoms: C_13  and  C_19
REMARK    5  A    between atoms: C_25  and  O_27
REMARK                            x       y       z     vdW  Elec       q    Type
REMARK                         _______ _______ _______ _____ _____    ______ ____
ROOT
ATOM      1  C   UNL     1       2.898  -0.410  -0.194  0.00  0.00    +0.058 C 
ATOM      2  C   UNL     1       1.715  -0.832  -1.070  0.00  0.00    +0.081 C 
ATOM      3  C   UNL     1       0.420  -0.506  -0.317  0.00  0.00    +0.180 C 
ATOM      4  C   UNL     1       0.453  -1.175   1.060  0.00  0.00    +0.094 C 
ATOM      5  C   UNL     1      -0.895  -0.943   1.750  0.00  0.00    +0.033 C 
ATOM      6  N   UNL     1      -1.969  -1.427   0.881  0.00  0.00    -0.321 N 
ATOM      7  C   UNL     1      -1.841  -1.426  -0.454  0.00  0.00    +0.133 C 
ATOM      8  S   UNL     1      -3.149  -1.986  -1.406  0.00  0.00    -0.019 S 
ATOM      9  N   UNL     1      -0.727  -1.005  -1.073  0.00  0.00    -0.289 N 
ATOM     10  C   UNL     1      -0.928  -1.704   3.076  0.00  0.00    +0.031 C 
ATOM     11  C   UNL     1      -1.084   0.552   2.012  0.00  0.00    +0.031 C 
ATOM     12  O   UNL     1       0.327   0.909  -0.163  0.00  0.00    -0.468 OA
ATOM     13  C   UNL     1       1.416   1.569   0.312  0.00  0.00    +0.131 A 
ATOM     14  C   UNL     1       2.673   0.989   0.322  0.00  0.00    +0.004 A 
ATOM     15  C   UNL     1       3.757   1.698   0.815  0.00  0.00    +0.031 A 
ATOM     16  C   UNL     1       3.591   2.981   1.297  0.00  0.00    +0.083 A 
ATOM     17  C   UNL     1       2.332   3.567   1.289  0.00  0.00    +0.139 A 
ATOM     18  C   UNL     1       1.247   2.861   0.797  0.00  0.00    +0.093 A 
ATOM     19 CL   UNL     1       4.955   3.861   1.912  0.00  0.00    -0.080 Cl
ATOM     20  H   UNL     1      -2.791  -1.754   1.279  0.00  0.00    +0.148 HD
ATOM     21  H   UNL     1      -0.683  -1.031  -2.042  0.00  0.00    +0.151 HD
ENDROOT
BRANCH   1  28
ATOM     22  C   UNL     1       5.134  -2.018   0.680  0.00  0.00    +0.044 C 
ATOM     23  C   UNL     1       5.234  -1.215  -0.591  0.00  0.00    -0.047 A 
ATOM     24  C   UNL     1       6.394  -1.252  -1.342  0.00  0.00    +0.003 A 
ATOM     25  C   UNL     1       6.489  -0.511  -2.505  0.00  0.00    +0.000 A 
ATOM     26  C   UNL     1       5.421   0.263  -2.921  0.00  0.00    +0.000 A 
ATOM     27  C   UNL     1       4.259   0.295  -2.173  0.00  0.00    +0.004 A 
ATOM     28  C   UNL     1       4.165  -0.446  -1.009  0.00  0.00    -0.037 A 
ENDBRANCH   1  28
BRANCH  17  29
ATOM     29  O   UNL     1       2.165   4.830   1.762  0.00  0.00    -0.505 OA
ATOM     30  H   UNL     1       1.961   4.872   2.706  0.00  0.00    +0.292 HD
ENDBRANCH  17  29
TORSDOF 2
