REMARK  Name = ZINC06299022
REMARK  12 active torsions:
REMARK  status: ('A' for Active; 'I' for Inactive)
REMARK    1  A    between atoms: C_1  and  C_2
REMARK    2  A    between atoms: C_2  and  O_41
REMARK    3  A    between atoms: C_6  and  C_31
REMARK    4  A    between atoms: C_8  and  C_22
REMARK    5  A    between atoms: C_10  and  C_12
REMARK    6  A    between atoms: C_12  and  O_14
REMARK    7  A    between atoms: O_14  and  C_15
REMARK    8  A    between atoms: C_15  and  C_16
REMARK    9  A    between atoms: C_26  and  N_28
REMARK   10  A    between atoms: C_31  and  O_33
REMARK   11  A    between atoms: O_33  and  C_34
REMARK   12  A    between atoms: C_34  and  C_35
REMARK                            x       y       z     vdW  Elec       q    Type
REMARK                         _______ _______ _______ _____ _____    ______ ____
ROOT
ATOM      1  C   UNL     1       1.564  -0.414  -1.048  0.00  0.00    +0.042 C 
ATOM      2  C   UNL     1       1.284  -1.269   0.190  0.00  0.00    +0.083 C 
ATOM      3  C   UNL     1      -0.053  -1.996   0.017  0.00  0.00    +0.110 C 
ATOM      4  C   UNL     1      -1.160  -0.966  -0.021  0.00  0.00    +0.150 C 
ATOM      5  O   UNL     1      -1.975  -0.964  -0.912  0.00  0.00    -0.296 OA
ATOM      6  C   UNL     1      -1.220   0.062   1.087  0.00  0.00    +0.172 C 
ATOM      7  C   UNL     1       0.159   0.715   1.222  0.00  0.00    +0.056 C 
ATOM      8  C   UNL     1       1.217  -0.370   1.426  0.00  0.00    +0.138 C 
ENDROOT
BRANCH   7   9
ATOM      9  C   UNL     1       0.472   1.493  -0.031  0.00  0.00    -0.040 A 
ATOM     10  C   UNL     1      -0.385   1.431  -1.115  0.00  0.00    +0.004 A 
ATOM     11  C   UNL     1      -0.098   2.144  -2.264  0.00  0.00    +0.002 A 
ATOM     12  C   UNL     1       1.045   2.919  -2.329  0.00  0.00    +0.033 A 
ATOM     13  C   UNL     1       1.901   2.982  -1.245  0.00  0.00    +0.126 A 
ATOM     14  C   UNL     1       1.611   2.272  -0.095  0.00  0.00    +0.036 A 
BRANCH  13  15
ATOM     15  N   UNL     1       3.124   3.811  -1.315  0.00  0.00    +0.056 N 
ATOM     16  O   UNL     1       3.376   4.434  -2.321  0.00  0.00    -0.126 OA
ATOM     17  O   UNL     1       3.873   3.866  -0.368  0.00  0.00    -0.126 OA
ENDBRANCH  13  15
ENDBRANCH   7   9
BRANCH   8  18
ATOM     18  C   UNL     1       2.561   0.276   1.649  0.00  0.00    +0.314 C 
ATOM     19  O   UNL     1       2.751   0.950   2.633  0.00  0.00    -0.250 OA
BRANCH  18  20
ATOM     20  O   UNL     1       3.546   0.101   0.755  0.00  0.00    -0.460 OA
BRANCH  20  21
ATOM     21  C   UNL     1       4.793   0.742   1.030  0.00  0.00    +0.267 C 
BRANCH  21  22
ATOM     22  C   UNL     1       5.771   0.435  -0.075  0.00  0.00    -0.010 A 
ATOM     23  C   UNL     1       6.583  -0.680   0.011  0.00  0.00    +0.007 A 
ATOM     24  C   UNL     1       7.479  -0.962  -1.003  0.00  0.00    +0.000 A 
ATOM     25  C   UNL     1       7.563  -0.128  -2.103  0.00  0.00    +0.000 A 
ATOM     26  C   UNL     1       6.750   0.986  -2.189  0.00  0.00    +0.000 A 
ATOM     27  C   UNL     1       5.851   1.266  -1.177  0.00  0.00    +0.007 A 
ENDBRANCH  21  22
ENDBRANCH  20  21
ENDBRANCH  18  20
ENDBRANCH   8  18
BRANCH   6  28
ATOM     28  C   UNL     1      -2.250   1.110   0.750  0.00  0.00    +0.318 C 
ATOM     29  O   UNL     1      -1.921   2.268   0.643  0.00  0.00    -0.250 OA
BRANCH  28  30
ATOM     30  O   UNL     1      -3.532   0.757   0.568  0.00  0.00    -0.459 OA
BRANCH  30  31
ATOM     31  C   UNL     1      -4.454   1.802   0.250  0.00  0.00    +0.267 C 
BRANCH  31  32
ATOM     32  C   UNL     1      -5.834   1.220   0.083  0.00  0.00    -0.010 A 
ATOM     33  C   UNL     1      -6.253   0.781  -1.159  0.00  0.00    +0.007 A 
ATOM     34  C   UNL     1      -7.519   0.248  -1.312  0.00  0.00    +0.000 A 
ATOM     35  C   UNL     1      -8.366   0.153  -0.223  0.00  0.00    +0.000 A 
ATOM     36  C   UNL     1      -7.947   0.592   1.019  0.00  0.00    +0.000 A 
ATOM     37  C   UNL     1      -6.679   1.121   1.173  0.00  0.00    +0.007 A 
ENDBRANCH  31  32
ENDBRANCH  30  31
ENDBRANCH  28  30
ENDBRANCH   6  28
BRANCH   2  38
ATOM     38  O   UNL     1       2.331  -2.228   0.354  0.00  0.00    -0.388 OA
ATOM     39  H   UNL     1       2.431  -2.832  -0.394  0.00  0.00    +0.210 HD
ENDBRANCH   2  38
TORSDOF 11
