REMARK  Name = ZINC64674452
REMARK  10 active torsions:
REMARK  status: ('A' for Active; 'I' for Inactive)
REMARK    1  A    between atoms: C_1  and  C_2
REMARK    2  A    between atoms: C_2  and  C_4
REMARK    3  A    between atoms: C_2  and  O_20
REMARK    4  A    between atoms: N_6  and  C_7
REMARK    5  A    between atoms: C_10  and  N_17
REMARK    6  A    between atoms: C_12  and  C_13
REMARK    7  A    between atoms: O_20  and  C_21
REMARK    8  A    between atoms: C_21  and  C_23
REMARK    9  A    between atoms: C_23  and  C_24
REMARK   10  A    between atoms: C_24  and  C_25
REMARK                            x       y       z     vdW  Elec       q    Type
REMARK                         _______ _______ _______ _____ _____    ______ ____
ROOT
ATOM      1  C   UNL     1      -0.035   1.539   0.001  0.00  0.00    +0.062 C 
ATOM      2  C   UNL     1      -0.003   0.009  -0.004  0.00  0.00    +0.259 C 
ENDROOT
BRANCH   2   3
ATOM      3  C   UNL     1      -1.413  -0.523   0.011  0.00  0.00    +0.258 C 
ATOM      4  O   UNL     1      -1.835  -1.149  -0.937  0.00  0.00    -0.271 OA
ATOM      5  N   UNL     1      -2.204  -0.302   1.079  0.00  0.00    -0.282 N 
ATOM      6  H   UNL     1      -1.844   0.129   1.870  0.00  0.00    +0.155 HD
BRANCH   5   7
ATOM      7  C   UNL     1      -3.547  -0.694   1.048  0.00  0.00    +0.045 A 
ATOM      8  C   UNL     1      -4.207  -0.821  -0.168  0.00  0.00    +0.026 A 
ATOM      9  C   UNL     1      -5.532  -1.208  -0.196  0.00  0.00    +0.034 A 
ATOM     10  C   UNL     1      -6.203  -1.469   0.985  0.00  0.00    +0.127 A 
ATOM     11  C   UNL     1      -5.549  -1.343   2.197  0.00  0.00    +0.047 A 
ATOM     12  C   UNL     1      -4.222  -0.963   2.231  0.00  0.00    +0.078 A 
BRANCH  12  13
ATOM     13  C   UNL     1      -3.509  -0.833   3.552  0.00  0.00    +0.419 C 
ATOM     14  F   UNL     1      -4.389  -1.153   4.591  0.00  0.00    -0.166 F 
ATOM     15  F   UNL     1      -2.417  -1.707   3.580  0.00  0.00    -0.166 F 
ATOM     16  F   UNL     1      -3.058   0.482   3.712  0.00  0.00    -0.166 F 
ENDBRANCH  12  13
BRANCH  10  17
ATOM     17  N   UNL     1      -7.623  -1.883   0.951  0.00  0.00    +0.056 N 
ATOM     18  O   UNL     1      -8.196  -1.993  -0.108  0.00  0.00    -0.126 OA
ATOM     19  O   UNL     1      -8.211  -2.112   1.982  0.00  0.00    -0.126 OA
ENDBRANCH  10  17
ENDBRANCH   5   7
ENDBRANCH   2   3
BRANCH   2  20
ATOM     20  O   UNL     1       0.667  -0.450  -1.180  0.00  0.00    -0.452 OA
BRANCH  20  21
ATOM     21  C   UNL     1       1.995  -0.625  -1.096  0.00  0.00    +0.308 C 
ATOM     22  O   UNL     1       2.570  -0.397  -0.058  0.00  0.00    -0.251 OA
BRANCH  21  23
ATOM     23  C   UNL     1       2.769  -1.107  -2.296  0.00  0.00    +0.125 C 
BRANCH  23  24
ATOM     24  C   UNL     1       4.251  -1.222  -1.934  0.00  0.00    +0.044 C 
BRANCH  24  25
ATOM     25  C   UNL     1       5.025  -1.704  -3.134  0.00  0.00    -0.041 C 
ATOM     26  C   UNL     1       5.681  -0.942  -4.038  0.00  0.00    -0.001 A 
ATOM     27  C   UNL     1       5.863   0.508  -4.171  0.00  0.00    +0.010 A 
ATOM     28  C   UNL     1       6.589   0.987  -5.207  0.00  0.00    +0.001 A 
ATOM     29  C   UNL     1       7.170   0.134  -6.156  0.00  0.00    +0.002 A 
ATOM     30  C   UNL     1       7.047  -1.210  -6.101  0.00  0.00    +0.026 A 
ATOM     31  C   UNL     1       6.305  -1.821  -5.053  0.00  0.00    +0.043 A 
ATOM     32  N   UNL     1       6.045  -3.078  -4.786  0.00  0.00    -0.380 N 
ATOM     33  C   UNL     1       5.230  -3.139  -3.567  0.00  0.00    +0.144 C 
ATOM     34  H   UNL     1       6.344  -3.841  -5.305  0.00  0.00    +0.160 HD
ENDBRANCH  24  25
ENDBRANCH  23  24
ENDBRANCH  21  23
ENDBRANCH  20  21
ENDBRANCH   2  20
TORSDOF 9
