REMARK  Name = ZINC41628983
REMARK  4 active torsions:
REMARK  status: ('A' for Active; 'I' for Inactive)
REMARK    1  A    between atoms: C_1  and  C_2
REMARK    2  A    between atoms: C_4  and  C_14
REMARK    3  A    between atoms: C_8  and  C_13
REMARK    4  A    between atoms: C_15  and  C_20
REMARK                            x       y       z     vdW  Elec       q    Type
REMARK                         _______ _______ _______ _____ _____    ______ ____
ROOT
ATOM      1  C   UNL     1       0.279   1.909  -0.652  0.00  0.00    +0.044 C 
ATOM      2  C   UNL     1       0.356   0.415  -0.476  0.00  0.00    -0.049 A 
ATOM      3  C   UNL     1       0.220  -0.418  -1.569  0.00  0.00    +0.015 A 
ATOM      4  C   UNL     1       0.289  -1.798  -1.410  0.00  0.00    +0.023 A 
ATOM      5  C   UNL     1       0.500  -2.347  -0.134  0.00  0.00    +0.047 A 
ATOM      6  C   UNL     1       0.635  -1.490   0.948  0.00  0.00    -0.014 A 
ATOM      7  C   UNL     1       0.569  -0.124   0.782  0.00  0.00    +0.009 A 
ATOM      8  C   UNL     1       0.847  -2.368   2.161  0.00  0.00    +0.104 C 
ATOM      9  C   UNL     1       0.810  -3.776   1.606  0.00  0.00    +0.224 C 
ATOM     10  O   UNL     1       0.939  -4.804   2.238  0.00  0.00    -0.275 OA
ATOM     11  N   UNL     1       0.607  -3.673   0.281  0.00  0.00    -0.284 N 
ATOM     12  C   UNL     1      -0.278  -2.160   3.177  0.00  0.00    +0.022 C 
ATOM     13  H   UNL     1       0.543  -4.434  -0.317  0.00  0.00    +0.155 HD
ENDROOT
BRANCH   4  14
ATOM     14  C   UNL     1       0.142  -2.689  -2.586  0.00  0.00    +0.085 A 
ATOM     15  C   UNL     1      -0.881  -2.500  -3.471  0.00  0.00    +0.016 A 
ATOM     16  S   UNL     1      -0.564  -3.819  -4.636  0.00  0.00    -0.057 S 
ATOM     17  C   UNL     1       0.887  -4.485  -3.833  0.00  0.00    +0.156 A 
ATOM     18  N   UNL     1       1.008  -3.679  -2.793  0.00  0.00    -0.225 NA
ATOM     19  N   UNL     1       1.679  -5.559  -4.205  0.00  0.00    -0.338 N 
ATOM     20  C   UNL     1      -1.976  -1.464  -3.467  0.00  0.00    +0.054 C 
ATOM     21  H   UNL     1       1.468  -6.062  -5.007  0.00  0.00    +0.144 HD
ATOM     22  H   UNL     1       2.445  -5.807  -3.663  0.00  0.00    +0.144 HD
ENDBRANCH   4  14
TORSDOF 1
