REMARK  Name = ZINC24198481
REMARK  9 active torsions:
REMARK  status: ('A' for Active; 'I' for Inactive)
REMARK    1  A    between atoms: C_1  and  C_2
REMARK    2  A    between atoms: C_5  and  C_12
REMARK    3  A    between atoms: N_9  and  C_11
REMARK    4  A    between atoms: C_12  and  O_14
REMARK    5  A    between atoms: O_14  and  C_15
REMARK    6  A    between atoms: C_15  and  C_16
REMARK    7  A    between atoms: N_18  and  C_19
REMARK    8  A    between atoms: C_19  and  C_20
REMARK    9  A    between atoms: C_23  and  C_25
REMARK                            x       y       z     vdW  Elec       q    Type
REMARK                         _______ _______ _______ _____ _____    ______ ____
ROOT
ATOM      1  C   UNL     1       0.015  -3.638  -7.856  0.00  0.00    +0.251 C 
ATOM      2  O   UNL     1       0.033  -4.688  -7.249  0.00  0.00    -0.272 OA
ATOM      3  N   UNL     1       0.008  -3.639  -9.203  0.00  0.00    -0.305 N 
ATOM      4  H   UNL     1      -0.006  -2.799  -9.688  0.00  0.00    +0.149 HD
ENDROOT
BRANCH   1   5
ATOM      5  C   UNL     1       0.000  -2.333  -7.102  0.00  0.00    +0.328 C 
BRANCH   5   6
ATOM      6  O   UNL     1       0.011  -2.594  -5.697  0.00  0.00    -0.452 OA
BRANCH   6   7
ATOM      7  C   UNL     1      -0.000  -1.526  -4.877  0.00  0.00    +0.341 C 
ATOM      8  O   UNL     1      -0.018  -0.403  -5.341  0.00  0.00    -0.245 OA
BRANCH   7  13
ATOM      9  C   UNL     1      -0.018   1.503   0.010  0.00  0.00    +0.068 C 
ATOM     10  C   UNL     1       0.002  -0.004   0.002  0.00  0.00    +0.069 A 
ATOM     11  C   UNL     1       0.008  -0.860  -1.181  0.00  0.00    +0.042 A 
ATOM     12  C   UNL     1      -0.001  -0.618  -2.556  0.00  0.00    +0.030 A 
ATOM     13  C   UNL     1       0.010  -1.718  -3.414  0.00  0.00    +0.078 A 
ATOM     14  C   UNL     1       0.030  -3.010  -2.868  0.00  0.00    +0.128 A 
ATOM     15  N   UNL     1       0.039  -3.203  -1.571  0.00  0.00    -0.235 NA
ATOM     16  C   UNL     1       0.029  -2.190  -0.711  0.00  0.00    +0.158 A 
ATOM     17  N   UNL     1       0.035  -2.120   0.654  0.00  0.00    -0.249 N 
ATOM     18  N   UNL     1       0.023  -0.779   1.048  0.00  0.00    -0.174 NA
ATOM     19  C   UNL     1       0.054  -3.270   1.561  0.00  0.00    +0.174 C 
ENDBRANCH   7  13
ENDBRANCH   6   7
ENDBRANCH   5   6
ENDBRANCH   1   5
BRANCH   3  20
ATOM     20  C   UNL     1       0.022  -4.907  -9.936  0.00  0.00    +0.178 C 
BRANCH  20  21
ATOM     21  C   UNL     1       0.011  -4.632 -11.417  0.00  0.00    +0.123 A 
ATOM     22  C   UNL     1       1.100  -4.479 -12.196  0.00  0.00    +0.047 A 
ATOM     23  C   UNL     1       0.639  -4.239 -13.506  0.00  0.00    +0.050 A 
ATOM     24  C   UNL     1      -0.719  -4.260 -13.454  0.00  0.00    +0.135 A 
ATOM     25  O   UNL     1      -1.086  -4.505 -12.182  0.00  0.00    -0.458 OA
BRANCH  24  26
ATOM     26  C   UNL     1      -1.634  -4.055 -14.597  0.00  0.00    +0.017 A 
ATOM     27  C   UNL     1      -1.120  -3.820 -15.873  0.00  0.00    +0.013 A 
ATOM     28  C   UNL     1      -1.979  -3.630 -16.935  0.00  0.00    +0.021 A 
ATOM     29  C   UNL     1      -3.349  -3.672 -16.738  0.00  0.00    +0.041 A 
ATOM     30  C   UNL     1      -3.865  -3.905 -15.474  0.00  0.00    +0.021 A 
ATOM     31  C   UNL     1      -3.016  -4.102 -14.405  0.00  0.00    +0.013 A 
ATOM     32 CL   UNL     1      -4.423  -3.431 -18.079  0.00  0.00    -0.084 Cl
ENDBRANCH  24  26
ENDBRANCH  20  21
ENDBRANCH   3  20
TORSDOF 7
