REMARK  Name = ZINC40154765
REMARK  6 active torsions:
REMARK  status: ('A' for Active; 'I' for Inactive)
REMARK    1  A    between atoms: C_5  and  C_7
REMARK    2  A    between atoms: C_7  and  C_8
REMARK    3  A    between atoms: C_8  and  N_9
REMARK    4  A    between atoms: C_10  and  C_12
REMARK    5  A    between atoms: C_18  and  C_20
REMARK    6  A    between atoms: C_22  and  C_26
REMARK                            x       y       z     vdW  Elec       q    Type
REMARK                         _______ _______ _______ _____ _____    ______ ____
ROOT
ATOM      1  C   UNL     1       1.282  -6.121   2.922  0.00  0.00    +0.078 C 
ATOM      2  C   UNL     1      -0.029  -6.637   2.326  0.00  0.00    +0.032 C 
ATOM      3  C   UNL     1       0.083  -8.146   2.086  0.00  0.00    +0.109 C 
ATOM      4  N   UNL     1       0.472  -8.798   3.344  0.00  0.00    -0.297 N 
ATOM      5  C   UNL     1       1.669  -8.317   4.048  0.00  0.00    +0.109 C 
ATOM      6  C   UNL     1       1.538  -6.806   4.266  0.00  0.00    +0.032 C 
ATOM      7  C   UNL     1      -0.255  -9.817   3.843  0.00  0.00    +0.248 C 
ATOM      8  O   UNL     1       0.114 -10.392   4.849  0.00  0.00    -0.270 OA
ENDROOT
BRANCH   7   9
ATOM      9  C   UNL     1      -1.498 -10.235   3.169  0.00  0.00    +0.055 A 
ATOM     10  C   UNL     1      -1.688 -10.387   1.777  0.00  0.00    +0.045 A 
ATOM     11  C   UNL     1      -2.978 -10.786   1.592  0.00  0.00    +0.103 A 
ATOM     12  N   UNL     1      -3.583 -10.882   2.827  0.00  0.00    -0.356 N 
ATOM     13  H   UNL     1      -4.503 -11.148   2.983  0.00  0.00    +0.165 HD
ATOM     14  C   UNL     1      -2.695 -10.557   3.780  0.00  0.00    +0.096 A 
BRANCH  11  15
ATOM     15  C   UNL     1      -3.615 -11.065   0.299  0.00  0.00    +0.263 C 
ATOM     16  O   UNL     1      -2.979 -10.945  -0.731  0.00  0.00    -0.268 OA
ATOM     17  N   UNL     1      -4.905 -11.455   0.253  0.00  0.00    -0.296 N 
ATOM     18  C   UNL     1      -5.788 -11.633   1.415  0.00  0.00    +0.108 C 
ATOM     19  C   UNL     1      -7.156 -12.109   0.881  0.00  0.00    +0.020 C 
ATOM     20  C   UNL     1      -6.798 -12.716  -0.501  0.00  0.00    +0.020 C 
ATOM     21  C   UNL     1      -5.665 -11.766  -0.971  0.00  0.00    +0.108 C 
ENDBRANCH  11  15
ENDBRANCH   7   9
BRANCH   1  23
ATOM     22  N   UNL     1       0.964  -3.818   2.076  0.00  0.00    -0.315 N 
ATOM     23  C   UNL     1       1.187  -4.631   3.128  0.00  0.00    +0.216 C 
ATOM     24  O   UNL     1       1.312  -4.163   4.240  0.00  0.00    -0.276 OA
ATOM     25  H   UNL     1       0.864  -4.192   1.187  0.00  0.00    +0.149 HD
BRANCH  22  26
ATOM     26  C   UNL     1       0.872  -2.370   2.277  0.00  0.00    +0.109 C 
BRANCH  26  27
ATOM     27  C   UNL     1       0.616  -1.684   0.933  0.00  0.00    +0.056 C 
BRANCH  27  32
ATOM     28  C   UNL     1      -0.801   1.770   1.493  0.00  0.00    +0.000 A 
ATOM     29  C   UNL     1       0.346   2.541   1.516  0.00  0.00    +0.003 A 
ATOM     30  C   UNL     1       1.582   1.945   1.351  0.00  0.00    +0.038 A 
ATOM     31  C   UNL     1       1.671   0.576   1.162  0.00  0.00    +0.127 A 
ATOM     32  C   UNL     1       0.521  -0.194   1.139  0.00  0.00    -0.011 A 
ATOM     33  C   UNL     1      -0.714   0.404   1.305  0.00  0.00    +0.006 A 
ATOM     34  F   UNL     1       2.879  -0.007   1.000  0.00  0.00    -0.205 F 
ENDBRANCH  27  32
ENDBRANCH  26  27
ENDBRANCH  22  26
ENDBRANCH   1  23
TORSDOF 6
