REMARK  Name = ZINC43209063
REMARK  11 active torsions:
REMARK  status: ('A' for Active; 'I' for Inactive)
REMARK    1  A    between atoms: C_3  and  N_37
REMARK    2  A    between atoms: C_6  and  C_7
REMARK    3  A    between atoms: C_7  and  C_9
REMARK    4  A    between atoms: C_7  and  N_26
REMARK    5  A    between atoms: C_9  and  C_11
REMARK    6  A    between atoms: C_9  and  C_23
REMARK    7  A    between atoms: C_11  and  N_12
REMARK    8  A    between atoms: N_12  and  C_13
REMARK    9  A    between atoms: C_13  and  C_14
REMARK   10  A    between atoms: N_26  and  C_27
REMARK   11  A    between atoms: C_27  and  C_28
REMARK                            x       y       z     vdW  Elec       q    Type
REMARK                         _______ _______ _______ _____ _____    ______ ____
ROOT
ATOM      1  C   UNL     1      -1.293  -0.775   0.010  0.00  0.00    -0.028 C 
ENDROOT
BRANCH   1   7
ATOM      2  C   UNL     1      -0.017   1.378   0.010  0.00  0.00    +0.004 A 
ATOM      3  C   UNL     1       1.171   2.086   0.002  0.00  0.00    +0.033 A 
ATOM      4  C   UNL     1       2.377   1.411  -0.013  0.00  0.00    +0.126 A 
ATOM      5  C   UNL     1       2.396   0.029  -0.020  0.00  0.00    +0.033 A 
ATOM      6  C   UNL     1       1.208  -0.679  -0.012  0.00  0.00    +0.004 A 
ATOM      7  C   UNL     1       0.002  -0.004   0.002  0.00  0.00    -0.061 A 
BRANCH   4   8
ATOM      8  N   UNL     1       3.649   2.168  -0.022  0.00  0.00    +0.056 N 
ATOM      9  O   UNL     1       3.633   3.377  -0.016  0.00  0.00    -0.126 OA
ATOM     10  O   UNL     1       4.704   1.578  -0.035  0.00  0.00    -0.126 OA
ENDBRANCH   4   8
ENDBRANCH   1   7
BRANCH   1  11
ATOM     11  N   UNL     1      -1.179  -1.933  -0.887  0.00  0.00    +0.387 N 
ATOM     12  H   UNL     1      -0.379  -2.487  -0.622  0.00  0.00    -0.085 HD
ATOM     13  H   UNL     1      -2.014  -2.494  -0.820  0.00  0.00    -0.085 HD
BRANCH  11  14
ATOM     14  C   UNL     1      -1.014  -1.465  -2.270  0.00  0.00    -0.046 C 
BRANCH  14  15
ATOM     15  C   UNL     1      -0.897  -2.652  -3.191  0.00  0.00    -0.061 A 
ATOM     16  C   UNL     1       0.345  -3.194  -3.464  0.00  0.00    +0.005 A 
ATOM     17  C   UNL     1       0.458  -4.284  -4.308  0.00  0.00    +0.050 A 
ATOM     18  C   UNL     1      -0.676  -4.835  -4.882  0.00  0.00    +0.166 A 
ATOM     19  C   UNL     1      -1.928  -4.289  -4.607  0.00  0.00    +0.166 A 
ATOM     20  C   UNL     1      -2.033  -3.201  -3.756  0.00  0.00    +0.051 A 
ATOM     21  O   UNL     1      -2.873  -5.002  -5.286  0.00  0.00    -0.453 OA
ATOM     22  C   UNL     1      -2.153  -5.731  -6.298  0.00  0.00    +0.466 C 
ATOM     23  O   UNL     1      -0.838  -5.890  -5.733  0.00  0.00    -0.453 OA
ENDBRANCH  14  15
ENDBRANCH  11  14
ENDBRANCH   1  11
BRANCH   1  24
ATOM     24  C   UNL     1      -1.589  -1.259   1.431  0.00  0.00    +0.075 C 
BRANCH  24  25
ATOM     25  C   UNL     1      -2.884  -2.030   1.439  0.00  0.00    +0.356 C 
ATOM     26  O   UNL     1      -2.896  -3.197   1.794  0.00  0.00    -0.246 OA
ATOM     27  O   UNL     1      -3.919  -1.488   1.091  0.00  0.00    -0.246 OA
ENDBRANCH  24  25
BRANCH  24  28
ATOM     28  C   UNL     1      -1.708  -0.054   2.366  0.00  0.00    -0.069 C 
BRANCH  28  29
ATOM     29  N   UNL     1      -1.873  -0.521   3.749  0.00  0.00    +0.382 N 
ATOM     30  H   UNL     1      -2.708  -1.083   3.817  0.00  0.00    -0.085 HD
ATOM     31  H   UNL     1      -1.073  -1.075   4.014  0.00  0.00    -0.085 HD
BRANCH  29  32
ATOM     32  C   UNL     1      -1.987   0.636   4.646  0.00  0.00    -0.047 C 
BRANCH  32  33
ATOM     33  C   UNL     1      -2.156   0.157   6.065  0.00  0.00    -0.061 A 
ATOM     34  C   UNL     1      -3.423  -0.073   6.569  0.00  0.00    +0.005 A 
ATOM     35  C   UNL     1      -3.584  -0.513   7.869  0.00  0.00    +0.050 A 
ATOM     36  C   UNL     1      -2.474  -0.725   8.672  0.00  0.00    +0.166 A 
ATOM     37  C   UNL     1      -1.198  -0.493   8.164  0.00  0.00    +0.166 A 
ATOM     38  C   UNL     1      -1.044  -0.057   6.858  0.00  0.00    +0.051 A 
ATOM     39  O   UNL     1      -0.284  -0.771   9.139  0.00  0.00    -0.453 OA
ATOM     40  C   UNL     1      -1.028  -0.782  10.372  0.00  0.00    +0.466 C 
ATOM     41  O   UNL     1      -2.360  -1.148   9.964  0.00  0.00    -0.453 OA
ENDBRANCH  32  33
ENDBRANCH  29  32
ENDBRANCH  28  29
ENDBRANCH  24  28
ENDBRANCH   1  24
TORSDOF 11
