REMARK  Name = ZINC38986390
REMARK  6 active torsions:
REMARK  status: ('A' for Active; 'I' for Inactive)
REMARK    1  A    between atoms: C_6  and  C_7
REMARK    2  A    between atoms: C_9  and  C_13
REMARK    3  A    between atoms: C_17  and  S_21
REMARK    4  A    between atoms: N_19  and  N_20
REMARK    5  A    between atoms: S_21  and  C_22
REMARK    6  A    between atoms: C_22  and  C_23
REMARK                            x       y       z     vdW  Elec       q    Type
REMARK                         _______ _______ _______ _____ _____    ______ ____
ROOT
ATOM      1  C   UNL     1      -3.262  -3.142   1.279  0.00  0.00    +0.185 C 
ATOM      2  N   UNL     1      -3.099  -2.289   2.486  0.00  0.00    -0.234 NA
ATOM      3  N   UNL     1      -4.027  -2.898   3.451  0.00  0.00    -0.228 NA
ATOM      4  C   UNL     1      -5.196  -3.302   2.637  0.00  0.00    +0.214 C 
ATOM      5  N   UNL     1      -4.708  -3.462   1.249  0.00  0.00    -0.197 NA
ATOM      6  H   UNL     1      -2.150  -2.321   2.826  0.00  0.00    +0.143 HD
ATOM      7  H   UNL     1      -3.607  -3.697   3.902  0.00  0.00    +0.143 HD
ENDROOT
BRANCH   1  10
ATOM      8  C   UNL     1      -1.271  -0.766   0.011  0.00  0.00    +0.091 C 
ATOM      9  C   UNL     1      -1.363  -2.110   0.010  0.00  0.00    +0.034 C 
ATOM     10  C   UNL     1      -2.858  -2.372   0.020  0.00  0.00    +0.187 C 
ATOM     11  N   UNL     1      -3.437  -1.018   0.026  0.00  0.00    -0.176 NA
ATOM     12  N   UNL     1      -2.509  -0.206   0.026  0.00  0.00    -0.154 NA
BRANCH   8  18
ATOM     13  C   UNL     1      -0.017   1.389   0.010  0.00  0.00    +0.011 A 
ATOM     14  C   UNL     1       1.170   2.093   0.002  0.00  0.00    +0.020 A 
ATOM     15  C   UNL     1       2.378   1.417  -0.013  0.00  0.00    +0.041 A 
ATOM     16  C   UNL     1       2.402   0.033  -0.021  0.00  0.00    +0.020 A 
ATOM     17  C   UNL     1       1.221  -0.680  -0.014  0.00  0.00    +0.011 A 
ATOM     18  C   UNL     1       0.002  -0.004   0.002  0.00  0.00    +0.002 A 
ATOM     19 CL   UNL     1       3.868   2.309  -0.022  0.00  0.00    -0.084 Cl
ENDBRANCH   8  18
ENDBRANCH   1  10
BRANCH   5  20
ATOM     20  N   UNL     1      -4.932  -4.816   0.768  0.00  0.00    -0.264 NA
ATOM     21  H   UNL     1      -5.917  -5.034   0.748  0.00  0.00    +0.137 HD
ATOM     22  H   UNL     1      -4.513  -4.951  -0.140  0.00  0.00    +0.137 HD
ENDBRANCH   5  20
BRANCH   4  23
ATOM     23  S   UNL     1      -5.864  -4.875   3.245  0.00  0.00    -0.115 S 
BRANCH  23  24
ATOM     24  C   UNL     1      -4.468  -6.026   3.109  0.00  0.00    +0.168 C 
BRANCH  24  25
ATOM     25  C   UNL     1      -4.893  -7.390   3.588  0.00  0.00    +0.229 C 
ATOM     26  O   UNL     1      -6.026  -7.568   3.984  0.00  0.00    -0.275 OA
ATOM     27  N   UNL     1      -4.015  -8.412   3.578  0.00  0.00    -0.264 N 
ATOM     28  C   UNL     1      -4.407  -9.670   4.021  0.00  0.00    +0.164 A 
ATOM     29  N   UNL     1      -5.582 -10.047   4.474  0.00  0.00    -0.233 NA
ATOM     30  C   UNL     1      -5.798 -11.291   4.859  0.00  0.00    +0.120 A 
ATOM     31  C   UNL     1      -4.756 -12.154   4.766  0.00  0.00    +0.068 A 
ATOM     32  S   UNL     1      -3.494 -11.082   4.100  0.00  0.00    -0.061 S 
ATOM     33  H   UNL     1      -3.109  -8.269   3.262  0.00  0.00    +0.157 HD
ENDBRANCH  24  25
ENDBRANCH  23  24
ENDBRANCH   4  23
TORSDOF 6
