REMARK  Name = ZINC28923031
REMARK  3 active torsions:
REMARK  status: ('A' for Active; 'I' for Inactive)
REMARK    1  A    between atoms: C_1  and  C_2
REMARK    2  A    between atoms: N_4  and  C_5
REMARK    3  A    between atoms: C_13  and  C_16
REMARK                            x       y       z     vdW  Elec       q    Type
REMARK                         _______ _______ _______ _____ _____    ______ ____
ROOT
ATOM      1  C   UNL     1       0.052   3.373  -3.950  0.00  0.00    +0.228 C 
ATOM      2  N   UNL     1       1.177   4.056  -3.287  0.00  0.00    -0.292 N 
ATOM      3  C   UNL     1       1.118   4.321  -1.944  0.00  0.00    +0.183 C 
ATOM      4  N   UNL     1      -0.036   4.537  -1.336  0.00  0.00    -0.183 NA
ATOM      5  C   UNL     1      -1.175   4.432  -2.058  0.00  0.00    +0.236 A 
ATOM      6  N   UNL     1      -1.178   3.883  -3.332  0.00  0.00    -0.284 N 
ATOM      7  C   UNL     1      -2.457   3.930  -3.799  0.00  0.00    +0.072 A 
ATOM      8  C   UNL     1      -3.042   3.545  -4.999  0.00  0.00    +0.028 A 
ATOM      9  C   UNL     1      -4.407   3.745  -5.130  0.00  0.00    +0.002 A 
ATOM     10  C   UNL     1      -5.168   4.303  -4.118  0.00  0.00    +0.002 A 
ATOM     11  C   UNL     1      -4.611   4.696  -2.914  0.00  0.00    +0.030 A 
ATOM     12  C   UNL     1      -3.233   4.504  -2.759  0.00  0.00    +0.091 A 
ATOM     13  N   UNL     1      -2.398   4.775  -1.729  0.00  0.00    -0.210 NA
ATOM     14  N   UNL     1       2.277   4.362  -1.218  0.00  0.00    -0.331 N 
ATOM     15  H   UNL     1       1.957   4.318  -3.800  0.00  0.00    +0.151 HD
ATOM     16  H   UNL     1       3.129   4.204  -1.654  0.00  0.00    +0.145 HD
ATOM     17  H   UNL     1       2.246   4.548  -0.266  0.00  0.00    +0.145 HD
ENDROOT
BRANCH   1  24
ATOM     18  C   UNL     1       0.072  -0.785   1.303  0.00  0.00    +0.110 C 
ATOM     19  C   UNL     1       0.018  -0.014   0.009  0.00  0.00    +0.223 C 
ATOM     20  O   UNL     1      -0.102   1.192   0.026  0.00  0.00    -0.275 OA
ATOM     21  N   UNL     1       0.102  -0.666  -1.167  0.00  0.00    -0.219 N 
ATOM     22  C   UNL     1       0.167   0.051  -2.358  0.00  0.00    +0.172 A 
ATOM     23  N   UNL     1       0.075   1.352  -2.534  0.00  0.00    -0.225 NA
ATOM     24  C   UNL     1       0.157   1.884  -3.739  0.00  0.00    +0.091 A 
ATOM     25  C   UNL     1       0.339   1.033  -4.778  0.00  0.00    +0.075 A 
ATOM     26  S   UNL     1       0.389  -0.532  -3.920  0.00  0.00    -0.060 S 
BRANCH  21  27
ATOM     27  C   UNL     1       0.124  -2.067  -1.192  0.00  0.00    +0.043 A 
ATOM     28  C   UNL     1      -0.992  -2.787  -0.788  0.00  0.00    +0.024 A 
ATOM     29  C   UNL     1      -0.967  -4.168  -0.814  0.00  0.00    +0.002 A 
ATOM     30  C   UNL     1       0.168  -4.833  -1.240  0.00  0.00    +0.000 A 
ATOM     31  C   UNL     1       1.281  -4.118  -1.643  0.00  0.00    +0.002 A 
ATOM     32  C   UNL     1       1.260  -2.737  -1.625  0.00  0.00    +0.024 A 
ENDBRANCH  21  27
ENDBRANCH   1  24
TORSDOF 2
