REMARK  Name = ZINC59039091
REMARK  12 active torsions:
REMARK  status: ('A' for Active; 'I' for Inactive)
REMARK    1  A    between atoms: C_1  and  C_2
REMARK    2  A    between atoms: C_2  and  N_3
REMARK    3  A    between atoms: N_3  and  C_4
REMARK    4  A    between atoms: N_3  and  C_6
REMARK    5  A    between atoms: C_4  and  C_5
REMARK    6  A    between atoms: C_9  and  C_13
REMARK    7  A    between atoms: C_10  and  O_12
REMARK    8  A    between atoms: N_14  and  N_15
REMARK    9  A    between atoms: C_18  and  S_21
REMARK   10  A    between atoms: S_21  and  C_22
REMARK   11  A    between atoms: C_22  and  C_23
REMARK   12  A    between atoms: C_28  and  C_29
REMARK                            x       y       z     vdW  Elec       q    Type
REMARK                         _______ _______ _______ _____ _____    ______ ____
ROOT
ATOM      1  N   UNL     1      -5.823  -2.212   6.159  0.00  0.00    -0.205 N 
ATOM      2  C   UNL     1      -7.117  -2.695   6.173  0.00  0.00    +0.232 A 
ATOM      3  N   UNL     1      -7.853  -2.969   5.115  0.00  0.00    -0.186 NA
ATOM      4  C   UNL     1      -9.052  -3.417   5.505  0.00  0.00    +0.210 A 
ATOM      5  N   UNL     1      -9.095  -3.434   6.816  0.00  0.00    -0.144 NA
ATOM      6  N   UNL     1      -7.849  -2.975   7.273  0.00  0.00    -0.245 N 
ATOM      7  H   UNL     1      -5.359  -2.044   6.994  0.00  0.00    +0.177 HD
ATOM      8  H   UNL     1      -7.569  -2.877   8.196  0.00  0.00    +0.192 HD
ENDROOT
BRANCH   1  10
ATOM      9  C   UNL     1      -3.964  -1.510   4.926  0.00  0.00    +0.142 C 
ATOM     10  N   UNL     1      -5.180  -1.964   4.939  0.00  0.00    -0.187 NA
BRANCH   9  14
ATOM     11  C   UNL     1      -2.015  -0.759   1.226  0.00  0.00    +0.033 A 
ATOM     12  C   UNL     1      -1.351  -0.518   2.424  0.00  0.00    +0.024 A 
ATOM     13  C   UNL     1      -1.980  -0.761   3.626  0.00  0.00    +0.015 A 
ATOM     14  C   UNL     1      -3.289  -1.249   3.643  0.00  0.00    +0.036 A 
ATOM     15  C   UNL     1      -3.957  -1.491   2.434  0.00  0.00    +0.127 A 
ATOM     16  C   UNL     1      -3.319  -1.240   1.233  0.00  0.00    +0.069 A 
BRANCH  15  17
ATOM     17  O   UNL     1      -5.229  -1.966   2.442  0.00  0.00    -0.506 OA
ATOM     18  H   UNL     1      -5.907  -1.276   2.450  0.00  0.00    +0.292 HD
ENDBRANCH  15  17
BRANCH  11  19
ATOM     19  N   UNL     1      -1.372  -0.511   0.012  0.00  0.00    -0.330 N 
BRANCH  19  21
ATOM     20  C   UNL     1      -0.019   1.526   0.010  0.00  0.00    +0.024 C 
ATOM     21  C   UNL     1       0.002  -0.004   0.002  0.00  0.00    +0.102 C 
ENDBRANCH  19  21
BRANCH  19  22
ATOM     22  C   UNL     1      -2.072  -0.758  -1.251  0.00  0.00    +0.102 C 
ATOM     23  C   UNL     1      -1.816  -2.197  -1.703  0.00  0.00    +0.024 C 
ENDBRANCH  19  22
ENDBRANCH  11  19
ENDBRANCH   9  14
ENDBRANCH   1  10
BRANCH   4  24
ATOM     24  S   UNL     1     -10.361  -3.904   4.431  0.00  0.00    -0.080 S 
BRANCH  24  25
ATOM     25  C   UNL     1     -11.691  -4.402   5.559  0.00  0.00    +0.112 C 
BRANCH  25  26
ATOM     26  C   UNL     1     -12.888  -4.847   4.759  0.00  0.00    -0.034 A 
ATOM     27  C   UNL     1     -13.853  -3.929   4.388  0.00  0.00    +0.005 A 
ATOM     28  C   UNL     1     -14.950  -4.338   3.654  0.00  0.00    +0.000 A 
ATOM     29  C   UNL     1     -15.083  -5.665   3.290  0.00  0.00    +0.000 A 
ATOM     30  C   UNL     1     -14.118  -6.583   3.660  0.00  0.00    +0.003 A 
ATOM     31  C   UNL     1     -13.018  -6.173   4.390  0.00  0.00    -0.046 A 
ATOM     32  C   UNL     1     -11.963  -7.173   4.789  0.00  0.00    +0.044 C 
ENDBRANCH  25  26
ENDBRANCH  24  25
ENDBRANCH   4  24
TORSDOF 9
