REMARK  Name = ZINC36027288
REMARK  9 active torsions:
REMARK  status: ('A' for Active; 'I' for Inactive)
REMARK    1  A    between atoms: C_1  and  C_2
REMARK    2  A    between atoms: C_2  and  C_3
REMARK    3  A    between atoms: C_3  and  C_5
REMARK    4  A    between atoms: C_3  and  N_6
REMARK    5  A    between atoms: C_9  and  C_28
REMARK    6  A    between atoms: N_15  and  S_18
REMARK    7  A    between atoms: S_18  and  C_21
REMARK    8  A    between atoms: C_24  and  C_27
REMARK    9  A    between atoms: C_28  and  C_29
REMARK                            x       y       z     vdW  Elec       q    Type
REMARK                         _______ _______ _______ _____ _____    ______ ____
ROOT
ATOM      1  N   UNL     1      -0.030  -0.122  -2.459  0.00  0.00    -0.311 N 
ATOM      2  C   UNL     1      -1.323  -0.424  -2.698  0.00  0.00    +0.201 C 
ATOM      3  O   UNL     1      -2.053  -1.050  -1.959  0.00  0.00    -0.277 OA
ATOM      4  C   UNL     1      -1.710   0.151  -4.043  0.00  0.00    +0.023 C 
ATOM      5  N   UNL     1      -0.651   1.144  -4.349  0.00  0.00    +0.401 N 
ATOM      6  C   UNL     1       0.510   0.643  -3.586  0.00  0.00    +0.006 C 
ATOM      7  C   UNL     1       1.359  -0.258  -4.480  0.00  0.00    +0.023 C 
ATOM      8  C   UNL     1       2.542  -0.805  -3.674  0.00  0.00    +0.109 C 
ATOM      9  N   UNL     1       3.268   0.324  -3.077  0.00  0.00    -0.177 NA
ATOM     10  C   UNL     1       2.523   1.291  -2.259  0.00  0.00    +0.109 C 
ATOM     11  C   UNL     1       1.340   1.820  -3.077  0.00  0.00    +0.023 C 
ATOM     12  H   UNL     1      -0.452   1.159  -5.338  0.00  0.00    -0.082 HD
ATOM     13  H   UNL     1      -0.918   2.061  -4.023  0.00  0.00    -0.082 HD
ENDROOT
BRANCH   9  14
ATOM     14  S   UNL     1       4.896   0.503  -3.321  0.00  0.00    +0.061 S 
ATOM     15  O   UNL     1       5.387   1.277  -2.235  0.00  0.00    -0.153 OA
ATOM     16  O   UNL     1       5.405  -0.787  -3.628  0.00  0.00    -0.153 OA
BRANCH  14  17
ATOM     17  C   UNL     1       5.101   1.484  -4.771  0.00  0.00    +0.105 A 
ATOM     18  C   UNL     1       5.185   0.876  -6.010  0.00  0.00    +0.029 A 
ATOM     19  C   UNL     1       5.346   1.645  -7.147  0.00  0.00    +0.005 A 
ATOM     20  C   UNL     1       5.423   3.022  -7.045  0.00  0.00    -0.050 A 
ATOM     21  C   UNL     1       5.338   3.629  -5.806  0.00  0.00    +0.005 A 
ATOM     22  C   UNL     1       5.173   2.860  -4.670  0.00  0.00    +0.029 A 
ATOM     23  C   UNL     1       5.599   3.860  -8.285  0.00  0.00    +0.044 C 
ENDBRANCH  14  17
ENDBRANCH   9  14
BRANCH   1  24
ATOM     24  C   UNL     1       0.718  -0.497  -1.257  0.00  0.00    +0.071 C 
ATOM     25  C   UNL     1       0.460  -1.971  -0.934  0.00  0.00    +0.028 C 
BRANCH  24  27
ATOM     26  C   UNL     1       0.633   1.829  -0.350  0.00  0.00    +0.005 C 
ATOM     27  C   UNL     1       0.262   0.369  -0.081  0.00  0.00    +0.019 C 
ENDBRANCH  24  27
ENDBRANCH   1  24
BRANCH   4  28
ATOM     28  C   UNL     1      -3.076   0.835  -3.957  0.00  0.00    +0.028 C 
BRANCH  28  29
ATOM     29  C   UNL     1      -3.480   1.323  -5.324  0.00  0.00    -0.048 A 
ATOM     30  C   UNL     1      -3.123   2.593  -5.739  0.00  0.00    +0.003 A 
ATOM     31  C   UNL     1      -3.494   3.041  -6.993  0.00  0.00    +0.000 A 
ATOM     32  C   UNL     1      -4.221   2.219  -7.833  0.00  0.00    +0.000 A 
ATOM     33  C   UNL     1      -4.578   0.949  -7.419  0.00  0.00    +0.000 A 
ATOM     34  C   UNL     1      -4.203   0.499  -6.167  0.00  0.00    +0.003 A 
ENDBRANCH  28  29
ENDBRANCH   4  28
TORSDOF 6
