REMARK  Name = ZINC38571099
REMARK  14 active torsions:
REMARK  status: ('A' for Active; 'I' for Inactive)
REMARK    1  A    between atoms: CG2_1  and  CB_2
REMARK    2  A    between atoms: CB_2  and  CA_4
REMARK    3  A    between atoms: CB_2  and  OG1_35
REMARK    4  A    between atoms: CA_4  and  C_6
REMARK    5  A    between atoms: CA_4  and  N_9
REMARK    6  A    between atoms: C_10  and  CA_12
REMARK    7  A    between atoms: CA_12  and  CB_14
REMARK    8  A    between atoms: CA_12  and  N_17
REMARK    9  A    between atoms: CB_14  and  CG1_15
REMARK   10  A    between atoms: CB_14  and  CG2_16
REMARK   11  A    between atoms: C_28  and  O_34
REMARK   12  A    between atoms: C_29  and  C_31
REMARK   13  A    between atoms: C_31  and  C_32
REMARK   14  A    between atoms: C_31  and  C_33
REMARK                            x       y       z     vdW  Elec       q    Type
REMARK                         _______ _______ _______ _____ _____    ______ ____
ROOT
ATOM      1  N   VAL A   1       4.429   0.654   3.935  0.00  0.00    -0.287 N 
ATOM      2  C   UNK A   0       5.271   1.533   4.513  0.00  0.00    +0.308 C 
ATOM      3  O   UNK A   0       5.746   2.441   3.859  0.00  0.00    -0.252 OA
ATOM      4  N   UNK A   0       5.587   1.405   5.817  0.00  0.00    -0.241 N 
ATOM      5  C   UNK A   0       6.370   2.364   6.478  0.00  0.00    +0.064 A 
ATOM      6  C   UNK A   0       7.305   3.122   5.801  0.00  0.00    +0.026 A 
ATOM      7  C   UNK A   0       8.062   4.054   6.490  0.00  0.00    +0.002 A 
ATOM      8  C   UNK A   0       7.886   4.228   7.851  0.00  0.00    +0.002 A 
ATOM      9  C   UNK A   0       6.952   3.478   8.539  0.00  0.00    +0.030 A 
ATOM     10  C   UNK A   0       6.182   2.539   7.857  0.00  0.00    +0.089 A 
ATOM     11  N   UNK A   0       5.240   1.791   8.511  0.00  0.00    -0.214 NA
ATOM     12  C   UNK A   0       4.718   0.733   7.978  0.00  0.00    +0.209 C 
ATOM     13  C   UNK A   0       5.121   0.257   6.611  0.00  0.00    +0.171 C 
ATOM     14  H   VAL A   1       3.992  -0.025   4.472  0.00  0.00    +0.151 HD
ENDROOT
BRANCH  13  15
ATOM     15  C   UNK A   0       6.250  -0.767   6.743  0.00  0.00    +0.013 C 
ATOM     16  C   UNK A   0       5.763  -1.960   7.569  0.00  0.00    +0.009 C 
ATOM     17  C   UNK A   0       6.669  -1.247   5.352  0.00  0.00    +0.009 C 
ENDBRANCH  13  15
BRANCH  12  18
ATOM     18  O   UNK A   0       3.784   0.043   8.666  0.00  0.00    -0.494 OA
ATOM     19  H   UNK A   0       3.579   0.416   9.534  0.00  0.00    +0.293 HD
ENDBRANCH  12  18
BRANCH   1  20
ATOM     20  CA  VAL A   1       4.173   0.725   2.494  0.00  0.00    +0.163 C 
BRANCH  20  22
ATOM     21  N   VAL A   1       2.133   0.521   1.109  0.00  0.00    -0.299 N 
ATOM     22  C   VAL A   1       2.827   0.118   2.193  0.00  0.00    +0.234 C 
ATOM     23  O   VAL A   1       2.367  -0.733   2.925  0.00  0.00    -0.274 OA
ATOM     24  H   VAL A   1       2.465   1.252   0.565  0.00  0.00    +0.150 HD
BRANCH  21  25
ATOM     25  CA  VAL A   1       0.878  -0.146   0.754  0.00  0.00    +0.215 C 
BRANCH  25  26
ATOM     26  C   VAL A   1       1.176  -1.371  -0.071  0.00  0.00    +0.378 C 
ATOM     27  O   VAL A   1       2.162  -1.399  -0.787  0.00  0.00    -0.244 OA
ATOM     28  OXT VAL A   1       0.430  -2.334  -0.023  0.00  0.00    -0.244 OA
ENDBRANCH  25  26
BRANCH  25  30
ATOM     29  CG2 VAL A   1      -0.197   2.110   0.733  0.00  0.00    +0.040 C 
ATOM     30  CB  VAL A   1       0.002   0.814  -0.055  0.00  0.00    +0.143 C 
BRANCH  30  31
ATOM     31  OG1 VAL A   1       0.641   1.106  -1.300  0.00  0.00    -0.390 OA
ATOM     32  HG1 VAL A   1       0.141   1.710  -1.865  0.00  0.00    +0.210 HD
ENDBRANCH  30  31
ENDBRANCH  25  30
ENDBRANCH  21  25
ENDBRANCH  20  22
BRANCH  20  33
ATOM     33  CB  VAL A   1       5.260  -0.048   1.744  0.00  0.00    +0.012 C 
ATOM     34  CG1 VAL A   1       4.996   0.032   0.239  0.00  0.00    +0.009 C 
ATOM     35  CG2 VAL A   1       6.627   0.565   2.055  0.00  0.00    +0.009 C 
ENDBRANCH  20  33
ENDBRANCH   1  20
TORSDOF 9
