REMARK  Name = ZINC13028094
REMARK  8 active torsions:
REMARK  status: ('A' for Active; 'I' for Inactive)
REMARK    1  A    between atoms: C_1  and  C_2
REMARK    2  A    between atoms: C_15  and  S_18
REMARK    3  A    between atoms: S_18  and  C_19
REMARK    4  A    between atoms: C_19  and  C_20
REMARK    5  A    between atoms: C_25  and  C_28
REMARK    6  A    between atoms: C_28  and  C_29
REMARK    7  A    between atoms: C_28  and  C_30
REMARK    8  A    between atoms: C_28  and  C_31
REMARK                            x       y       z     vdW  Elec       q    Type
REMARK                         _______ _______ _______ _____ _____    ______ ____
ROOT
ATOM      1  C   UNL     1       4.281   1.780  -0.030  0.00  0.00    +0.086 C 
ATOM      2  C   UNL     1       3.415   0.546  -0.029  0.00  0.00    +0.115 A 
ATOM      3  N   UNL     1       3.979  -0.628  -0.041  0.00  0.00    -0.226 NA
ATOM      4  C   UNL     1       3.275  -1.756  -0.040  0.00  0.00    +0.114 A 
ATOM      5  C   UNL     1       1.872  -1.766  -0.026  0.00  0.00    +0.056 A 
ATOM      6  C   UNL     1       1.242  -3.036  -0.025  0.00  0.00    -0.024 A 
ATOM      7  C   UNL     1       2.037  -4.131  -0.040  0.00  0.00    -0.004 A 
ATOM      8  S   UNL     1       3.688  -3.484  -0.055  0.00  0.00    -0.073 S 
ATOM      9  C   UNL     1       1.611  -5.566  -0.042  0.00  0.00    +0.043 C 
ATOM     10  C   UNL     1       0.126  -5.630   0.347  0.00  0.00    +0.005 C 
ATOM     11  C   UNL     1      -0.642  -4.592  -0.476  0.00  0.00    +0.005 C 
ATOM     12  C   UNL     1      -0.278  -3.183  -0.009  0.00  0.00    +0.037 C 
ATOM     13  C   UNL     1       1.242  -0.427  -0.012  0.00  0.00    +0.173 A 
ATOM     14  N   UNL     1       2.058   0.683  -0.014  0.00  0.00    -0.258 N 
ATOM     15  C   UNL     1       1.210   1.756  -0.000  0.00  0.00    +0.198 A 
ATOM     16  N   UNL     1      -0.015   1.284   0.009  0.00  0.00    -0.122 NA
ATOM     17  N   UNL     1       0.002  -0.004   0.002  0.00  0.00    -0.128 NA
ENDROOT
BRANCH  15  18
ATOM     18  S   UNL     1       1.675   3.456   0.004  0.00  0.00    -0.076 S 
BRANCH  18  19
ATOM     19  C   UNL     1       0.094   4.343   0.025  0.00  0.00    +0.173 C 
BRANCH  19  20
ATOM     20  C   UNL     1       0.351   5.828   0.030  0.00  0.00    +0.229 C 
ATOM     21  O   UNL     1       1.490   6.246   0.021  0.00  0.00    -0.275 OA
ATOM     22  N   UNL     1      -0.684   6.692   0.045  0.00  0.00    -0.264 N 
ATOM     23  C   UNL     1      -0.446   8.061   0.050  0.00  0.00    +0.165 A 
ATOM     24  N   UNL     1      -1.315   9.053   0.059  0.00  0.00    -0.229 NA
ATOM     25  C   UNL     1      -0.918  10.310   0.067  0.00  0.00    +0.056 A 
ATOM     26  C   UNL     1       0.413  10.567   0.055  0.00  0.00    +0.072 A 
ATOM     27  S   UNL     1       1.071   8.905   0.039  0.00  0.00    -0.060 S 
ATOM     28  H   UNL     1      -1.594   6.357   0.052  0.00  0.00    +0.157 HD
BRANCH  25  29
ATOM     29  C   UNL     1      -1.920  11.436   0.084  0.00  0.00    +0.005 C 
ATOM     30  C   UNL     1      -1.994  12.072  -1.306  0.00  0.00    +0.017 C 
ATOM     31  C   UNL     1      -3.296  10.888   0.468  0.00  0.00    +0.017 C 
ATOM     32  C   UNL     1      -1.486  12.489   1.105  0.00  0.00    +0.017 C 
ENDBRANCH  25  29
ENDBRANCH  19  20
ENDBRANCH  18  19
ENDBRANCH  15  18
TORSDOF 4
