REMARK  Name = ZINC12787625
REMARK  10 active torsions:
REMARK  status: ('A' for Active; 'I' for Inactive)
REMARK    1  A    between atoms: C_1  and  C_2
REMARK    2  A    between atoms: C_2  and  C_4
REMARK    3  A    between atoms: C_2  and  N_7
REMARK    4  A    between atoms: C_4  and  O_5
REMARK    5  A    between atoms: O_5  and  C_6
REMARK    6  A    between atoms: C_17  and  S_18
REMARK    7  A    between atoms: S_18  and  C_19
REMARK    8  A    between atoms: C_19  and  C_20
REMARK    9  A    between atoms: N_22  and  C_23
REMARK   10  A    between atoms: C_24  and  C_32
REMARK                            x       y       z     vdW  Elec       q    Type
REMARK                         _______ _______ _______ _____ _____    ______ ____
ROOT
ATOM      1  C   UNL     1      -3.958  -1.876   0.837  0.00  0.00    +0.173 C 
ENDROOT
BRANCH   1   2
ATOM      2  C   UNL     1      -5.304  -2.519   1.048  0.00  0.00    +0.228 C 
ATOM      3  O   UNL     1      -5.413  -3.726   1.000  0.00  0.00    -0.275 OA
ATOM      4  N   UNL     1      -6.386  -1.754   1.290  0.00  0.00    -0.279 N 
ATOM      5  H   UNL     1      -6.298  -0.788   1.329  0.00  0.00    +0.155 HD
BRANCH   4   6
ATOM      6  C   UNL     1      -7.625  -2.346   1.485  0.00  0.00    +0.084 A 
ATOM      7  C   UNL     1      -8.841  -1.733   1.750  0.00  0.00    +0.068 A 
ATOM      8  C   UNL     1     -10.004  -2.589   1.911  0.00  0.00    -0.023 A 
ATOM      9  C   UNL     1      -9.764  -3.913   1.792  0.00  0.00    -0.004 A 
ATOM     10  S   UNL     1      -8.028  -4.031   1.465  0.00  0.00    -0.077 S 
ATOM     11  C   UNL     1     -10.758  -5.026   1.915  0.00  0.00    +0.043 C 
ATOM     12  C   UNL     1     -12.031  -4.467   2.566  0.00  0.00    +0.005 C 
ATOM     13  C   UNL     1     -12.418  -3.166   1.858  0.00  0.00    +0.005 C 
ATOM     14  C   UNL     1     -11.407  -2.069   2.198  0.00  0.00    +0.037 C 
BRANCH   7  15
ATOM     15  C   UNL     1      -8.950  -0.275   1.858  0.00  0.00    +0.244 C 
ATOM     16  O   UNL     1      -9.189   0.393   0.869  0.00  0.00    -0.270 OA
ATOM     17  N   UNL     1      -8.786   0.326   3.054  0.00  0.00    -0.325 N 
ATOM     18  H   UNL     1      -8.596  -0.206   3.842  0.00  0.00    +0.145 HD
ATOM     19  H   UNL     1      -8.858   1.291   3.125  0.00  0.00    +0.145 HD
ENDBRANCH   7  15
ENDBRANCH   4   6
ENDBRANCH   1   2
BRANCH   1  20
ATOM     20  S   UNL     1      -2.716  -3.159   0.536  0.00  0.00    -0.078 S 
BRANCH  20  31
ATOM     21  N   UNL     1      -0.090  -2.769   0.074  0.00  0.00    -0.282 N 
ATOM     22  C   UNL     1       1.036  -2.037  -0.093  0.00  0.00    +0.263 A 
ATOM     23  O   UNL     1       2.107  -2.568  -0.320  0.00  0.00    -0.267 OA
ATOM     24  C   UNL     1       0.917  -0.576   0.011  0.00  0.00    +0.065 A 
ATOM     25  C   UNL     1       2.018   0.266  -0.145  0.00  0.00    +0.015 A 
ATOM     26  C   UNL     1       1.851   1.619  -0.038  0.00  0.00    +0.001 A 
ATOM     27  C   UNL     1       0.600   2.162   0.223  0.00  0.00    +0.002 A 
ATOM     28  C   UNL     1      -0.495   1.360   0.380  0.00  0.00    +0.028 A 
ATOM     29  C   UNL     1      -0.358  -0.027   0.277  0.00  0.00    +0.079 A 
ATOM     30  N   UNL     1      -1.412  -0.855   0.425  0.00  0.00    -0.223 NA
ATOM     31  C   UNL     1      -1.283  -2.155   0.328  0.00  0.00    +0.173 A 
BRANCH  21  33
ATOM     32  C   UNL     1       0.637  -4.629  -1.337  0.00  0.00    +0.033 C 
ATOM     33  C   UNL     1      -0.028  -4.229  -0.019  0.00  0.00    +0.115 C 
BRANCH  33  34
ATOM     34  C   UNL     1       0.787  -4.781   1.152  0.00  0.00    +0.184 C 
BRANCH  34  35
ATOM     35  O   UNL     1       2.148  -4.364   1.024  0.00  0.00    -0.381 OA
ATOM     36  C   UNL     1       3.000  -4.828   2.072  0.00  0.00    +0.194 C 
ENDBRANCH  34  35
ENDBRANCH  33  34
ENDBRANCH  21  33
ENDBRANCH  20  31
ENDBRANCH   1  20
TORSDOF 8
