REMARK  Name = ZINC21343330
REMARK  6 active torsions:
REMARK  status: ('A' for Active; 'I' for Inactive)
REMARK    1  A    between atoms: C_10  and  C_11
REMARK    2  A    between atoms: C_11  and  N_12
REMARK    3  A    between atoms: C_19  and  C_22
REMARK    4  A    between atoms: C_19  and  O_35
REMARK    5  A    between atoms: C_22  and  C_23
REMARK    6  A    between atoms: C_23  and  C_25
REMARK                            x       y       z     vdW  Elec       q    Type
REMARK                         _______ _______ _______ _____ _____    ______ ____
ROOT
ATOM      1  N   UNL     1      -1.484  10.810  -2.498  0.00  0.00    -0.264 N 
ATOM      2  C   UNL     1      -2.327  10.786  -3.611  0.00  0.00    +0.043 A 
ATOM      3  C   UNL     1      -2.358  11.593  -4.747  0.00  0.00    +0.025 A 
ATOM      4  C   UNL     1      -3.301  11.370  -5.728  0.00  0.00    +0.022 A 
ATOM      5  C   UNL     1      -4.222  10.345  -5.594  0.00  0.00    +0.041 A 
ATOM      6  C   UNL     1      -4.197   9.540  -4.468  0.00  0.00    +0.028 A 
ATOM      7  C   UNL     1      -3.256   9.761  -3.487  0.00  0.00    +0.016 A 
ATOM      8  C   UNL     1      -2.966   9.080  -2.170  0.00  0.00    +0.176 C 
ATOM      9  C   UNL     1      -1.788   9.849  -1.609  0.00  0.00    +0.257 C 
ATOM     10  O   UNL     1      -1.225   9.638  -0.556  0.00  0.00    -0.272 OA
ATOM     11 CL   UNL     1      -5.406  10.071  -6.834  0.00  0.00    -0.084 Cl
ENDROOT
BRANCH   8  12
ATOM     12  O   UNL     1      -4.090   9.179  -1.293  0.00  0.00    -0.374 OA
ATOM     13  H   UNL     1      -4.045   8.733  -0.288  0.00  0.00    +0.211 HD
ENDBRANCH   8  12
BRANCH   1  14
ATOM     14  C   UNL     1      -0.394  11.772  -2.320  0.00  0.00    +0.149 C 
BRANCH  14  24
ATOM     15  C   UNL     1       4.531  13.168  -2.324  0.00  0.00    +0.001 A 
ATOM     16  C   UNL     1       3.350  13.740  -1.854  0.00  0.00    +0.001 A 
ATOM     17  C   UNL     1       2.155  13.106  -2.006  0.00  0.00    +0.009 A 
ATOM     18  C   UNL     1       2.107  11.858  -2.651  0.00  0.00    -0.013 A 
ATOM     19  C   UNL     1       3.309  11.274  -3.125  0.00  0.00    -0.018 A 
ATOM     20  C   UNL     1       4.523  11.959  -2.950  0.00  0.00    +0.008 A 
ATOM     21  C   UNL     1       3.261  10.025  -3.765  0.00  0.00    +0.008 A 
ATOM     22  C   UNL     1       2.066   9.390  -3.917  0.00  0.00    +0.001 A 
ATOM     23  C   UNL     1       0.886   9.962  -3.447  0.00  0.00    +0.006 A 
ATOM     24  C   UNL     1       0.893  11.171  -2.821  0.00  0.00    -0.022 A 
ENDBRANCH  14  24
ENDBRANCH   1  14
BRANCH   8  25
ATOM     25  C   UNL     1      -2.591   7.614  -2.395  0.00  0.00    +0.129 C 
BRANCH  25  26
ATOM     26  C   UNL     1      -2.214   6.984  -1.079  0.00  0.00    +0.167 C 
ATOM     27  O   UNL     1      -2.242   7.642  -0.061  0.00  0.00    -0.292 OA
BRANCH  26  28
ATOM     28  C   UNL     1      -1.812   5.572  -1.030  0.00  0.00    +0.021 A 
ATOM     29  C   UNL     1      -1.777   4.810  -2.204  0.00  0.00    +0.015 A 
ATOM     30  C   UNL     1      -1.401   3.487  -2.153  0.00  0.00    +0.050 A 
ATOM     31  C   UNL     1      -1.053   2.902  -0.939  0.00  0.00    +0.162 A 
ATOM     32  C   UNL     1      -1.083   3.655   0.233  0.00  0.00    +0.163 A 
ATOM     33  C   UNL     1      -1.461   4.984   0.191  0.00  0.00    +0.060 A 
ATOM     34  O   UNL     1      -0.739   3.099   1.427  0.00  0.00    -0.485 OA
ATOM     35  C   UNL     1      -0.723   1.669   1.489  0.00  0.00    +0.270 C 
ATOM     36  C   UNL     1       0.013   1.142   0.250  0.00  0.00    +0.270 C 
ATOM     37  O   UNL     1      -0.688   1.593  -0.914  0.00  0.00    -0.485 OA
ENDBRANCH  26  28
ENDBRANCH  25  26
ENDBRANCH   8  25
TORSDOF 6
