REMARK  Name = ZINC35434303
REMARK  11 active torsions:
REMARK  status: ('A' for Active; 'I' for Inactive)
REMARK    1  A    between atoms: C_1  and  C_2
REMARK    2  A    between atoms: C_2  and  C_3
REMARK    3  A    between atoms: C_10  and  C_12
REMARK    4  A    between atoms: C_12  and  C_14
REMARK    5  A    between atoms: C_12  and  O_15
REMARK    6  A    between atoms: O_15  and  C_16
REMARK    7  A    between atoms: C_16  and  C_18
REMARK    8  A    between atoms: C_18  and  N_19
REMARK    9  A    between atoms: C_20  and  C_22
REMARK   10  A    between atoms: C_24  and  C_29
REMARK   11  A    between atoms: C_26  and  C_28
REMARK                            x       y       z     vdW  Elec       q    Type
REMARK                         _______ _______ _______ _____ _____    ______ ____
ROOT
ATOM      1  C   UNL     1      -4.096   1.915  -3.885  0.00  0.00    +0.325 C 
ATOM      2  O   UNL     1      -4.065   1.238  -4.885  0.00  0.00    -0.249 OA
ENDROOT
BRANCH   1   3
ATOM      3  O   UNL     1      -3.008   2.012  -3.106  0.00  0.00    -0.451 OA
BRANCH   3   4
ATOM      4  C   UNL     1      -1.847   1.288  -3.519  0.00  0.00    +0.259 C 
ATOM      5  C   UNL     1      -0.991   2.172  -4.427  0.00  0.00    +0.062 C 
BRANCH   4  12
ATOM      6  C   UNL     1       0.788  -0.357  -1.268  0.00  0.00    +0.076 C 
ATOM      7  C   UNL     1       0.914  -1.882  -1.328  0.00  0.00    +0.022 C 
ATOM      8  C   UNL     1       1.540  -2.286  -2.665  0.00  0.00    +0.003 C 
ATOM      9  C   UNL     1       0.634  -1.831  -3.812  0.00  0.00    +0.019 C 
ATOM     10  C   UNL     1       0.504  -0.305  -3.780  0.00  0.00    +0.108 C 
ATOM     11  N   UNL     1       0.042   0.105  -2.446  0.00  0.00    -0.295 N 
ATOM     12  C   UNL     1      -1.047   0.887  -2.307  0.00  0.00    +0.256 C 
ATOM     13  O   UNL     1      -1.382   1.269  -1.205  0.00  0.00    -0.272 OA
BRANCH   6  15
ATOM     14  C   UNL     1       0.801  -0.463   1.229  0.00  0.00    +0.006 C 
ATOM     15  C   UNL     1       0.038   0.046   0.004  0.00  0.00    +0.019 C 
ENDBRANCH   6  15
ENDBRANCH   4  12
ENDBRANCH   3   4
ENDBRANCH   1   3
BRANCH   1  16
ATOM     16  C   UNL     1      -5.357   2.652  -3.513  0.00  0.00    +0.225 C 
BRANCH  16  17
ATOM     17  N   UNL     1      -6.392   2.386  -4.515  0.00  0.00    -0.301 N 
ATOM     18  C   UNL     1      -7.613   2.943  -4.388  0.00  0.00    +0.245 C 
ATOM     19  O   UNL     1      -7.855   3.667  -3.441  0.00  0.00    -0.270 OA
ATOM     20  H   UNL     1      -6.199   1.808  -5.270  0.00  0.00    +0.150 HD
BRANCH  18  21
ATOM     21  C   UNL     1      -8.657   2.675  -5.399  0.00  0.00    +0.037 A 
ATOM     22  C   UNL     1      -8.384   1.840  -6.484  0.00  0.00    +0.016 A 
ATOM     23  C   UNL     1      -9.363   1.593  -7.424  0.00  0.00    -0.049 A 
ATOM     24  C   UNL     1     -10.613   2.171  -7.293  0.00  0.00    +0.006 A 
ATOM     25  C   UNL     1     -10.890   3.000  -6.221  0.00  0.00    -0.049 A 
ATOM     26  C   UNL     1      -9.922   3.250  -5.271  0.00  0.00    +0.016 A 
ATOM     27  C   UNL     1     -12.254   3.626  -6.087  0.00  0.00    +0.044 C 
ATOM     28  C   UNL     1      -9.070   0.692  -8.596  0.00  0.00    +0.044 C 
ENDBRANCH  18  21
ENDBRANCH  16  17
ENDBRANCH   1  16
TORSDOF 7
