REMARK  Name = ZINC65739978
REMARK  10 active torsions:
REMARK  status: ('A' for Active; 'I' for Inactive)
REMARK    1  A    between atoms: C_1  and  C_2
REMARK    2  A    between atoms: C_2  and  C_3
REMARK    3  A    between atoms: C_3  and  N_4
REMARK    4  A    between atoms: N_4  and  C_5
REMARK    5  A    between atoms: C_12  and  C_14
REMARK    6  A    between atoms: C_14  and  C_15
REMARK    7  A    between atoms: C_25  and  N_27
REMARK    8  A    between atoms: N_27  and  C_28
REMARK    9  A    between atoms: C_28  and  C_29
REMARK   10  A    between atoms: C_29  and  C_30
REMARK                            x       y       z     vdW  Elec       q    Type
REMARK                         _______ _______ _______ _____ _____    ______ ____
ROOT
ATOM      1  C   UNL     1      -8.239  -5.533   3.507  0.00  0.00    +0.020 C 
ATOM      2  C   UNL     1      -7.391  -6.627   2.952  0.00  0.00    +0.016 A 
ATOM      3  C   UNL     1      -6.360  -7.266   3.560  0.00  0.00    +0.054 A 
ATOM      4  N   UNL     1      -5.774  -8.209   2.825  0.00  0.00    -0.230 NA
ATOM      5  C   UNL     1      -6.177  -8.488   1.604  0.00  0.00    +0.156 A 
ATOM      6  S   UNL     1      -7.458  -7.417   1.369  0.00  0.00    -0.057 S 
ATOM      7  N   UNL     1      -5.672  -9.433   0.725  0.00  0.00    -0.338 N 
ATOM      8  C   UNL     1      -5.946  -6.895   4.977  0.00  0.00    +0.055 C 
ATOM      9  C   UNL     1      -7.097  -6.137   5.642  0.00  0.00    -0.009 C 
ATOM     10  C   UNL     1      -7.542  -4.970   4.756  0.00  0.00    -0.063 C 
ATOM     11  H   UNL     1      -4.924  -9.991   0.990  0.00  0.00    +0.144 HD
ATOM     12  H   UNL     1      -6.067  -9.537  -0.155  0.00  0.00    +0.144 HD
ENDROOT
BRANCH  10  13
ATOM     13  N   UNL     1      -8.477  -4.115   5.499  0.00  0.00    +0.381 N 
ATOM     14  H   UNL     1      -8.840  -3.401   4.885  0.00  0.00    -0.086 HD
ATOM     15  H   UNL     1      -9.239  -4.676   5.849  0.00  0.00    -0.086 HD
BRANCH  13  16
ATOM     16  C   UNL     1      -7.776  -3.483   6.624  0.00  0.00    -0.082 C 
BRANCH  16  17
ATOM     17  C   UNL     1      -8.750  -2.593   7.398  0.00  0.00    -0.022 C 
ATOM     18  C   UNL     1      -8.019  -1.935   8.570  0.00  0.00    +0.002 C 
ENDBRANCH  16  17
ENDBRANCH  13  16
ENDBRANCH  10  13
BRANCH   1  19
ATOM     19  C   UNL     1      -8.402  -4.426   2.463  0.00  0.00    +0.070 C 
BRANCH  19  26
ATOM     20  C   UNL     1      -2.771  -2.208   0.340  0.00  0.00    -0.067 C 
ATOM     21  C   UNL     1      -2.663  -3.731   0.225  0.00  0.00    -0.009 C 
ATOM     22  C   UNL     1      -4.033  -4.334  -0.093  0.00  0.00    +0.055 C 
ATOM     23  C   UNL     1      -5.039  -3.822   0.927  0.00  0.00    +0.052 A 
ATOM     24  C   UNL     1      -4.771  -2.713   1.667  0.00  0.00    +0.011 A 
ATOM     25  S   UNL     1      -6.223  -2.560   2.668  0.00  0.00    -0.077 S 
ATOM     26  C   UNL     1      -7.044  -3.905   2.068  0.00  0.00    +0.079 A 
ATOM     27  N   UNL     1      -6.215  -4.386   1.177  0.00  0.00    -0.249 NA
ATOM     28  C   UNL     1      -3.550  -1.858   1.618  0.00  0.00    +0.028 C 
BRANCH  20  29
ATOM     29  N   UNL     1      -1.425  -1.623   0.408  0.00  0.00    +0.381 N 
ATOM     30  H   UNL     1      -0.886  -1.924  -0.390  0.00  0.00    -0.086 HD
ATOM     31  H   UNL     1      -0.969  -1.925   1.256  0.00  0.00    -0.086 HD
BRANCH  29  32
ATOM     32  C   UNL     1      -1.528  -0.157   0.404  0.00  0.00    -0.082 C 
BRANCH  32  34
ATOM     33  C   UNL     1      -0.233   1.979   0.471  0.00  0.00    +0.002 C 
ATOM     34  C   UNL     1      -0.126   0.452   0.475  0.00  0.00    -0.022 C 
ENDBRANCH  32  34
ENDBRANCH  29  32
ENDBRANCH  20  29
ENDBRANCH  19  26
ENDBRANCH   1  19
TORSDOF 8
