REMARK  Name = ZINC13126954
REMARK  9 active torsions:
REMARK  status: ('A' for Active; 'I' for Inactive)
REMARK    1  A    between atoms: C_1  and  C_2
REMARK    2  A    between atoms: C_2  and  C_3
REMARK    3  A    between atoms: C_4  and  C_12
REMARK    4  A    between atoms: C_12  and  N_52
REMARK    5  A    between atoms: C_13  and  N_52
REMARK    6  A    between atoms: C_14  and  C_15
REMARK    7  A    between atoms: C_14  and  N_52
REMARK    8  A    between atoms: N_17  and  C_18
REMARK    9  A    between atoms: C_23  and  N_24
REMARK                            x       y       z     vdW  Elec       q    Type
REMARK                         _______ _______ _______ _____ _____    ______ ____
ROOT
ATOM      1  C   UNL     1       3.326   5.918  -1.392  0.00  0.00    +0.019 C 
ENDROOT
BRANCH   1   2
ATOM      2  C   UNL     1       3.851   6.001  -2.802  0.00  0.00    +0.201 C 
ATOM      3  O   UNL     1       3.302   5.384  -3.691  0.00  0.00    -0.278 OA
ATOM      4  N   UNL     1       4.930   6.760  -3.076  0.00  0.00    -0.285 N 
ATOM      5  H   UNL     1       5.331   7.303  -2.379  0.00  0.00    +0.155 HD
BRANCH   4   6
ATOM      6  C   UNL     1       5.474   6.765  -4.366  0.00  0.00    +0.060 A 
ATOM      7  C   UNL     1       4.643   6.655  -5.471  0.00  0.00    +0.045 A 
ATOM      8  C   UNL     1       5.181   6.665  -6.745  0.00  0.00    +0.043 A 
ATOM      9  C   UNL     1       6.550   6.774  -6.920  0.00  0.00    +0.022 A 
ATOM     10  C   UNL     1       7.385   6.878  -5.824  0.00  0.00    +0.031 A 
ATOM     11  C   UNL     1       6.852   6.875  -4.543  0.00  0.00    +0.088 A 
ATOM     12 CL   UNL     1       4.139   6.534  -8.127  0.00  0.00    -0.083 Cl
BRANCH  11  13
ATOM     13  N   UNL     1       7.699   6.980  -3.429  0.00  0.00    -0.218 N 
ATOM     14  C   UNL     1       9.030   7.186  -3.443  0.00  0.00    +0.225 A 
ATOM     15  N   UNL     1       9.446   7.226  -2.203  0.00  0.00    -0.222 NA
ATOM     16  C   UNL     1       8.419   7.041  -1.375  0.00  0.00    +0.245 A 
ATOM     17  N   UNL     1       7.327   6.886  -2.078  0.00  0.00    -0.153 NA
ENDBRANCH  11  13
ENDBRANCH   4   6
ENDBRANCH   1   2
BRANCH   1  19
ATOM     18  C   UNL     1       1.035   5.614  -2.114  0.00  0.00    -0.095 C 
ATOM     19  N   UNL     1       2.160   5.010  -1.370  0.00  0.00    +0.386 N 
ATOM     20  H   UNL     1       2.420   4.123  -1.820  0.00  0.00    -0.081 HD
BRANCH  19  21
ATOM     21  C   UNL     1       1.757   4.739   0.026  0.00  0.00    -0.039 C 
BRANCH  21  23
ATOM     22  C   UNL     1       1.153   2.264   0.046  0.00  0.00    +0.107 A 
ATOM     23  C   UNL     1       0.817   3.561   0.039  0.00  0.00    -0.015 A 
ATOM     24  C   UNL     1      -0.650   3.604   0.047  0.00  0.00    +0.022 A 
ATOM     25  C   UNL     1      -1.596   4.629   0.046  0.00  0.00    +0.012 A 
ATOM     26  C   UNL     1      -2.928   4.322   0.055  0.00  0.00    +0.001 A 
ATOM     27  C   UNL     1      -3.344   2.998   0.066  0.00  0.00    +0.004 A 
ATOM     28  C   UNL     1      -2.424   1.972   0.068  0.00  0.00    +0.047 A 
ATOM     29  C   UNL     1      -1.065   2.262   0.058  0.00  0.00    +0.135 A 
ATOM     30  O   UNL     1       0.047   1.500   0.062  0.00  0.00    -0.459 OA
BRANCH  22  32
ATOM     31  C   UNL     1       3.008   1.452   1.476  0.00  0.00    +0.012 C 
ATOM     32  C   UNL     1       2.565   1.739   0.040  0.00  0.00    +0.071 C 
ENDBRANCH  22  32
ENDBRANCH  21  23
ENDBRANCH  19  21
ENDBRANCH   1  19
TORSDOF 7
