REMARK  Name = ZINC34756184
REMARK  9 active torsions:
REMARK  status: ('A' for Active; 'I' for Inactive)
REMARK    1  A    between atoms: C_1  and  C_2
REMARK    2  A    between atoms: C_5  and  C_33
REMARK    3  A    between atoms: C_6  and  C_8
REMARK    4  A    between atoms: C_8  and  N_9
REMARK    5  A    between atoms: C_22  and  S_24
REMARK    6  A    between atoms: S_24  and  C_25
REMARK    7  A    between atoms: C_25  and  C_26
REMARK    8  A    between atoms: C_26  and  C_27
REMARK    9  A    between atoms: C_26  and  C_28
REMARK                            x       y       z     vdW  Elec       q    Type
REMARK                         _______ _______ _______ _____ _____    ______ ____
ROOT
ATOM      1  N   UNL     1       2.396  -2.984   1.913  0.00  0.00    +0.384 N 
ATOM      2  C   UNL     1       3.805  -3.392   1.849  0.00  0.00    -0.059 C 
ATOM      3  C   UNL     1       4.136  -4.272   3.059  0.00  0.00    +0.088 C 
ATOM      4  N   UNL     1       3.769  -3.541   4.282  0.00  0.00    -0.318 N 
ATOM      5  C   UNL     1       2.423  -2.955   4.362  0.00  0.00    +0.088 C 
ATOM      6  C   UNL     1       2.173  -2.136   3.091  0.00  0.00    -0.059 C 
ATOM      7  C   UNL     1       4.666  -3.410   5.327  0.00  0.00    +0.134 A 
ATOM      8  C   UNL     1       4.628  -4.314   6.425  0.00  0.00    +0.051 A 
ATOM      9  C   UNL     1       3.726  -5.447   6.648  0.00  0.00    -0.025 A 
ATOM     10  C   UNL     1       3.901  -6.154   7.782  0.00  0.00    -0.004 A 
ATOM     11  S   UNL     1       5.258  -5.370   8.612  0.00  0.00    -0.073 S 
ATOM     12  C   UNL     1       5.588  -4.088   7.431  0.00  0.00    +0.115 A 
ATOM     13  N   UNL     1       6.456  -3.098   7.349  0.00  0.00    -0.215 NA
ATOM     14  C   UNL     1       6.444  -2.284   6.301  0.00  0.00    +0.191 A 
ATOM     15  N   UNL     1       5.570  -2.446   5.314  0.00  0.00    -0.206 NA
ATOM     16  C   UNL     1       3.116  -7.345   8.239  0.00  0.00    +0.043 C 
ATOM     17  C   UNL     1       1.830  -7.427   7.404  0.00  0.00    +0.005 C 
ATOM     18  C   UNL     1       2.194  -7.264   5.926  0.00  0.00    +0.005 C 
ATOM     19  C   UNL     1       2.631  -5.825   5.654  0.00  0.00    +0.037 C 
ATOM     20  H   UNL     1       1.813  -3.805   1.975  0.00  0.00    -0.081 HD
ENDROOT
BRANCH   1  21
ATOM     21  C   UNL     1       2.050  -2.232   0.699  0.00  0.00    -0.043 C 
BRANCH  21  27
ATOM     22  C   UNL     1       4.609  -3.857  -3.283  0.00  0.00    +0.044 C 
ATOM     23  C   UNL     1       3.385  -3.914  -2.407  0.00  0.00    -0.050 A 
ATOM     24  C   UNL     1       2.363  -4.796  -2.703  0.00  0.00    +0.003 A 
ATOM     25  C   UNL     1       1.240  -4.849  -1.899  0.00  0.00    +0.004 A 
ATOM     26  C   UNL     1       1.139  -4.019  -0.798  0.00  0.00    -0.049 A 
ATOM     27  C   UNL     1       2.161  -3.137  -0.501  0.00  0.00    -0.061 A 
ATOM     28  C   UNL     1       3.286  -3.088  -1.303  0.00  0.00    +0.005 A 
ATOM     29  C   UNL     1      -0.086  -4.075   0.078  0.00  0.00    +0.044 C 
ENDBRANCH  21  27
ENDBRANCH   1  21
BRANCH  14  30
ATOM     30  S   UNL     1       7.614  -0.970   6.214  0.00  0.00    -0.086 S 
BRANCH  30  31
ATOM     31  C   UNL     1       8.582  -1.142   7.739  0.00  0.00    +0.080 C 
BRANCH  31  32
ATOM     32  C   UNL     1       9.649  -0.047   7.792  0.00  0.00    -0.007 C 
ATOM     33  C   UNL     1       8.972   1.321   7.894  0.00  0.00    +0.008 C 
ATOM     34  C   UNL     1      10.544  -0.266   9.013  0.00  0.00    +0.008 C 
ENDBRANCH  31  32
ENDBRANCH  30  31
ENDBRANCH  14  30
TORSDOF 5
