REMARK  Name = ZINC16917957
REMARK  10 active torsions:
REMARK  status: ('A' for Active; 'I' for Inactive)
REMARK    1  A    between atoms: C_1  and  C_2
REMARK    2  A    between atoms: C_2  and  O_3
REMARK    3  A    between atoms: O_3  and  C_4
REMARK    4  A    between atoms: C_6  and  C_17
REMARK    5  A    between atoms: C_9  and  O_10
REMARK    6  A    between atoms: O_10  and  C_11
REMARK    7  A    between atoms: C_11  and  C_13
REMARK    8  A    between atoms: C_11  and  C_14
REMARK    9  A    between atoms: C_22  and  N_24
REMARK   10  A    between atoms: N_24  and  C_25
REMARK                            x       y       z     vdW  Elec       q    Type
REMARK                         _______ _______ _______ _____ _____    ______ ____
ROOT
ATOM      1  C   UNL     1       1.031   1.148   0.994  0.00  0.00    +0.162 A 
ATOM      2  C   UNL     1       0.867   2.501   0.776  0.00  0.00    +0.057 A 
ATOM      3  C   UNL     1       1.984   3.307   0.526  0.00  0.00    -0.020 A 
ATOM      4  C   UNL     1       3.262   2.735   0.497  0.00  0.00    +0.012 A 
ATOM      5  C   UNL     1       3.416   1.384   0.716  0.00  0.00    +0.050 A 
ATOM      6  C   UNL     1       2.307   0.586   0.965  0.00  0.00    +0.163 A 
ENDROOT
BRANCH   3   7
ATOM      7  C   UNL     1       1.816   4.747   0.293  0.00  0.00    +0.028 C 
ATOM      8  C   UNL     1       2.744   5.622   0.757  0.00  0.00    +0.079 C 
ATOM      9  C   UNL     1       3.904   5.392   1.650  0.00  0.00    +0.276 C 
ATOM     10  O   UNL     1       4.161   4.286   2.098  0.00  0.00    -0.267 OA
ATOM     11  N   UNL     1       4.640   6.443   1.933  0.00  0.00    -0.152 NA
ATOM     12  C   UNL     1       4.372   7.648   1.453  0.00  0.00    +0.175 C 
ATOM     13  S   UNL     1       2.916   7.377   0.455  0.00  0.00    -0.050 S 
BRANCH  12  14
ATOM     14  N   UNL     1       5.052   8.819   1.667  0.00  0.00    -0.191 NA
BRANCH  14  15
ATOM     15  C   UNL     1       6.253   8.810   2.382  0.00  0.00    +0.070 A 
ATOM     16  C   UNL     1       6.847   7.604   2.729  0.00  0.00    +0.026 A 
ATOM     17  C   UNL     1       8.037   7.598   3.431  0.00  0.00    +0.002 A 
ATOM     18  C   UNL     1       8.630   8.792   3.799  0.00  0.00    +0.001 A 
ATOM     19  C   UNL     1       8.039   9.995   3.460  0.00  0.00    +0.017 A 
ATOM     20  C   UNL     1       6.852  10.008   2.752  0.00  0.00    +0.041 A 
ATOM     21 BR   UNL     1       6.044  11.653   2.289  0.00  0.00    -0.048 Br
ENDBRANCH  14  15
ENDBRANCH  12  14
ENDBRANCH   3   7
BRANCH   1  22
ATOM     22  O   UNL     1      -0.052   0.362   1.238  0.00  0.00    -0.489 OA
BRANCH  22  24
ATOM     23  C   UNL     1      -2.416  -0.033   1.542  0.00  0.00    +0.048 C 
ATOM     24  C   UNL     1      -1.328   1.004   1.254  0.00  0.00    +0.226 C 
ENDBRANCH  22  24
ENDBRANCH   1  22
BRANCH   6  25
ATOM     25  O   UNL     1       2.466  -0.745   1.180  0.00  0.00    -0.474 OA
BRANCH  25  26
ATOM     26  C   UNL     1       3.789  -1.270   1.051  0.00  0.00    +0.283 C 
ATOM     27  C   UNL     1       4.081  -1.558  -0.423  0.00  0.00    +0.064 C 
BRANCH  26  28
ATOM     28  C   UNL     1       3.903  -2.546   1.844  0.00  0.00    +0.395 C 
ATOM     29  O   UNL     1       2.927  -3.012   2.383  0.00  0.00    -0.242 OA
ATOM     30  O   UNL     1       5.089  -3.166   1.952  0.00  0.00    -0.242 OA
ENDBRANCH  26  28
ENDBRANCH  25  26
ENDBRANCH   6  25
TORSDOF 8
