REMARK  Name = ZINC65623234
REMARK  8 active torsions:
REMARK  status: ('A' for Active; 'I' for Inactive)
REMARK    1  A    between atoms: C_1  and  C_2
REMARK    2  A    between atoms: C_2  and  N_3
REMARK    3  A    between atoms: N_3  and  C_4
REMARK    4  A    between atoms: C_4  and  C_5
REMARK    5  A    between atoms: C_12  and  C_14
REMARK    6  A    between atoms: C_14  and  C_16
REMARK    7  A    between atoms: C_16  and  C_18
REMARK    8  A    between atoms: C_16  and  C_20
REMARK                            x       y       z     vdW  Elec       q    Type
REMARK                         _______ _______ _______ _____ _____    ______ ____
ROOT
ATOM      1  C   UNL     1      -5.232  -1.347  -7.270  0.00  0.00    +0.228 C 
ENDROOT
BRANCH   1   2
ATOM      2  C   UNL     1      -5.732  -1.053  -8.661  0.00  0.00    +0.136 A 
ATOM      3  N   UNL     1      -6.857  -0.311  -8.823  0.00  0.00    -0.309 N 
ATOM      4  H   UNL     1      -7.325   0.020  -8.039  0.00  0.00    +0.170 HD
ATOM      5  C   UNL     1      -7.338  -0.024 -10.047  0.00  0.00    +0.260 A 
ATOM      6  O   UNL     1      -8.350   0.644 -10.175  0.00  0.00    -0.267 OA
ATOM      7  C   UNL     1      -6.640  -0.517 -11.198  0.00  0.00    +0.075 A 
ATOM      8  C   UNL     1      -6.974  -0.334 -12.610  0.00  0.00    -0.023 A 
ATOM      9  C   UNL     1      -6.148  -0.905 -13.512  0.00  0.00    -0.004 A 
ATOM     10  S   UNL     1      -4.896  -1.707 -12.547  0.00  0.00    -0.073 S 
ATOM     11  C   UNL     1      -5.488  -1.274 -10.931  0.00  0.00    +0.116 A 
ATOM     12  N   UNL     1      -5.071  -1.511  -9.691  0.00  0.00    -0.225 NA
ATOM     13  C   UNL     1      -6.270  -0.866 -15.005  0.00  0.00    +0.043 C 
ATOM     14  C   UNL     1      -7.685  -0.391 -15.364  0.00  0.00    +0.005 C 
ATOM     15  C   UNL     1      -8.011   0.852 -14.531  0.00  0.00    +0.005 C 
ATOM     16  C   UNL     1      -8.194   0.461 -13.064  0.00  0.00    +0.037 C 
ENDBRANCH   1   2
BRANCH   1  17
ATOM     17  C   UNL     1      -3.748  -1.604  -7.314  0.00  0.00    +0.194 C 
ATOM     18  O   UNL     1      -3.229  -2.001  -8.339  0.00  0.00    -0.290 OA
BRANCH  17  26
ATOM     19  N   UNL     1       0.688  -0.476  -1.203  0.00  0.00    -0.310 N 
ATOM     20  C   UNL     1      -0.029  -0.710  -2.358  0.00  0.00    +0.162 A 
ATOM     21  N   UNL     1      -1.322  -0.563  -2.576  0.00  0.00    -0.218 NA
ATOM     22  C   UNL     1      -1.875  -0.829  -3.751  0.00  0.00    +0.118 A 
ATOM     23  C   UNL     1      -1.029  -1.282  -4.785  0.00  0.00    +0.049 A 
ATOM     24  S   UNL     1       0.553  -1.281  -3.946  0.00  0.00    -0.052 S 
ATOM     25  C   UNL     1      -1.596  -1.560  -6.005  0.00  0.00    +0.036 A 
ATOM     26  C   UNL     1      -2.963  -1.385  -6.168  0.00  0.00    +0.059 A 
ATOM     27  S   UNL     1      -3.472  -0.811  -4.559  0.00  0.00    -0.065 S 
BRANCH  19  29
ATOM     28  C   UNL     1      -0.019   1.526   0.010  0.00  0.00    +0.024 C 
ATOM     29  C   UNL     1       0.002  -0.004   0.002  0.00  0.00    +0.103 C 
ENDBRANCH  19  29
BRANCH  19  30
ATOM     30  C   UNL     1       2.135  -0.701  -1.182  0.00  0.00    +0.103 C 
ATOM     31  C   UNL     1       2.421  -2.145  -0.763  0.00  0.00    +0.024 C 
ENDBRANCH  19  30
ENDBRANCH  17  26
ENDBRANCH   1  17
BRANCH   1  32
ATOM     32  C   UNL     1      -5.921  -2.536  -6.743  0.00  0.00    +0.082 C 
ATOM     33  N   UNL     1      -6.453  -3.454  -6.336  0.00  0.00    -0.195 NA
ENDBRANCH   1  32
TORSDOF 6
