REMARK  Name = ZINC43735773
REMARK  12 active torsions:
REMARK  status: ('A' for Active; 'I' for Inactive)
REMARK    1  A    between atoms: C_1  and  C_2
REMARK    2  A    between atoms: C_2  and  O_4
REMARK    3  A    between atoms: O_4  and  C_5
REMARK    4  A    between atoms: C_5  and  C_6
REMARK    5  A    between atoms: C_6  and  C_8
REMARK    6  A    between atoms: C_8  and  O_36
REMARK    7  A    between atoms: C_13  and  C_35
REMARK    8  A    between atoms: C_23  and  C_34
REMARK    9  A    between atoms: C_26  and  O_29
REMARK   10  A    between atoms: O_29  and  P_30
REMARK   11  A    between atoms: O_36  and  C_37
REMARK   12  A    between atoms: C_37  and  C_39
REMARK                            x       y       z     vdW  Elec       q    Type
REMARK                         _______ _______ _______ _____ _____    ______ ____
ROOT
ATOM      1  C   UNL     1      -2.532  -4.115  -0.023  0.00  0.00    +0.180 C 
ATOM      2  C   UNL     1      -2.322  -4.351  -1.532  0.00  0.00    +0.057 C 
ATOM      3  C   UNL     1      -3.614  -5.013  -2.055  0.00  0.00    +0.009 C 
ATOM      4  C   UNL     1      -4.204  -5.746  -0.823  0.00  0.00    +0.003 C 
ATOM      5  C   UNL     1      -3.832  -4.829   0.346  0.00  0.00    +0.018 C 
ATOM      6  C   UNL     1      -3.828  -5.500   1.696  0.00  0.00    +0.011 C 
ATOM      7  C   UNL     1      -3.118  -6.854   1.678  0.00  0.00    +0.005 C 
ATOM      8  C   UNL     1      -3.813  -7.743   0.647  0.00  0.00    +0.003 C 
ATOM      9  C   UNL     1      -3.604  -7.141  -0.740  0.00  0.00    +0.000 C 
ATOM     10  C   UNL     1      -2.116  -7.138  -1.076  0.00  0.00    +0.031 C 
ATOM     11  C   UNL     1      -1.562  -8.527  -0.911  0.00  0.00    -0.027 C 
ATOM     12  C   UNL     1      -2.085  -9.412  -0.115  0.00  0.00    -0.065 C 
ATOM     13  C   UNL     1      -3.311  -9.174   0.718  0.00  0.00    -0.008 C 
ATOM     14  C   UNL     1      -3.029  -9.574   2.167  0.00  0.00    +0.014 C 
ATOM     15  C   UNL     1      -2.456 -10.988   2.240  0.00  0.00    +0.033 C 
ATOM     16  C   UNL     1      -1.148 -11.075   1.454  0.00  0.00    +0.134 C 
ATOM     17  C   UNL     1      -1.414 -10.772  -0.024  0.00  0.00    +0.063 C 
ATOM     18  C   UNL     1      -4.431 -10.076   0.183  0.00  0.00    +0.016 C 
ATOM     19  C   UNL     1      -4.928  -3.735   0.416  0.00  0.00    +0.016 C 
ENDROOT
BRANCH   1  20
ATOM     20  C   UNL     1      -2.679  -2.630   0.233  0.00  0.00    +0.214 C 
ATOM     21  O   UNL     1      -3.011  -1.893  -0.663  0.00  0.00    -0.289 OA
BRANCH  20  22
ATOM     22  C   UNL     1      -2.410  -2.073   1.607  0.00  0.00    +0.310 C 
BRANCH  22  23
ATOM     23  O   UNL     1      -2.512  -0.648   1.571  0.00  0.00    -0.457 OA
BRANCH  23  25
ATOM     24  C   UNL     1      -2.390   1.512   2.762  0.00  0.00    +0.136 C 
ATOM     25  C   UNL     1      -2.300   0.008   2.723  0.00  0.00    +0.304 C 
ATOM     26  O   UNL     1      -2.035  -0.608   3.728  0.00  0.00    -0.251 OA
ENDBRANCH  23  25
ENDBRANCH  22  23
ENDBRANCH  20  22
ENDBRANCH   1  20
BRANCH  16  27
ATOM     27  O   UNL     1      -0.211 -10.129   1.974  0.00  0.00    -0.280 OA
BRANCH  27  28
ATOM     28  P   UNL     1       1.216 -10.553   2.587  0.00  0.00    +0.532 P 
ATOM     29  O   UNL     1       1.002 -11.610   3.724  0.00  0.00    -0.222 OA
ATOM     30  O   UNL     1       2.105 -11.174   1.457  0.00  0.00    -0.115 OA
ATOM     31  O   UNL     1       1.928  -9.289   3.177  0.00  0.00    -0.115 OA
ENDBRANCH  27  28
ENDBRANCH  16  27
BRANCH   1  32
ATOM     32  O   UNL     1      -1.428  -4.613   0.729  0.00  0.00    -0.450 OA
BRANCH  32  33
ATOM     33  C   UNL     1      -0.213  -4.135   0.417  0.00  0.00    +0.305 C 
ATOM     34  O   UNL     1      -0.100  -3.272  -0.421  0.00  0.00    -0.251 OA
ATOM     35  C   UNL     1       1.010  -4.674   1.113  0.00  0.00    +0.136 C 
ENDBRANCH  32  33
ENDBRANCH   1  32
TORSDOF 8
