REMARK  Name = ZINC02173216
REMARK  12 active torsions:
REMARK  status: ('A' for Active; 'I' for Inactive)
REMARK    1  A    between atoms: C_1  and  C_2
REMARK    2  A    between atoms: C_5  and  S_8
REMARK    3  A    between atoms: S_8  and  N_11
REMARK    4  A    between atoms: N_11  and  C_12
REMARK    5  A    between atoms: N_11  and  C_19
REMARK    6  A    between atoms: C_12  and  C_13
REMARK    7  A    between atoms: C_19  and  C_20
REMARK    8  A    between atoms: N_22  and  N_23
REMARK    9  A    between atoms: C_24  and  C_25
REMARK   10  A    between atoms: C_28  and  O_31
REMARK   11  A    between atoms: O_31  and  C_32
REMARK   12  A    between atoms: C_32  and  C_33
REMARK                            x       y       z     vdW  Elec       q    Type
REMARK                         _______ _______ _______ _____ _____    ______ ____
ROOT
ATOM      1  C   UNL     1      -0.049  -3.152  -2.296  0.00  0.00    +0.207 C 
ENDROOT
BRANCH   1   2
ATOM      2  C   UNL     1      -0.447  -1.907  -3.046  0.00  0.00    +0.248 C 
ATOM      3  O   UNL     1       0.263  -0.924  -3.010  0.00  0.00    -0.273 OA
ATOM      4  N   UNL     1      -1.591  -1.885  -3.758  0.00  0.00    -0.206 N 
ATOM      5  H   UNL     1      -2.159  -2.671  -3.788  0.00  0.00    +0.177 HD
BRANCH   4   6
ATOM      6  N   UNL     1      -1.961  -0.728  -4.456  0.00  0.00    -0.188 NA
ATOM      7  C   UNL     1      -3.063  -0.707  -5.141  0.00  0.00    +0.138 C 
BRANCH   7   8
ATOM      8  C   UNL     1      -3.452   0.511  -5.875  0.00  0.00    -0.005 A 
ATOM      9  C   UNL     1      -2.638   1.646  -5.830  0.00  0.00    +0.013 A 
ATOM     10  C   UNL     1      -3.004   2.781  -6.520  0.00  0.00    +0.046 A 
ATOM     11  C   UNL     1      -4.183   2.800  -7.254  0.00  0.00    +0.121 A 
ATOM     12  C   UNL     1      -4.997   1.676  -7.298  0.00  0.00    +0.046 A 
ATOM     13  C   UNL     1      -4.638   0.535  -6.614  0.00  0.00    +0.013 A 
BRANCH  11  14
ATOM     14  O   UNL     1      -4.542   3.923  -7.929  0.00  0.00    -0.483 OA
BRANCH  14  15
ATOM     15  C   UNL     1      -3.659   5.043  -7.841  0.00  0.00    +0.324 C 
BRANCH  15  16
ATOM     16  C   UNL     1      -4.218   6.187  -8.648  0.00  0.00    +0.248 C 
ATOM     17  O   UNL     1      -5.268   6.056  -9.240  0.00  0.00    -0.272 OA
ATOM     18  N   UNL     1      -3.550   7.356  -8.711  0.00  0.00    -0.327 N 
ATOM     19  H   UNL     1      -2.709   7.461  -8.238  0.00  0.00    +0.145 HD
ATOM     20  H   UNL     1      -3.909   8.093  -9.230  0.00  0.00    +0.145 HD
ENDBRANCH  15  16
ENDBRANCH  14  15
ENDBRANCH  11  14
ENDBRANCH   7   8
ENDBRANCH   4   6
ENDBRANCH   1   2
BRANCH   1  21
ATOM     21  N   UNL     1       1.223  -2.922  -1.608  0.00  0.00    -0.163 NA
BRANCH  21  22
ATOM     22  S   UNL     1       1.232  -2.441  -0.023  0.00  0.00    +0.062 S 
ATOM     23  O   UNL     1       2.489  -2.833   0.513  0.00  0.00    -0.153 OA
ATOM     24  O   UNL     1      -0.002  -2.867   0.538  0.00  0.00    -0.153 OA
BRANCH  22  29
ATOM     25  C   UNL     1       1.151   3.592   0.010  0.00  0.00    +0.044 C 
ATOM     26  C   UNL     1       1.171   2.086   0.002  0.00  0.00    -0.050 A 
ATOM     27  C   UNL     1      -0.017   1.378   0.010  0.00  0.00    +0.005 A 
ATOM     28  C   UNL     1       0.002  -0.004   0.002  0.00  0.00    +0.029 A 
ATOM     29  C   UNL     1       1.208  -0.679  -0.014  0.00  0.00    +0.106 A 
ATOM     30  C   UNL     1       2.396   0.029  -0.021  0.00  0.00    +0.029 A 
ATOM     31  C   UNL     1       2.377   1.411  -0.014  0.00  0.00    +0.005 A 
ENDBRANCH  22  29
ENDBRANCH  21  22
BRANCH  21  32
ATOM     32  C   UNL     1       2.488  -3.117  -2.321  0.00  0.00    +0.145 C 
BRANCH  32  33
ATOM     33  C   UNL     1       2.881  -4.571  -2.257  0.00  0.00    -0.032 A 
ATOM     34  C   UNL     1       3.670  -5.028  -1.218  0.00  0.00    +0.005 A 
ATOM     35  C   UNL     1       4.027  -6.362  -1.156  0.00  0.00    +0.000 A 
ATOM     36  C   UNL     1       3.604  -7.237  -2.139  0.00  0.00    +0.000 A 
ATOM     37  C   UNL     1       2.820  -6.778  -3.181  0.00  0.00    +0.000 A 
ATOM     38  C   UNL     1       2.458  -5.445  -3.240  0.00  0.00    +0.005 A 
ENDBRANCH  32  33
ENDBRANCH  21  32
ENDBRANCH   1  21
TORSDOF 11
