REMARK  Name = ZINC23778234
REMARK  10 active torsions:
REMARK  status: ('A' for Active; 'I' for Inactive)
REMARK    1  A    between atoms: C_1  and  C_2
REMARK    2  A    between atoms: C_2  and  C_3
REMARK    3  A    between atoms: C_3  and  N_4
REMARK    4  A    between atoms: N_4  and  C_5
REMARK    5  A    between atoms: N_4  and  C_16
REMARK    6  A    between atoms: C_5  and  C_6
REMARK    7  A    between atoms: C_9  and  C_11
REMARK    8  A    between atoms: C_16  and  C_17
REMARK    9  A    between atoms: N_19  and  C_20
REMARK   10  A    between atoms: C_23  and  N_27
REMARK                            x       y       z     vdW  Elec       q    Type
REMARK                         _______ _______ _______ _____ _____    ______ ____
ROOT
ATOM      1  N   UNL     1      -0.790   1.330   1.248  0.00  0.00    +0.391 N 
ATOM      2  H   UNL     1      -1.000   2.388   1.464  0.00  0.00    -0.080 HD
ENDROOT
BRANCH   1   3
ATOM      3  C   UNL     1      -2.068   0.666   0.963  0.00  0.00    -0.078 C 
BRANCH   3   5
ATOM      4  C   UNL     1      -3.137  -1.467   0.219  0.00  0.00    +0.002 C 
ATOM      5  C   UNL     1      -1.810  -0.789   0.567  0.00  0.00    -0.022 C 
ENDBRANCH   3   5
ENDBRANCH   1   3
BRANCH   1   6
ATOM      6  C   UNL     1       0.103   1.276   0.083  0.00  0.00    +0.021 C 
BRANCH   6   7
ATOM      7  C   UNL     1      -0.483   2.094  -1.039  0.00  0.00    +0.202 A 
ATOM      8  N   UNL     1      -0.275   3.362  -1.256  0.00  0.00    -0.114 NA
ATOM      9  N   UNL     1      -0.929   3.733  -2.299  0.00  0.00    -0.107 NA
ATOM     10  C   UNL     1      -1.591   2.706  -2.784  0.00  0.00    +0.255 A 
ATOM     11  O   UNL     1      -1.320   1.647  -1.993  0.00  0.00    -0.422 OA
BRANCH  10  12
ATOM     12  C   UNL     1      -2.464   2.709  -3.968  0.00  0.00    +0.076 A 
ATOM     13  C   UNL     1      -2.784   3.757  -4.811  0.00  0.00    +0.021 A 
ATOM     14  C   UNL     1      -3.630   3.511  -5.868  0.00  0.00    +0.008 A 
ATOM     15  C   UNL     1      -4.129   2.260  -6.043  0.00  0.00    +0.046 A 
ATOM     16  S   UNL     1      -3.392   1.364  -4.686  0.00  0.00    -0.092 S 
ENDBRANCH  10  12
ENDBRANCH   6   7
ENDBRANCH   1   6
BRANCH   1  17
ATOM     17  C   UNL     1      -0.146   0.747   2.433  0.00  0.00    +0.020 C 
BRANCH  17  18
ATOM     18  C   UNL     1      -0.896   1.168   3.670  0.00  0.00    +0.201 C 
ATOM     19  O   UNL     1      -1.808   1.964   3.586  0.00  0.00    -0.278 OA
ATOM     20  N   UNL     1      -0.554   0.660   4.871  0.00  0.00    -0.286 N 
ATOM     21  H   UNL     1       0.325   0.005   4.961  0.00  0.00    +0.155 HD
BRANCH  20  22
ATOM     22  C   UNL     1      -1.316   0.968   6.004  0.00  0.00    +0.048 A 
ATOM     23  C   UNL     1      -2.015   2.166   6.068  0.00  0.00    +0.026 A 
ATOM     24  C   UNL     1      -2.767   2.466   7.187  0.00  0.00    +0.034 A 
ATOM     25  C   UNL     1      -2.824   1.575   8.243  0.00  0.00    +0.127 A 
ATOM     26  C   UNL     1      -2.130   0.381   8.183  0.00  0.00    +0.049 A 
ATOM     27  C   UNL     1      -1.380   0.072   7.064  0.00  0.00    +0.041 A 
ATOM     28 BR   UNL     1      -0.436  -1.564   6.979  0.00  0.00    -0.048 Br
BRANCH  25  29
ATOM     29  N   UNL     1      -3.632   1.900   9.441  0.00  0.00    +0.056 N 
ATOM     30  O   UNL     1      -4.245   2.951   9.495  0.00  0.00    -0.126 OA
ATOM     31  O   UNL     1      -3.683   1.117  10.371  0.00  0.00    -0.126 OA
ENDBRANCH  25  29
ENDBRANCH  20  22
ENDBRANCH  17  18
ENDBRANCH   1  17
TORSDOF 9
