REMARK  Name = ZINC08916045
REMARK  6 active torsions:
REMARK  status: ('A' for Active; 'I' for Inactive)
REMARK    1  A    between atoms: C_1  and  O_2
REMARK    2  A    between atoms: O_2  and  C_3
REMARK    3  A    between atoms: C_6  and  C_9
REMARK    4  A    between atoms: C_9  and  O_11
REMARK    5  A    between atoms: O_11  and  C_12
REMARK    6  A    between atoms: C_15  and  C_18
REMARK                            x       y       z     vdW  Elec       q    Type
REMARK                         _______ _______ _______ _____ _____    ______ ____
ROOT
ATOM      1  C   UNL     1     -10.706  -5.127   0.216  0.00  0.00    +0.089 C 
ATOM      2  C   UNL     1     -10.714  -6.053  -0.980  0.00  0.00    +0.024 C 
ATOM      3  C   UNL     1     -10.446  -7.370  -0.871  0.00  0.00    +0.016 C 
ATOM      4  C   UNL     1     -10.473  -8.268  -2.087  0.00  0.00    +0.051 C 
ATOM      5  C   UNL     1     -10.056  -7.471  -3.325  0.00  0.00    +0.014 C 
ATOM      6  C   UNL     1     -11.027  -6.297  -3.490  0.00  0.00    +0.080 C 
ATOM      7  C   UNL     1     -11.017  -5.477  -2.230  0.00  0.00    +0.162 C 
ATOM      8  O   UNL     1     -11.275  -4.292  -2.291  0.00  0.00    -0.292 OA
ATOM      9  N   UNL     1     -10.146  -7.960   0.333  0.00  0.00    -0.317 N 
ATOM     10  C   UNL     1     -10.430  -7.281   1.494  0.00  0.00    +0.047 C 
ATOM     11  C   UNL     1     -10.705  -5.937   1.484  0.00  0.00    +0.033 C 
ATOM     12  C   UNL     1     -10.966  -5.496   2.801  0.00  0.00    +0.193 C 
ATOM     13  O   UNL     1     -11.245  -4.361   3.138  0.00  0.00    -0.287 OA
ATOM     14  C   UNL     1     -10.838  -6.668   3.696  0.00  0.00    +0.031 A 
ATOM     15  C   UNL     1     -10.505  -7.774   2.873  0.00  0.00    +0.007 A 
ATOM     16  C   UNL     1     -10.314  -9.034   3.417  0.00  0.00    +0.010 A 
ATOM     17  C   UNL     1     -10.466  -9.156   4.802  0.00  0.00    +0.001 A 
ATOM     18  C   UNL     1     -10.789  -8.082   5.596  0.00  0.00    +0.001 A 
ATOM     19  C   UNL     1     -10.984  -6.803   5.062  0.00  0.00    +0.012 A 
ATOM     20  H   UNL     1      -9.685  -8.959   0.356  0.00  0.00    +0.152 HD
ENDROOT
BRANCH   1  24
ATOM     21  C   UNL     1      -7.207  -2.676   0.091  0.00  0.00    +0.132 A 
ATOM     22  C   UNL     1      -7.087  -4.057   0.150  0.00  0.00    +0.046 A 
ATOM     23  C   UNL     1      -8.219  -4.847   0.196  0.00  0.00    +0.008 A 
ATOM     24  C   UNL     1      -9.472  -4.263   0.172  0.00  0.00    -0.035 A 
ATOM     25  C   UNL     1      -9.595  -2.887   0.108  0.00  0.00    +0.008 A 
ATOM     26  C   UNL     1      -8.466  -2.092   0.068  0.00  0.00    +0.046 A 
BRANCH  21  27
ATOM     27  O   UNL     1      -6.095  -1.897   0.051  0.00  0.00    -0.422 OA
BRANCH  27  28
ATOM     28  C   UNL     1      -5.744  -1.271   1.191  0.00  0.00    +0.344 C 
ATOM     29  O   UNL     1      -6.461  -1.344   2.170  0.00  0.00    -0.245 OA
BRANCH  28  33
ATOM     30  C   UNL     1      -2.135   0.958   1.367  0.00  0.00    +0.120 A 
ATOM     31  C   UNL     1      -2.498   0.318   0.188  0.00  0.00    +0.046 A 
ATOM     32  C   UNL     1      -3.664  -0.411   0.128  0.00  0.00    +0.018 A 
ATOM     33  C   UNL     1      -4.491  -0.496   1.252  0.00  0.00    +0.060 A 
ATOM     34  C   UNL     1      -4.125   0.154   2.435  0.00  0.00    +0.018 A 
ATOM     35  C   UNL     1      -2.954   0.875   2.488  0.00  0.00    +0.046 A 
BRANCH  30  37
ATOM     36  C   UNL     1      -0.188   1.715   0.236  0.00  0.00    +0.277 C 
ATOM     37  O   UNL     1      -0.982   1.671   1.423  0.00  0.00    -0.495 OA
ENDBRANCH  30  37
ENDBRANCH  28  33
ENDBRANCH  27  28
ENDBRANCH  21  27
ENDBRANCH   1  24
TORSDOF 5
