REMARK  Name = ZINC41515254
REMARK  10 active torsions:
REMARK  status: ('A' for Active; 'I' for Inactive)
REMARK    1  A    between atoms: C_1  and  C_2
REMARK    2  A    between atoms: C_2  and  O_3
REMARK    3  A    between atoms: O_3  and  C_4
REMARK    4  A    between atoms: C_9  and  C_10
REMARK    5  A    between atoms: C_15  and  C_33
REMARK    6  A    between atoms: C_17  and  O_32
REMARK    7  A    between atoms: C_18  and  C_21
REMARK    8  A    between atoms: C_21  and  N_22
REMARK    9  A    between atoms: C_24  and  C_31
REMARK   10  A    between atoms: C_27  and  C_30
REMARK                            x       y       z     vdW  Elec       q    Type
REMARK                         _______ _______ _______ _____ _____    ______ ____
ROOT
ATOM      1  C   UNL     1       1.985  -1.435  -3.481  0.00  0.00    +0.061 C 
ATOM      2  C   UNL     1       2.695  -1.943  -4.521  0.00  0.00    +0.176 C 
ATOM      3  C   UNL     1       2.890  -3.368  -4.824  0.00  0.00    +0.232 C 
ATOM      4  O   UNL     1       2.458  -4.328  -4.210  0.00  0.00    -0.283 OA
ATOM      5  C   UNL     1       3.726  -3.376  -6.039  0.00  0.00    +0.071 A 
ATOM      6  C   UNL     1       4.257  -4.399  -6.825  0.00  0.00    -0.033 A 
ATOM      7  C   UNL     1       5.014  -4.093  -7.921  0.00  0.00    +0.050 A 
ATOM      8  C   UNL     1       5.257  -2.763  -8.254  0.00  0.00    +0.122 A 
ATOM      9  C   UNL     1       4.736  -1.737  -7.482  0.00  0.00    +0.020 A 
ATOM     10  C   UNL     1       3.963  -2.031  -6.365  0.00  0.00    +0.145 A 
ATOM     11  O   UNL     1       3.347  -1.230  -5.469  0.00  0.00    -0.451 OA
ATOM     12  C   UNL     1       3.997  -5.840  -6.466  0.00  0.00    +0.045 C 
ENDROOT
BRANCH   1  18
ATOM     13  C   UNL     1       1.193  -2.159  -1.234  0.00  0.00    +0.128 A 
ATOM     14  C   UNL     1       0.434  -3.005  -0.441  0.00  0.00    +0.046 A 
ATOM     15  C   UNL     1      -0.315  -4.011  -1.019  0.00  0.00    +0.004 A 
ATOM     16  C   UNL     1      -0.316  -4.185  -2.394  0.00  0.00    +0.001 A 
ATOM     17  C   UNL     1       0.430  -3.355  -3.200  0.00  0.00    +0.011 A 
ATOM     18  C   UNL     1       1.191  -2.327  -2.629  0.00  0.00    +0.020 A 
BRANCH  13  19
ATOM     19  O   UNL     1       1.929  -1.171  -0.667  0.00  0.00    -0.492 OA
BRANCH  19  21
ATOM     20  C   UNL     1       2.768   0.101   1.209  0.00  0.00    +0.048 C 
ATOM     21  C   UNL     1       1.882  -1.061   0.757  0.00  0.00    +0.226 C 
ENDBRANCH  19  21
ENDBRANCH  13  19
ENDBRANCH   1  18
BRANCH   8  22
ATOM     22  O   UNL     1       6.010  -2.469  -9.344  0.00  0.00    -0.506 OA
ATOM     23  H   UNL     1       5.501  -2.377 -10.161  0.00  0.00    +0.292 HD
ENDBRANCH   8  22
BRANCH   9  24
ATOM     24  C   UNL     1       5.007  -0.302  -7.854  0.00  0.00    -0.036 C 
BRANCH  24  25
ATOM     25  N   UNL     1       3.955   0.176  -8.761  0.00  0.00    +0.383 N 
ATOM     26  C   UNL     1       4.015  -0.578 -10.019  0.00  0.00    -0.075 C 
ATOM     27  C   UNL     1       2.871  -0.140 -10.935  0.00  0.00    -0.031 C 
ATOM     28  C   UNL     1       3.004   1.357 -11.229  0.00  0.00    +0.003 C 
ATOM     29  C   UNL     1       3.014   2.127  -9.906  0.00  0.00    -0.031 C 
ATOM     30  C   UNL     1       4.153   1.606  -9.027  0.00  0.00    -0.075 C 
ATOM     31  C   UNL     1       3.224   3.617 -10.184  0.00  0.00    +0.005 C 
ATOM     32  C   UNL     1       2.937  -0.927 -12.246  0.00  0.00    +0.005 C 
ATOM     33  H   UNL     1       3.053   0.037  -8.331  0.00  0.00    -0.081 HD
ENDBRANCH  24  25
ENDBRANCH   9  24
TORSDOF 6
