REMARK  Name = ZINC06442946
REMARK  11 active torsions:
REMARK  status: ('A' for Active; 'I' for Inactive)
REMARK    1  A    between atoms: C_1  and  C_2
REMARK    2  A    between atoms: C_6  and  C_8
REMARK    3  A    between atoms: C_13  and  C_18
REMARK    4  A    between atoms: C_21  and  O_26
REMARK    5  A    between atoms: C_22  and  O_24
REMARK    6  A    between atoms: O_24  and  C_25
REMARK    7  A    between atoms: O_26  and  C_27
REMARK    8  A    between atoms: C_29  and  C_39
REMARK    9  A    between atoms: C_30  and  C_31
REMARK   10  A    between atoms: C_31  and  O_33
REMARK   11  A    between atoms: O_33  and  C_34
REMARK                            x       y       z     vdW  Elec       q    Type
REMARK                         _______ _______ _______ _____ _____    ______ ____
ROOT
ATOM      1  C   UNL     1      -0.070   5.347   0.031  0.00  0.00    +0.092 C 
ATOM      2  C   UNL     1      -0.762   5.826   1.282  0.00  0.00    +0.024 C 
ATOM      3  C   UNL     1      -2.035   6.273   1.238  0.00  0.00    +0.016 C 
ATOM      4  C   UNL     1      -2.738   6.742   2.488  0.00  0.00    +0.059 C 
ATOM      5  C   UNL     1      -1.717   7.338   3.459  0.00  0.00    +0.032 C 
ATOM      6  C   UNL     1      -0.667   6.269   3.777  0.00  0.00    +0.088 C 
ATOM      7  C   UNL     1      -0.046   5.795   2.491  0.00  0.00    +0.162 C 
ATOM      8  O   UNL     1       1.095   5.377   2.498  0.00  0.00    -0.292 OA
ATOM      9  N   UNL     1      -2.717   6.314   0.051  0.00  0.00    -0.321 N 
ATOM     10  C   UNL     1      -2.045   6.287  -1.139  0.00  0.00    +0.016 C 
ATOM     11  C   UNL     1      -0.781   5.837  -1.197  0.00  0.00    +0.065 C 
ATOM     12  C   UNL     1      -2.728   6.764  -2.395  0.00  0.00    +0.061 C 
ATOM     13  H   UNL     1      -3.815   6.369   0.049  0.00  0.00    +0.152 HD
ENDROOT
BRANCH   1  19
ATOM     14  C   UNL     1       2.490   1.048  -0.016  0.00  0.00    +0.044 C 
ATOM     15  C   UNL     1       1.175   1.783   0.000  0.00  0.00    -0.050 A 
ATOM     16  C   UNL     1      -0.013   1.076   0.008  0.00  0.00    +0.003 A 
ATOM     17  C   UNL     1      -1.219   1.750   0.017  0.00  0.00    +0.001 A 
ATOM     18  C   UNL     1      -1.238   3.133   0.029  0.00  0.00    +0.004 A 
ATOM     19  C   UNL     1      -0.050   3.840   0.022  0.00  0.00    -0.035 A 
ATOM     20  C   UNL     1       1.157   3.165   0.008  0.00  0.00    +0.008 A 
ENDBRANCH   1  19
BRANCH   5  21
ATOM     21  C   UNL     1      -2.412   7.764   4.726  0.00  0.00    -0.040 A 
ATOM     22  C   UNL     1      -3.090   6.830   5.488  0.00  0.00    +0.008 A 
ATOM     23  C   UNL     1      -3.729   7.215   6.652  0.00  0.00    +0.049 A 
ATOM     24  C   UNL     1      -3.691   8.540   7.057  0.00  0.00    +0.161 A 
ATOM     25  C   UNL     1      -3.009   9.479   6.291  0.00  0.00    +0.162 A 
ATOM     26  C   UNL     1      -2.366   9.086   5.128  0.00  0.00    +0.053 A 
BRANCH  25  27
ATOM     27  O   UNL     1      -2.969  10.781   6.684  0.00  0.00    -0.491 OA
ATOM     28  C   UNL     1      -2.250  11.690   5.848  0.00  0.00    +0.277 C 
ENDBRANCH  25  27
BRANCH  24  29
ATOM     29  O   UNL     1      -4.320   8.921   8.201  0.00  0.00    -0.491 OA
ATOM     30  C   UNL     1      -5.001   7.902   8.937  0.00  0.00    +0.277 C 
ENDBRANCH  24  29
ENDBRANCH   5  21
BRANCH  11  31
ATOM     31  C   UNL     1      -0.106   5.825  -2.440  0.00  0.00    +0.338 C 
ATOM     32  O   UNL     1      -0.671   6.220  -3.443  0.00  0.00    -0.245 OA
BRANCH  31  33
ATOM     33  O   UNL     1       1.164   5.377  -2.514  0.00  0.00    -0.458 OA
BRANCH  33  34
ATOM     34  C   UNL     1       1.784   5.394  -3.801  0.00  0.00    +0.177 C 
ATOM     35  C   UNL     1       1.570   4.040  -4.509  0.00  0.00    +0.044 C 
ATOM     36  C   UNL     1       2.900   3.792  -5.265  0.00  0.00    +0.004 C 
ATOM     37  C   UNL     1       3.962   4.327  -4.273  0.00  0.00    +0.004 C 
ATOM     38  C   UNL     1       3.305   5.577  -3.652  0.00  0.00    +0.044 C 
ENDBRANCH  33  34
ENDBRANCH  31  33
ENDBRANCH  11  31
TORSDOF 7
