REMARK  Name = ZINC02432127
REMARK  5 active torsions:
REMARK  status: ('A' for Active; 'I' for Inactive)
REMARK    1  A    between atoms: C_1  and  C_2
REMARK    2  A    between atoms: C_2  and  C_3
REMARK    3  A    between atoms: N_24  and  C_27
REMARK    4  A    between atoms: C_31  and  N_34
REMARK    5  A    between atoms: C_32  and  C_33
REMARK                            x       y       z     vdW  Elec       q    Type
REMARK                         _______ _______ _______ _____ _____    ______ ____
ROOT
ATOM      1  C   UNL     1      -5.348   0.380   1.921  0.00  0.00    -0.026 A 
ATOM      2  C   UNL     1      -6.192   1.389   1.505  0.00  0.00    +0.005 A 
ATOM      3  C   UNL     1      -5.676   2.591   1.058  0.00  0.00    +0.001 A 
ATOM      4  C   UNL     1      -4.305   2.783   1.026  0.00  0.00    +0.004 A 
ATOM      5  C   UNL     1      -3.459   1.778   1.439  0.00  0.00    -0.027 A 
ATOM      6  C   UNL     1      -3.968   0.565   1.892  0.00  0.00    +0.039 A 
ATOM      7  N   UNL     1      -2.925  -0.291   2.255  0.00  0.00    -0.286 N 
ATOM      8  C   UNL     1      -1.717   0.276   2.074  0.00  0.00    +0.212 C 
ATOM      9  O   UNL     1      -0.639  -0.230   2.304  0.00  0.00    -0.277 OA
ATOM     10  C   UNL     1      -1.964   1.658   1.531  0.00  0.00    +0.053 C 
ATOM     11  C   UNL     1      -1.300   1.844   0.156  0.00  0.00    +0.089 C 
ATOM     12  C   UNL     1      -0.804   3.316   0.161  0.00  0.00    +0.074 C 
ATOM     13  C   UNL     1      -1.220   3.882   1.531  0.00  0.00    -0.054 C 
ATOM     14  C   UNL     1      -0.014   2.309   2.804  0.00  0.00    -0.076 C 
ATOM     15  C   UNL     1       0.738   3.643   2.989  0.00  0.00    -0.020 C 
ATOM     16  C   UNL     1      -0.041   4.665   2.139  0.00  0.00    -0.016 C 
ATOM     17  C   UNL     1       0.701   3.177   0.110  0.00  0.00    +0.228 C 
ATOM     18  O   UNL     1       1.490   4.097   0.097  0.00  0.00    -0.275 OA
ATOM     19  N   UNL     1       1.027   1.879   0.080  0.00  0.00    -0.210 N 
ATOM     20  C   UNL     1      -0.018   1.044   0.104  0.00  0.00    +0.229 C 
ATOM     21  O   UNL     1       0.052  -0.167   0.084  0.00  0.00    -0.275 OA
ATOM     22  H   UNL     1      -3.056  -1.189   2.598  0.00  0.00    +0.155 HD
ATOM     23  N   UNL     1      -1.365   2.708   2.361  0.00  0.00    +0.395 N 
ATOM     24  H   UNL     1      -1.962   2.905   3.173  0.00  0.00    -0.079 HD
ENDROOT
BRANCH  19  25
ATOM     25  C   UNL     1       2.354   1.431   0.027  0.00  0.00    +0.049 A 
ATOM     26  C   UNL     1       3.085   1.282   1.198  0.00  0.00    +0.024 A 
ATOM     27  C   UNL     1       4.393   0.840   1.142  0.00  0.00    +0.004 A 
ATOM     28  C   UNL     1       4.974   0.548  -0.078  0.00  0.00    +0.033 A 
ATOM     29  C   UNL     1       4.248   0.696  -1.246  0.00  0.00    +0.131 A 
ATOM     30  C   UNL     1       2.938   1.132  -1.196  0.00  0.00    +0.002 A 
ATOM     31  C   UNL     1       2.147   1.288  -2.469  0.00  0.00    +0.048 C 
BRANCH  29  32
ATOM     32  N   UNL     1       4.874   0.382  -2.550  0.00  0.00    +0.057 N 
ATOM     33  O   UNL     1       5.984  -0.119  -2.588  0.00  0.00    -0.126 OA
ATOM     34  O   UNL     1       4.279   0.624  -3.585  0.00  0.00    -0.126 OA
ENDBRANCH  29  32
ENDBRANCH  19  25
BRANCH   1  36
ATOM     35  C   UNL     1      -6.040  -0.894   3.933  0.00  0.00    +0.009 C 
ATOM     36  C   UNL     1      -5.921  -0.926   2.408  0.00  0.00    +0.033 C 
ENDBRANCH   1  36
TORSDOF 3
