REMARK  Name = ZINC59170631
REMARK  8 active torsions:
REMARK  status: ('A' for Active; 'I' for Inactive)
REMARK    1  A    between atoms: C_1  and  C_2
REMARK    2  A    between atoms: C_2  and  C_3
REMARK    3  A    between atoms: C_6  and  N_9
REMARK    4  A    between atoms: C_10  and  C_12
REMARK    5  A    between atoms: C_16  and  N_33
REMARK    6  A    between atoms: N_22  and  C_23
REMARK    7  A    between atoms: C_26  and  S_29
REMARK    8  A    between atoms: S_29  and  N_32
REMARK                            x       y       z     vdW  Elec       q    Type
REMARK                         _______ _______ _______ _____ _____    ______ ____
ROOT
ATOM      1  C   UNL     1      -7.405  -2.457  -1.086  0.00  0.00    +0.098 A 
ATOM      2  C   UNL     1      -8.080  -2.713  -2.272  0.00  0.00    +0.030 A 
ATOM      3  C   UNL     1      -9.470  -3.164  -2.172  0.00  0.00    +0.020 A 
ATOM      4  C   UNL     1     -10.133  -3.695  -3.285  0.00  0.00    +0.044 A 
ATOM      5  C   UNL     1     -11.429  -4.112  -3.166  0.00  0.00    +0.127 A 
ATOM      6  C   UNL     1     -12.093  -4.014  -1.951  0.00  0.00    +0.036 A 
ATOM      7  C   UNL     1     -11.457  -3.493  -0.842  0.00  0.00    +0.049 A 
ATOM      8  C   UNL     1     -10.143  -3.061  -0.940  0.00  0.00    +0.138 A 
ATOM      9  O   UNL     1      -9.504  -2.540   0.136  0.00  0.00    -0.439 OA
ATOM     10  C   UNL     1      -8.151  -2.669   0.171  0.00  0.00    +0.212 A 
ATOM     11  N   UNL     1      -7.525  -2.970   1.288  0.00  0.00    -0.325 N 
ATOM     12  H   UNL     1      -6.574  -3.162   1.274  0.00  0.00    +0.169 HD
ENDROOT
BRANCH  11  13
ATOM     13  C   UNL     1      -8.214  -3.012   2.468  0.00  0.00    +0.042 A 
ATOM     14  C   UNL     1      -9.121  -1.998   2.788  0.00  0.00    +0.027 A 
ATOM     15  C   UNL     1      -9.813  -2.047   3.980  0.00  0.00    +0.030 A 
ATOM     16  C   UNL     1      -9.610  -3.096   4.859  0.00  0.00    +0.105 A 
ATOM     17  C   UNL     1      -8.713  -4.104   4.549  0.00  0.00    +0.030 A 
ATOM     18  C   UNL     1      -8.018  -4.071   3.358  0.00  0.00    +0.027 A 
BRANCH  16  19
ATOM     19  S   UNL     1     -10.497  -3.150   6.380  0.00  0.00    +0.056 S 
ATOM     20  O   UNL     1      -9.728  -3.946   7.271  0.00  0.00    -0.153 OA
ATOM     21  O   UNL     1     -10.869  -1.812   6.681  0.00  0.00    -0.153 OA
BRANCH  19  22
ATOM     22  N   UNL     1     -11.903  -3.979   6.098  0.00  0.00    -0.204 NA
ATOM     23  H   UNL     1     -12.314  -4.492   6.811  0.00  0.00    +0.144 HD
ATOM     24  H   UNL     1     -12.314  -3.952   5.220  0.00  0.00    +0.144 HD
ENDBRANCH  19  22
ENDBRANCH  16  19
ENDBRANCH  11  13
BRANCH   1  26
ATOM     25  N   UNL     1      -5.422  -1.629   0.076  0.00  0.00    -0.281 N 
ATOM     26  C   UNL     1      -6.006  -1.999  -1.081  0.00  0.00    +0.253 C 
ATOM     27  O   UNL     1      -5.377  -1.956  -2.121  0.00  0.00    -0.270 OA
ATOM     28  H   UNL     1      -5.906  -1.714   0.912  0.00  0.00    +0.155 HD
BRANCH  25  32
ATOM     29  C   UNL     1      -1.540  -0.120   0.060  0.00  0.00    -0.048 A 
ATOM     30  C   UNL     1      -2.468   0.373   0.959  0.00  0.00    +0.005 A 
ATOM     31  C   UNL     1      -3.756  -0.125   0.967  0.00  0.00    +0.023 A 
ATOM     32  C   UNL     1      -4.119  -1.122   0.070  0.00  0.00    +0.034 A 
ATOM     33  C   UNL     1      -3.184  -1.615  -0.831  0.00  0.00    +0.023 A 
ATOM     34  C   UNL     1      -1.899  -1.109  -0.837  0.00  0.00    +0.005 A 
BRANCH  29  36
ATOM     35  C   UNL     1      -0.054   1.618  -0.900  0.00  0.00    +0.009 C 
ATOM     36  C   UNL     1      -0.135   0.425   0.055  0.00  0.00    +0.032 C 
ENDBRANCH  29  36
ENDBRANCH  25  32
ENDBRANCH   1  26
BRANCH   5  37
ATOM     37  N   UNL     1     -12.131  -4.672  -4.343  0.00  0.00    +0.056 N 
ATOM     38  O   UNL     1     -11.558  -4.759  -5.404  0.00  0.00    -0.126 OA
ATOM     39  O   UNL     1     -13.278  -5.043  -4.243  0.00  0.00    -0.126 OA
ENDBRANCH   5  37
TORSDOF 7
