REMARK  Name = ZINC62777767
REMARK  4 active torsions:
REMARK  status: ('A' for Active; 'I' for Inactive)
REMARK    1  A    between atoms: C_1  and  N_2
REMARK    2  A    between atoms: C_3  and  N_22
REMARK    3  A    between atoms: C_4  and  C_13
REMARK    4  A    between atoms: C_5  and  C_7
REMARK                            x       y       z     vdW  Elec       q    Type
REMARK                         _______ _______ _______ _____ _____    ______ ____
ROOT
ATOM      1  C   UNL     1      -0.018   1.461   0.010  0.00  0.00    +0.174 C 
ATOM      2  N   UNL     1       0.002  -0.004   0.002  0.00  0.00    -0.253 N 
ATOM      3  C   UNL     1       0.008  -0.792  -1.103  0.00  0.00    +0.122 A 
ATOM      4  C   UNL     1       0.028  -2.106  -0.673  0.00  0.00    +0.049 A 
ATOM      5  C   UNL     1       0.034  -2.084   0.743  0.00  0.00    +0.105 A 
ATOM      6  N   UNL     1       0.025  -0.829   1.132  0.00  0.00    -0.169 NA
ENDROOT
BRANCH   4   7
ATOM      7  C   UNL     1       0.039  -3.313  -1.534  0.00  0.00    -0.009 A 
ATOM      8  C   UNL     1      -1.045  -4.189  -1.523  0.00  0.00    +0.012 A 
ATOM      9  C   UNL     1      -1.033  -5.312  -2.325  0.00  0.00    +0.050 A 
ATOM     10  C   UNL     1       0.056  -5.574  -3.143  0.00  0.00    +0.166 A 
ATOM     11  C   UNL     1       1.143  -4.702  -3.157  0.00  0.00    +0.167 A 
ATOM     12  C   UNL     1       1.132  -3.571  -2.360  0.00  0.00    +0.058 A 
ATOM     13  O   UNL     1       2.073  -5.179  -4.035  0.00  0.00    -0.453 OA
ATOM     14  C   UNL     1       1.726  -6.560  -4.250  0.00  0.00    +0.466 C 
ATOM     15  O   UNL     1       0.307  -6.597  -4.012  0.00  0.00    -0.453 OA
ENDBRANCH   4   7
BRANCH   5  16
ATOM     16  C   UNL     1       0.053  -3.272   1.633  0.00  0.00    +0.040 A 
ATOM     17  C   UNL     1       0.687  -3.366   2.838  0.00  0.00    +0.115 A 
ATOM     18  N   UNL     1       0.459  -4.604   3.322  0.00  0.00    -0.284 N 
ATOM     19  H   UNL     1       0.788  -4.955   4.165  0.00  0.00    +0.188 HD
ATOM     20  N   UNL     1      -0.334  -5.296   2.399  0.00  0.00    -0.182 NA
ATOM     21  C   UNL     1      -0.584  -4.504   1.390  0.00  0.00    +0.144 A 
ENDBRANCH   5  16
BRANCH   3  22
ATOM     22  N   UNL     1      -0.004  -0.359  -2.423  0.00  0.00    -0.343 N 
ATOM     23  H   UNL     1      -0.018   0.591  -2.621  0.00  0.00    +0.144 HD
ATOM     24  H   UNL     1       0.001  -1.006  -3.146  0.00  0.00    +0.144 HD
ENDBRANCH   3  22
TORSDOF 3
