REMARK  Name = ZINC06410269
REMARK  9 active torsions:
REMARK  status: ('A' for Active; 'I' for Inactive)
REMARK    1  A    between atoms: C_1  and  C_2
REMARK    2  A    between atoms: C_7  and  C_15
REMARK    3  A    between atoms: C_13  and  C_14
REMARK    4  A    between atoms: C_15  and  N_64
REMARK    5  A    between atoms: C_16  and  C_17
REMARK    6  A    between atoms: C_16  and  N_64
REMARK    7  A    between atoms: N_21  and  C_22
REMARK    8  A    between atoms: C_27  and  C_28
REMARK    9  A    between atoms: C_27  and  N_64
REMARK                            x       y       z     vdW  Elec       q    Type
REMARK                         _______ _______ _______ _____ _____    ______ ____
ROOT
ATOM      1  N   UNL     1       1.412   1.835  -0.219  0.00  0.00    +0.389 N 
ATOM      2  H   UNL     1       1.918   1.524  -1.057  0.00  0.00    -0.081 HD
ENDROOT
BRANCH   1   3
ATOM      3  C   UNL     1       2.199   1.472   0.979  0.00  0.00    -0.037 C 
BRANCH   3  10
ATOM      4  C   UNL     1       9.619   4.305   0.248  0.00  0.00    +0.044 C 
ATOM      5  C   UNL     1       8.173   3.966   0.504  0.00  0.00    -0.046 A 
ATOM      6  C   UNL     1       7.377   4.850   1.220  0.00  0.00    +0.004 A 
ATOM      7  C   UNL     1       6.064   4.562   1.463  0.00  0.00    +0.010 A 
ATOM      8  C   UNL     1       5.516   3.366   0.988  0.00  0.00    -0.001 A 
ATOM      9  C   UNL     1       4.114   3.026   1.231  0.00  0.00    +0.017 A 
ATOM     10  C   UNL     1       3.638   1.852   0.746  0.00  0.00    +0.001 A 
ATOM     11  C   UNL     1       4.488   0.983   0.029  0.00  0.00    +0.251 A 
ATOM     12  O   UNL     1       4.042  -0.069  -0.394  0.00  0.00    -0.268 OA
ATOM     13  N   UNL     1       5.776   1.290  -0.204  0.00  0.00    -0.322 N 
ATOM     14  H   UNL     1       6.332   0.671  -0.704  0.00  0.00    +0.169 HD
ATOM     15  C   UNL     1       6.321   2.467   0.262  0.00  0.00    +0.052 A 
ATOM     16  C   UNL     1       7.655   2.782   0.026  0.00  0.00    -0.024 A 
ATOM     17  C   UNL     1       8.530   1.832  -0.750  0.00  0.00    +0.046 C 
ENDBRANCH   3  10
ENDBRANCH   1   3
BRANCH   1  18
ATOM     18  C   UNL     1       1.235   3.301  -0.281  0.00  0.00    +0.001 C 
BRANCH  18  19
ATOM     19  C   UNL     1       0.627   3.661  -1.613  0.00  0.00    +0.135 A 
ATOM     20  N   UNL     1      -0.650   3.765  -1.888  0.00  0.00    -0.115 NA
ATOM     21  N   UNL     1      -0.765   4.089  -3.130  0.00  0.00    -0.023 NA
ATOM     22  N   UNL     1       0.406   4.195  -3.654  0.00  0.00    -0.044 NA
ATOM     23  N   UNL     1       1.291   3.943  -2.749  0.00  0.00    -0.228 N 
BRANCH  23  24
ATOM     24  C   UNL     1       2.745   3.959  -2.926  0.00  0.00    +0.111 C 
ATOM     25  C   UNL     1       3.201   5.342  -3.437  0.00  0.00    +0.027 C 
ATOM     26  C   UNL     1       4.348   5.022  -4.427  0.00  0.00    +0.002 C 
ATOM     27  C   UNL     1       3.848   3.733  -5.126  0.00  0.00    +0.002 C 
ATOM     28  C   UNL     1       3.157   2.936  -4.000  0.00  0.00    +0.027 C 
ENDBRANCH  23  24
ENDBRANCH  18  19
ENDBRANCH   1  18
BRANCH   1  29
ATOM     29  C   UNL     1       0.094   1.168  -0.179  0.00  0.00    -0.046 C 
BRANCH  29  30
ATOM     30  C   UNL     1       0.284  -0.317  -0.495  0.00  0.00    +0.102 C 
ATOM     31  C   UNL     1      -1.078  -1.036  -0.476  0.00  0.00    +0.032 C 
ATOM     32  C   UNL     1      -1.207  -1.643  -1.894  0.00  0.00    +0.030 C 
ATOM     33  C   UNL     1       0.269  -1.681  -2.366  0.00  0.00    +0.160 C 
ATOM     34  O   UNL     1       0.830  -0.469  -1.816  0.00  0.00    -0.378 OA
ENDBRANCH  29  30
ENDBRANCH   1  29
TORSDOF 7
