REMARK  Name = ZINC20168076
REMARK  13 active torsions:
REMARK  status: ('A' for Active; 'I' for Inactive)
REMARK    1  A    between atoms: C_1  and  C_2
REMARK    2  A    between atoms: C_2  and  O_3
REMARK    3  A    between atoms: O_3  and  C_4
REMARK    4  A    between atoms: C_4  and  C_6
REMARK    5  A    between atoms: C_7  and  C_34
REMARK    6  A    between atoms: C_8  and  C_31
REMARK    7  A    between atoms: C_10  and  N_11
REMARK    8  A    between atoms: C_12  and  C_14
REMARK    9  A    between atoms: C_14  and  S_15
REMARK   10  A    between atoms: S_15  and  C_16
REMARK   11  A    between atoms: C_19  and  C_28
REMARK   12  A    between atoms: N_20  and  C_21
REMARK   13  A    between atoms: C_21  and  C_22
REMARK                            x       y       z     vdW  Elec       q    Type
REMARK                         _______ _______ _______ _____ _____    ______ ____
ROOT
ATOM      1  N   UNL     1      -0.011   0.966   0.007  0.00  0.00    -0.279 N 
ATOM      2  C   UNL     1       1.147   1.655   0.000  0.00  0.00    +0.228 C 
ATOM      3  O   UNL     1       1.130   2.868   0.007  0.00  0.00    -0.275 OA
ATOM      4  H   UNL     1       0.004  -0.134   0.006  0.00  0.00    +0.155 HD
ENDROOT
BRANCH   1   9
ATOM      5  C   UNL     1      -2.511   1.111   0.020  0.00  0.00    +0.091 A 
ATOM      6  C   UNL     1      -3.573   2.003   0.030  0.00  0.00    -0.015 A 
ATOM      7  C   UNL     1      -3.280   3.340   0.036  0.00  0.00    +0.079 A 
ATOM      8  S   UNL     1      -1.497   3.350   0.035  0.00  0.00    -0.068 S 
ATOM      9  C   UNL     1      -1.216   1.640   0.017  0.00  0.00    +0.087 A 
ATOM     10  C   UNL     1      -5.000   1.518   0.035  0.00  0.00    +0.046 C 
BRANCH   7  11
ATOM     11  C   UNL     1      -4.201   4.478   0.046  0.00  0.00    +0.248 C 
ATOM     12  O   UNL     1      -5.404   4.288   0.051  0.00  0.00    -0.270 OA
ATOM     13  N   UNL     1      -3.718   5.736   0.051  0.00  0.00    -0.325 N 
ATOM     14  H   UNL     1      -4.410   6.591   0.059  0.00  0.00    +0.145 HD
ATOM     15  H   UNL     1      -2.632   5.908   0.046  0.00  0.00    +0.145 HD
ENDBRANCH   7  11
BRANCH   5  16
ATOM     16  C   UNL     1      -2.739  -0.339   0.014  0.00  0.00    +0.342 C 
ATOM     17  O   UNL     1      -2.828  -0.945   1.064  0.00  0.00    -0.245 OA
BRANCH  16  18
ATOM     18  O   UNL     1      -2.849  -0.999  -1.157  0.00  0.00    -0.461 OA
BRANCH  18  20
ATOM     19  C   UNL     1      -3.171  -3.002  -2.503  0.00  0.00    +0.048 C 
ATOM     20  C   UNL     1      -3.073  -2.432  -1.087  0.00  0.00    +0.229 C 
ENDBRANCH  18  20
ENDBRANCH  16  18
ENDBRANCH   5  16
ENDBRANCH   1   9
BRANCH   2  21
ATOM     21  C   UNL     1       2.462   0.920  -0.017  0.00  0.00    +0.173 C 
BRANCH  21  22
ATOM     22  S   UNL     1       3.822   2.115  -0.023  0.00  0.00    -0.077 S 
BRANCH  22  23
ATOM     23  C   UNL     1       5.197   1.013  -0.042  0.00  0.00    +0.192 A 
ATOM     24  N   UNL     1       5.146  -0.299  -0.049  0.00  0.00    -0.122 NA
ATOM     25  N   UNL     1       6.337  -0.781  -0.063  0.00  0.00    -0.133 NA
ATOM     26  C   UNL     1       7.211   0.185  -0.066  0.00  0.00    +0.137 A 
ATOM     27  N   UNL     1       6.517   1.363  -0.058  0.00  0.00    -0.303 N 
BRANCH  26  28
ATOM     28  C   UNL     1       8.711   0.032  -0.080  0.00  0.00    +0.057 C 
ATOM     29  C   UNL     1       9.276  -1.372  -0.299  0.00  0.00    +0.012 C 
ATOM     30  C   UNL     1       9.356  -0.722   1.084  0.00  0.00    +0.012 C 
ENDBRANCH  26  28
BRANCH  27  31
ATOM     31  C   UNL     1       7.073   2.718  -0.063  0.00  0.00    +0.157 C 
BRANCH  31  32
ATOM     32  C   UNL     1       7.285   3.187   1.377  0.00  0.00    +0.138 C 
ATOM     33  C   UNL     1       7.763   4.655   1.385  0.00  0.00    +0.035 C 
ATOM     34  C   UNL     1       8.817   4.653   2.525  0.00  0.00    +0.031 C 
ATOM     35  C   UNL     1       9.414   3.232   2.371  0.00  0.00    +0.160 C 
ATOM     36  O   UNL     1       8.305   2.397   2.000  0.00  0.00    -0.375 OA
ENDBRANCH  31  32
ENDBRANCH  27  31
ENDBRANCH  22  23
ENDBRANCH  21  22
ENDBRANCH   2  21
TORSDOF 11
