REMARK  Name = ZINC52046313
REMARK  1 active torsions:
REMARK  status: ('A' for Active; 'I' for Inactive)
REMARK    1  A    between atoms: C_4  and  N_7
REMARK                            x       y       z     vdW  Elec       q    Type
REMARK                         _______ _______ _______ _____ _____    ______ ____
ROOT
ATOM      1  N   UNL     1       3.864  -2.120  -1.254  0.00  0.00    -0.316 N 
ATOM      2  C   UNL     1       3.436  -1.679  -2.483  0.00  0.00    +0.154 C 
ATOM      3  N   UNL     1       2.317  -1.018  -2.585  0.00  0.00    -0.375 N 
ATOM      4  N   UNL     1       4.188  -1.935  -3.606  0.00  0.00    -0.297 N 
ATOM      5  C   UNL     1       4.443  -0.890  -4.613  0.00  0.00    +0.136 C 
ATOM      6  C   UNL     1       4.105  -1.446  -6.000  0.00  0.00    +0.179 C 
ATOM      7  O   UNL     1       4.764  -2.703  -6.193  0.00  0.00    -0.373 OA
ATOM      8  C   UNL     1       4.365  -3.704  -5.260  0.00  0.00    +0.139 C 
ATOM      9  C   UNL     1       4.775  -3.259  -3.846  0.00  0.00    +0.105 C 
ATOM     10  C   UNL     1       4.255  -4.278  -2.835  0.00  0.00    +0.025 C 
ATOM     11  C   UNL     1       4.895  -5.639  -3.128  0.00  0.00    +0.002 C 
ATOM     12  C   UNL     1       4.545  -6.086  -4.547  0.00  0.00    +0.003 C 
ATOM     13  C   UNL     1       5.037  -5.042  -5.559  0.00  0.00    +0.033 C 
ATOM     14  H   UNL     1       4.697  -2.612  -1.178  0.00  0.00    +0.149 HD
ATOM     15  H   UNL     1       1.976  -0.775  -3.460  0.00  0.00    +0.158 HD
ATOM     16  H   UNL     1       1.827  -0.768  -1.787  0.00  0.00    +0.158 HD
ENDROOT
BRANCH   1  20
ATOM     17  C   UNL     1       2.876  -1.227   2.799  0.00  0.00    +0.000 C 
ATOM     18  C   UNL     1       2.529  -2.615   2.259  0.00  0.00    +0.002 C 
ATOM     19  C   UNL     1       3.365  -2.901   1.010  0.00  0.00    +0.022 C 
ATOM     20  C   UNL     1       3.063  -1.847  -0.058  0.00  0.00    +0.073 C 
ATOM     21  C   UNL     1       3.411  -0.459   0.483  0.00  0.00    +0.022 C 
ATOM     22  C   UNL     1       2.574  -0.174   1.732  0.00  0.00    +0.002 C 
ENDBRANCH   1  20
TORSDOF 1
