REMARK  Name = ZINC20912006
REMARK  15 active torsions:
REMARK  status: ('A' for Active; 'I' for Inactive)
REMARK    1  A    between atoms: C_1  and  C_2
REMARK    2  A    between atoms: C_3  and  C_11
REMARK    3  A    between atoms: C_4  and  C_10
REMARK    4  A    between atoms: N_5  and  C_7
REMARK    5  A    between atoms: C_7  and  C_8
REMARK    6  A    between atoms: C_7  and  C_9
REMARK    7  A    between atoms: N_12  and  N_13
REMARK    8  A    between atoms: C_17  and  S_20
REMARK    9  A    between atoms: N_18  and  N_19
REMARK   10  A    between atoms: S_20  and  C_21
REMARK   11  A    between atoms: C_21  and  C_22
REMARK   12  A    between atoms: C_22  and  C_23
REMARK   13  A    between atoms: N_25  and  C_26
REMARK   14  A    between atoms: C_31  and  N_32
REMARK   15  A    between atoms: C_33  and  C_35
REMARK                            x       y       z     vdW  Elec       q    Type
REMARK                         _______ _______ _______ _____ _____    ______ ____
ROOT
ATOM      1  N   UNL     1       1.394   5.027  -0.029  0.00  0.00    -0.204 N 
ATOM      2  C   UNL     1       0.598   3.892  -0.018  0.00  0.00    +0.254 A 
ATOM      3  N   UNL     1      -0.713   3.870   0.012  0.00  0.00    -0.109 NA
ATOM      4  N   UNL     1      -1.124   2.530   0.006  0.00  0.00    -0.119 NA
ATOM      5  C   UNL     1      -0.051   1.777  -0.018  0.00  0.00    +0.210 A 
ATOM      6  N   UNL     1       1.041   2.598  -0.037  0.00  0.00    -0.211 N 
ATOM      7  H   UNL     1       2.490   4.930  -0.054  0.00  0.00    +0.177 HD
ENDROOT
BRANCH   6   8
ATOM      8  N   UNL     1       2.347   2.197  -0.069  0.00  0.00    -0.294 N 
ATOM      9  H   UNL     1       2.593   1.125  -0.083  0.00  0.00    +0.163 HD
ATOM     10  H   UNL     1       3.152   2.947  -0.082  0.00  0.00    +0.163 HD
ENDBRANCH   6   8
BRANCH   1  12
ATOM     11  C   UNL     1       1.549   7.359  -0.016  0.00  0.00    +0.141 C 
ATOM     12  N   UNL     1       0.804   6.297  -0.006  0.00  0.00    -0.187 NA
BRANCH  11  15
ATOM     13  C   UNL     1      -1.564   7.956   0.060  0.00  0.00    +0.068 C 
ATOM     14  C   UNL     1      -0.456   8.977   0.042  0.00  0.00    +0.069 A 
ATOM     15  C   UNL     1       0.927   8.698   0.007  0.00  0.00    +0.038 A 
ATOM     16  C   UNL     1       1.589   9.906   0.006  0.00  0.00    +0.045 A 
ATOM     17  N   UNL     1       0.654  10.878   0.028  0.00  0.00    -0.265 N 
ATOM     18  N   UNL     1      -0.609  10.274   0.054  0.00  0.00    -0.175 NA
ATOM     19  C   UNL     1       3.082  10.106  -0.019  0.00  0.00    +0.066 C 
BRANCH  17  20
ATOM     20  C   UNL     1       0.915  12.319   0.032  0.00  0.00    +0.101 C 
ATOM     21  C   UNL     1       0.267  12.958  -1.198  0.00  0.00    +0.032 C 
ATOM     22  C   UNL     1       0.326  12.941   1.300  0.00  0.00    +0.032 C 
ENDBRANCH  17  20
ENDBRANCH  11  15
ENDBRANCH   1  12
BRANCH   5  23
ATOM     23  S   UNL     1      -0.022   0.015  -0.032  0.00  0.00    -0.084 S 
BRANCH  23  24
ATOM     24  C   UNL     1      -1.774  -0.452   0.005  0.00  0.00    +0.086 C 
BRANCH  24  25
ATOM     25  C   UNL     1      -1.895  -1.977  -0.003  0.00  0.00    +0.107 C 
BRANCH  25  26
ATOM     26  C   UNL     1      -3.351  -2.366   0.027  0.00  0.00    +0.218 C 
ATOM     27  O   UNL     1      -4.208  -1.507   0.053  0.00  0.00    -0.275 OA
ATOM     28  N   UNL     1      -3.701  -3.667   0.026  0.00  0.00    -0.284 N 
ATOM     29  H   UNL     1      -2.929  -4.445  -0.072  0.00  0.00    +0.155 HD
BRANCH  28  30
ATOM     30  C   UNL     1      -5.049  -4.030   0.148  0.00  0.00    +0.055 A 
ATOM     31  C   UNL     1      -6.037  -3.238  -0.418  0.00  0.00    +0.025 A 
ATOM     32  C   UNL     1      -7.365  -3.601  -0.300  0.00  0.00    +0.002 A 
ATOM     33  C   UNL     1      -7.715  -4.747   0.391  0.00  0.00    +0.002 A 
ATOM     34  C   UNL     1      -6.737  -5.538   0.964  0.00  0.00    +0.025 A 
ATOM     35  C   UNL     1      -5.401  -5.185   0.846  0.00  0.00    +0.055 A 
BRANCH  35  36
ATOM     36  N   UNL     1      -4.409  -5.986   1.425  0.00  0.00    -0.284 N 
ATOM     37  C   UNL     1      -4.563  -7.324   1.468  0.00  0.00    +0.214 C 
ATOM     38  O   UNL     1      -5.595  -7.829   1.079  0.00  0.00    -0.276 OA
ATOM     39  C   UNL     1      -3.453  -8.194   2.000  0.00  0.00    +0.109 C 
ATOM     40  H   UNL     1      -3.504  -5.523   1.845  0.00  0.00    +0.155 HD
ENDBRANCH  35  36
ENDBRANCH  28  30
ENDBRANCH  25  26
ENDBRANCH  24  25
ENDBRANCH  23  24
ENDBRANCH   5  23
TORSDOF 10
