REMARK  Name = ZINC18129877
REMARK  6 active torsions:
REMARK  status: ('A' for Active; 'I' for Inactive)
REMARK    1  A    between atoms: C_1  and  C_2
REMARK    2  A    between atoms: C_9  and  C_24
REMARK    3  A    between atoms: C_9  and  C_25
REMARK    4  A    between atoms: N_13  and  C_14
REMARK    5  A    between atoms: C_16  and  C_21
REMARK    6  A    between atoms: C_18  and  C_20
REMARK                            x       y       z     vdW  Elec       q    Type
REMARK                         _______ _______ _______ _____ _____    ______ ____
ROOT
ATOM      1  C   UNL     1      -0.018   1.503   0.010  0.00  0.00    +0.044 C 
ATOM      2  C   UNL     1       0.002  -0.004   0.002  0.00  0.00    -0.049 A 
ATOM      3  C   UNL     1       0.006  -0.681  -1.205  0.00  0.00    +0.004 A 
ATOM      4  C   UNL     1       0.016  -2.066  -1.225  0.00  0.00    +0.011 A 
ATOM      5  C   UNL     1       0.018  -2.759  -0.026  0.00  0.00    +0.006 A 
ATOM      6  C   UNL     1       0.034  -2.081   1.194  0.00  0.00    +0.036 A 
ATOM      7  C   UNL     1       0.023  -0.694   1.201  0.00  0.00    +0.027 A 
ATOM      8  N   UNL     1       0.090  -2.801   2.391  0.00  0.00    -0.334 N 
ATOM      9  C   UNL     1      -0.530  -4.129   2.461  0.00  0.00    +0.059 C 
ATOM     10  C   UNL     1      -0.222  -4.882   1.182  0.00  0.00    +0.030 A 
ATOM     11  C   UNL     1       0.022  -4.272  -0.019  0.00  0.00    +0.029 A 
ATOM     12  C   UNL     1       0.272  -4.936  -1.257  0.00  0.00    +0.117 A 
ATOM     13  N   UNL     1       0.479  -4.351  -2.432  0.00  0.00    -0.240 NA
ATOM     14  S   UNL     1       0.256  -6.696  -0.944  0.00  0.00    -0.032 S 
ATOM     15  S   UNL     1      -0.145  -6.560   1.093  0.00  0.00    -0.052 S 
ATOM     16  C   UNL     1      -2.045  -3.980   2.614  0.00  0.00    +0.037 C 
ATOM     17  C   UNL     1       0.035  -4.897   3.657  0.00  0.00    +0.037 C 
ATOM     18  H   UNL     1       0.536  -2.426   3.167  0.00  0.00    +0.147 HD
ENDROOT
BRANCH  13  19
ATOM     19  C   UNL     1       0.707  -5.112  -3.541  0.00  0.00    +0.066 A 
ATOM     20  C   UNL     1       1.589  -6.196  -3.481  0.00  0.00    +0.031 A 
ATOM     21  C   UNL     1       1.813  -6.960  -4.607  0.00  0.00    -0.048 A 
ATOM     22  C   UNL     1       1.170  -6.656  -5.794  0.00  0.00    +0.006 A 
ATOM     23  C   UNL     1       0.296  -5.584  -5.861  0.00  0.00    -0.048 A 
ATOM     24  C   UNL     1       0.057  -4.814  -4.743  0.00  0.00    +0.031 A 
ATOM     25  C   UNL     1      -0.399  -5.261  -7.159  0.00  0.00    +0.044 C 
ATOM     26  C   UNL     1       2.762  -8.129  -4.545  0.00  0.00    +0.044 C 
ENDBRANCH  13  19
TORSDOF 1
