REMARK  Name = ZINC11995989
REMARK  10 active torsions:
REMARK  status: ('A' for Active; 'I' for Inactive)
REMARK    1  A    between atoms: C_1  and  C_2
REMARK    2  A    between atoms: C_2  and  C_20
REMARK    3  A    between atoms: N_5  and  C_9
REMARK    4  A    between atoms: C_9  and  C_10
REMARK    5  A    between atoms: C_14  and  O_18
REMARK    6  A    between atoms: C_15  and  O_16
REMARK    7  A    between atoms: O_16  and  C_17
REMARK    8  A    between atoms: O_18  and  C_19
REMARK    9  A    between atoms: C_25  and  C_26
REMARK   10  A    between atoms: C_25  and  N_69
REMARK                            x       y       z     vdW  Elec       q    Type
REMARK                         _______ _______ _______ _____ _____    ______ ____
ROOT
ATOM      1  C   UNL     1      -5.561   7.037   4.064  0.00  0.00    +0.042 C 
ATOM      2  C   UNL     1      -4.162   7.312   4.621  0.00  0.00    +0.112 C 
ATOM      3  C   UNL     1      -3.960   6.589   5.937  0.00  0.00    +0.247 C 
ATOM      4  O   UNL     1      -3.994   5.392   6.128  0.00  0.00    -0.273 OA
ATOM      5  N   UNL     1      -3.736   7.553   6.852  0.00  0.00    -0.220 N 
ATOM      6  C   UNL     1      -3.768   8.772   6.302  0.00  0.00    +0.310 C 
ATOM      7  O   UNL     1      -3.593   9.800   6.927  0.00  0.00    -0.252 OA
ATOM      8  N   UNL     1      -4.014   8.733   4.980  0.00  0.00    -0.285 N 
ATOM      9  H   UNL     1      -4.081   9.493   4.381  0.00  0.00    +0.151 HD
ENDROOT
BRANCH   2  10
ATOM     10  C   UNL     1      -3.091   6.899   3.609  0.00  0.00    +0.018 C 
ATOM     11  C   UNL     1      -3.390   7.546   2.254  0.00  0.00    -0.013 C 
ATOM     12  C   UNL     1      -2.351   7.081   1.232  0.00  0.00    -0.078 C 
ATOM     13  C   UNL     1      -2.067   4.973   2.394  0.00  0.00    -0.078 C 
ATOM     14  C   UNL     1      -3.098   5.376   3.451  0.00  0.00    -0.013 C 
ATOM     15  N   UNL     1      -2.425   5.609   1.108  0.00  0.00    +0.380 N 
ATOM     16  H   UNL     1      -3.385   5.344   0.861  0.00  0.00    -0.082 HD
BRANCH  15  17
ATOM     17  C   UNL     1      -1.510   5.146   0.044  0.00  0.00    -0.075 C 
BRANCH  17  18
ATOM     18  C   UNL     1      -1.513   3.616   0.016  0.00  0.00    -0.028 C 
ATOM     19  C   UNL     1      -2.926   3.114  -0.288  0.00  0.00    +0.002 C 
ATOM     20  C   UNL     1      -2.929   1.585  -0.316  0.00  0.00    +0.000 C 
ATOM     21  C   UNL     1      -1.968   1.092  -1.401  0.00  0.00    +0.000 C 
ATOM     22  C   UNL     1      -0.555   1.594  -1.096  0.00  0.00    +0.000 C 
ATOM     23  C   UNL     1      -0.553   3.124  -1.068  0.00  0.00    +0.002 C 
ENDBRANCH  17  18
ENDBRANCH  15  17
ENDBRANCH   2  10
BRANCH   5  24
ATOM     24  C   UNL     1      -3.488   7.297   8.273  0.00  0.00    +0.157 C 
BRANCH  24  25
ATOM     25  C   UNL     1      -2.009   7.129   8.503  0.00  0.00    +0.016 A 
ATOM     26  C   UNL     1      -1.467   5.862   8.620  0.00  0.00    +0.009 A 
ATOM     27  C   UNL     1      -0.110   5.704   8.831  0.00  0.00    +0.004 A 
ATOM     28  C   UNL     1       0.712   6.812   8.925  0.00  0.00    +0.049 A 
ATOM     29  C   UNL     1       0.176   8.084   8.808  0.00  0.00    +0.162 A 
ATOM     30  C   UNL     1      -1.190   8.243   8.591  0.00  0.00    +0.166 A 
BRANCH  30  31
ATOM     31  O   UNL     1      -1.721   9.489   8.471  0.00  0.00    -0.491 OA
ATOM     32  C   UNL     1      -2.164  10.124   9.671  0.00  0.00    +0.277 C 
ENDBRANCH  30  31
BRANCH  29  33
ATOM     33  O   UNL     1       0.982   9.175   8.900  0.00  0.00    -0.491 OA
ATOM     34  C   UNL     1       2.374   8.936   9.117  0.00  0.00    +0.277 C 
ENDBRANCH  29  33
ENDBRANCH  24  25
ENDBRANCH   5  24
TORSDOF 7
