REMARK  Name = ZINC64031631
REMARK  10 active torsions:
REMARK  status: ('A' for Active; 'I' for Inactive)
REMARK    1  A    between atoms: C_1  and  C_2
REMARK    2  A    between atoms: C_2  and  C_3
REMARK    3  A    between atoms: C_3  and  C_4
REMARK    4  A    between atoms: C_6  and  C_24
REMARK    5  A    between atoms: C_11  and  C_23
REMARK    6  A    between atoms: N_12  and  C_13
REMARK    7  A    between atoms: C_13  and  C_14
REMARK    8  A    between atoms: N_26  and  C_27
REMARK    9  A    between atoms: C_27  and  C_29
REMARK   10  A    between atoms: C_27  and  C_30
REMARK                            x       y       z     vdW  Elec       q    Type
REMARK                         _______ _______ _______ _____ _____    ______ ____
ROOT
ATOM      1  C   UNL     1       0.853  -1.914  -1.274  0.00  0.00    +0.093 C 
ATOM      2  C   UNL     1       1.242  -2.531  -2.624  0.00  0.00    +0.165 C 
ATOM      3  C   UNL     1       2.723  -2.344  -2.840  0.00  0.00    +0.171 C 
ATOM      4  O   UNL     1       3.163  -2.278  -3.971  0.00  0.00    -0.292 OA
ATOM      5  C   UNL     1       3.593  -2.244  -1.748  0.00  0.00    +0.065 C 
ATOM      6  C   UNL     1       3.126  -2.292  -0.478  0.00  0.00    +0.007 C 
ATOM      7  N   UNL     1       1.783  -2.421  -0.254  0.00  0.00    -0.325 N 
ATOM      8  C   UNL     1       4.081  -2.204   0.684  0.00  0.00    +0.060 C 
ENDROOT
BRANCH   2   9
ATOM      9  C   UNL     1       0.478  -1.848  -3.729  0.00  0.00    +0.226 C 
ATOM     10  O   UNL     1       0.932  -0.854  -4.256  0.00  0.00    -0.275 OA
ATOM     11  N   UNL     1      -0.709  -2.341  -4.132  0.00  0.00    -0.308 N 
ATOM     12  H   UNL     1      -1.073  -3.136  -3.711  0.00  0.00    +0.149 HD
BRANCH  11  13
ATOM     13  C   UNL     1      -1.452  -1.677  -5.207  0.00  0.00    +0.112 C 
ATOM     14  C   UNL     1      -0.949  -2.181  -6.561  0.00  0.00    +0.032 C 
BRANCH  13  15
ATOM     15  C   UNL     1      -2.942  -1.993  -5.067  0.00  0.00    +0.194 C 
ATOM     16  N   UNL     1      -3.170  -3.435  -5.226  0.00  0.00    -0.362 N 
ATOM     17  C   UNL     1      -3.954  -3.595  -6.253  0.00  0.00    +0.060 A 
ATOM     18  C   UNL     1      -4.526  -4.786  -6.896  0.00  0.00    +0.027 A 
ATOM     19  C   UNL     1      -5.325  -4.641  -7.972  0.00  0.00    +0.002 A 
ATOM     20  C   UNL     1      -5.642  -3.384  -8.518  0.00  0.00    +0.002 A 
ATOM     21  C   UNL     1      -5.170  -2.230  -8.006  0.00  0.00    +0.027 A 
ATOM     22  C   UNL     1      -4.289  -2.265  -6.830  0.00  0.00    +0.060 A 
ATOM     23  N   UNL     1      -3.700  -1.333  -6.138  0.00  0.00    -0.362 N 
ATOM     24  H   UNL     1      -2.802  -4.139  -4.669  0.00  0.00    +0.162 HD
ATOM     25  H   UNL     1      -3.751  -0.378  -6.301  0.00  0.00    +0.162 HD
ENDBRANCH  13  15
ENDBRANCH  11  13
ENDBRANCH   2   9
BRANCH   1  26
ATOM     26  C   UNL     1       0.956  -0.390  -1.355  0.00  0.00    +0.023 C 
BRANCH  26  28
ATOM     27  C   UNL     1       0.610   1.747  -0.106  0.00  0.00    +0.004 C 
ATOM     28  C   UNL     1       0.507   0.222  -0.026  0.00  0.00    -0.002 C 
ENDBRANCH  26  28
ENDBRANCH   1  26
BRANCH   7  29
ATOM     29  C   UNL     1       1.283  -3.050   0.971  0.00  0.00    +0.140 C 
BRANCH  29  30
ATOM     30  C   UNL     1       1.126  -4.532   0.748  0.00  0.00    -0.027 A 
ATOM     31  C   UNL     1      -0.069  -5.035   0.270  0.00  0.00    +0.009 A 
ATOM     32  C   UNL     1      -0.217  -6.394   0.063  0.00  0.00    +0.050 A 
ATOM     33  C   UNL     1       0.833  -7.255   0.335  0.00  0.00    +0.166 A 
ATOM     34  C   UNL     1       2.038  -6.748   0.817  0.00  0.00    +0.167 A 
ATOM     35  C   UNL     1       2.181  -5.385   1.016  0.00  0.00    +0.054 A 
ATOM     36  O   UNL     1       2.904  -7.786   1.004  0.00  0.00    -0.453 OA
ATOM     37  C   UNL     1       2.086  -8.971   1.021  0.00  0.00    +0.466 C 
ATOM     38  O   UNL     1       0.945  -8.611   0.220  0.00  0.00    -0.453 OA
ENDBRANCH  29  30
ENDBRANCH   7  29
TORSDOF 7
