REMARK  Name = ZINC39888624
REMARK  8 active torsions:
REMARK  status: ('A' for Active; 'I' for Inactive)
REMARK    1  A    between atoms: C_1  and  N_2
REMARK    2  A    between atoms: C_3  and  C_25
REMARK    3  A    between atoms: C_5  and  C_17
REMARK    4  A    between atoms: C_7  and  C_12
REMARK    5  A    between atoms: C_7  and  O_16
REMARK    6  A    between atoms: N_8  and  C_11
REMARK    7  A    between atoms: C_17  and  C_19
REMARK    8  A    between atoms: C_28  and  O_31
REMARK                            x       y       z     vdW  Elec       q    Type
REMARK                         _______ _______ _______ _____ _____    ______ ____
ROOT
ATOM      1  C   UNL     1      -1.618   1.522   0.168  0.00  0.00    +0.134 C 
ATOM      2  N   UNL     1      -1.000   0.196   0.080  0.00  0.00    -0.281 N 
ATOM      3  C   UNL     1      -1.855  -0.990  -0.000  0.00  0.00    +0.123 C 
ATOM      4  C   UNL     1      -1.122  -2.181   0.625  0.00  0.00    +0.144 C 
ATOM      5  C   UNL     1       0.230  -2.346  -0.078  0.00  0.00    +0.245 C 
ATOM      6  N   UNL     1       0.972  -1.087   0.006  0.00  0.00    -0.252 N 
ATOM      7  C   UNL     1       0.337   0.094   0.068  0.00  0.00    +0.307 C 
ATOM      8  O   UNL     1       1.001   1.111   0.121  0.00  0.00    -0.252 OA
ATOM      9  C   UNL     1       2.436  -1.116   0.017  0.00  0.00    +0.137 C 
ENDROOT
BRANCH   3  10
ATOM     10  C   UNL     1      -3.138  -0.737   0.749  0.00  0.00    -0.026 A 
ATOM     11  C   UNL     1      -3.098  -0.253   2.043  0.00  0.00    +0.009 A 
ATOM     12  C   UNL     1      -4.272  -0.021   2.732  0.00  0.00    +0.046 A 
ATOM     13  C   UNL     1      -5.493  -0.273   2.123  0.00  0.00    +0.117 A 
ATOM     14  C   UNL     1      -5.531  -0.757   0.824  0.00  0.00    +0.046 A 
ATOM     15  C   UNL     1      -4.354  -0.983   0.138  0.00  0.00    +0.009 A 
BRANCH  13  16
ATOM     16  O   UNL     1      -6.650  -0.045   2.799  0.00  0.00    -0.507 OA
ATOM     17  H   UNL     1      -7.002   0.848   2.687  0.00  0.00    +0.292 HD
ENDBRANCH  13  16
ENDBRANCH   3  10
BRANCH   5  18
ATOM     18  C   UNL     1       1.030  -3.457   0.605  0.00  0.00    +0.436 C 
ATOM     19  F   UNL     1       0.260  -4.624   0.652  0.00  0.00    -0.166 F 
ATOM     20  F   UNL     1       2.202  -3.700  -0.118  0.00  0.00    -0.166 F 
ATOM     21  F   UNL     1       1.358  -3.062   1.907  0.00  0.00    -0.166 F 
ENDBRANCH   5  18
BRANCH   5  22
ATOM     22  O   UNL     1       0.017  -2.684  -1.450  0.00  0.00    -0.364 OA
ATOM     23  H   UNL     1       0.831  -2.803  -1.957  0.00  0.00    +0.212 HD
ENDBRANCH   5  22
BRANCH   4  24
ATOM     24  C   UNL     1      -0.904  -1.927   2.095  0.00  0.00    +0.173 C 
ATOM     25  O   UNL     1      -0.084  -1.110   2.454  0.00  0.00    -0.292 OA
BRANCH  24  26
ATOM     26  C   UNL     1      -1.688  -2.671   3.094  0.00  0.00    +0.018 A 
ATOM     27  C   UNL     1      -2.524  -3.718   2.693  0.00  0.00    +0.011 A 
ATOM     28  C   UNL     1      -3.255  -4.411   3.636  0.00  0.00    +0.001 A 
ATOM     29  C   UNL     1      -3.163  -4.071   4.974  0.00  0.00    +0.000 A 
ATOM     30  C   UNL     1      -2.338  -3.036   5.378  0.00  0.00    +0.001 A 
ATOM     31  C   UNL     1      -1.597  -2.337   4.449  0.00  0.00    +0.011 A 
ENDBRANCH  24  26
ENDBRANCH   4  24
TORSDOF 6
