REMARK  Name = ZINC64423764
REMARK  8 active torsions:
REMARK  status: ('A' for Active; 'I' for Inactive)
REMARK    1  A    between atoms: C_7  and  C_10
REMARK    2  A    between atoms: C_10  and  C_11
REMARK    3  A    between atoms: C_11  and  N_12
REMARK    4  A    between atoms: C_13  and  C_15
REMARK    5  A    between atoms: C_18  and  O_21
REMARK    6  A    between atoms: O_21  and  C_22
REMARK    7  A    between atoms: C_22  and  C_23
REMARK    8  A    between atoms: C_25  and  C_28
REMARK                            x       y       z     vdW  Elec       q    Type
REMARK                         _______ _______ _______ _____ _____    ______ ____
ROOT
ATOM      1  C   UNL     1      -1.732  -6.533  -2.622  0.00  0.00    +0.037 A 
ATOM      2  C   UNL     1      -2.245  -7.019  -1.416  0.00  0.00    +0.016 A 
ATOM      3  C   UNL     1      -3.105  -8.094  -1.419  0.00  0.00    +0.046 A 
ATOM      4  C   UNL     1      -3.463  -8.697  -2.619  0.00  0.00    +0.121 A 
ATOM      5  C   UNL     1      -2.955  -8.217  -3.820  0.00  0.00    +0.046 A 
ATOM      6  C   UNL     1      -2.099  -7.139  -3.826  0.00  0.00    +0.016 A 
ENDROOT
BRANCH   1   8
ATOM      7  N   UNL     1      -0.458  -4.798  -1.460  0.00  0.00    -0.311 N 
ATOM      8  C   UNL     1      -0.811  -5.380  -2.623  0.00  0.00    +0.244 C 
ATOM      9  O   UNL     1      -0.369  -4.956  -3.674  0.00  0.00    -0.270 OA
ATOM     10  H   UNL     1      -0.810  -5.136  -0.622  0.00  0.00    +0.149 HD
BRANCH   7  11
ATOM     11  C   UNL     1       0.457  -3.653  -1.462  0.00  0.00    +0.109 C 
BRANCH  11  12
ATOM     12  C   UNL     1       0.691  -3.186  -0.024  0.00  0.00    +0.052 C 
BRANCH  12  19
ATOM     13  C   UNL     1      -0.016   1.348   0.009  0.00  0.00    +0.001 A 
ATOM     14  C   UNL     1       1.166   2.101   0.002  0.00  0.00    +0.002 A 
ATOM     15  C   UNL     1       2.391   1.535  -0.013  0.00  0.00    +0.026 A 
ATOM     16  C   UNL     1       2.529   0.120  -0.022  0.00  0.00    +0.043 A 
ATOM     17  N   UNL     1       3.587  -0.654  -0.037  0.00  0.00    -0.380 N 
ATOM     18  C   UNL     1       3.143  -2.053  -0.041  0.00  0.00    +0.144 C 
ATOM     19  C   UNL     1       1.631  -2.008  -0.025  0.00  0.00    -0.040 C 
ATOM     20  C   UNL     1       1.295  -0.698  -0.014  0.00  0.00    -0.001 A 
ATOM     21  C   UNL     1       0.002  -0.004   0.002  0.00  0.00    +0.010 A 
ATOM     22  H   UNL     1       4.509  -0.353  -0.045  0.00  0.00    +0.160 HD
ENDBRANCH  12  19
ENDBRANCH  11  12
ENDBRANCH   7  11
ENDBRANCH   1   8
BRANCH   4  23
ATOM     23  O   UNL     1      -4.310  -9.757  -2.617  0.00  0.00    -0.485 OA
BRANCH  23  24
ATOM     24  C   UNL     1      -4.636 -10.329  -3.886  0.00  0.00    +0.291 C 
BRANCH  24  25
ATOM     25  C   UNL     1      -5.580 -11.486  -3.687  0.00  0.00    +0.116 A 
ATOM     26  N   UNL     1      -6.887 -11.470  -3.668  0.00  0.00    -0.237 NA
ATOM     27  C   UNL     1      -7.590 -12.580  -3.482  0.00  0.00    +0.114 A 
ATOM     28  C   UNL     1      -6.870 -13.735  -3.312  0.00  0.00    +0.078 A 
ATOM     29  S   UNL     1      -5.204 -13.108  -3.444  0.00  0.00    -0.076 S 
BRANCH  27  30
ATOM     30  C   UNL     1      -9.068 -12.572  -3.459  0.00  0.00    +0.153 A 
ATOM     31  C   UNL     1      -9.862 -11.481  -3.623  0.00  0.00    +0.051 A 
ATOM     32  C   UNL     1     -11.195 -11.931  -3.529  0.00  0.00    +0.042 A 
ATOM     33  C   UNL     1     -11.148 -13.260  -3.313  0.00  0.00    +0.196 A 
ATOM     34  O   UNL     1      -9.861 -13.645  -3.277  0.00  0.00    -0.461 OA
ENDBRANCH  27  30
ENDBRANCH  24  25
ENDBRANCH  23  24
ENDBRANCH   4  23
TORSDOF 8
