REMARK  Name = ZINC17123782
REMARK  8 active torsions:
REMARK  status: ('A' for Active; 'I' for Inactive)
REMARK    1  A    between atoms: C_1  and  C_2
REMARK    2  A    between atoms: N_4  and  C_33
REMARK    3  A    between atoms: C_7  and  C_9
REMARK    4  A    between atoms: C_9  and  C_10
REMARK    5  A    between atoms: C_9  and  C_19
REMARK    6  A    between atoms: C_14  and  N_16
REMARK    7  A    between atoms: C_21  and  C_32
REMARK    8  A    between atoms: N_23  and  C_26
REMARK                            x       y       z     vdW  Elec       q    Type
REMARK                         _______ _______ _______ _____ _____    ______ ____
ROOT
ATOM      1  C   UNL     1       1.290  -0.651   2.091  0.00  0.00    +0.054 C 
ENDROOT
BRANCH   1   8
ATOM      2  C   UNL     1       0.023   1.374  -0.110  0.00  0.00    +0.063 C 
ATOM      3  C   UNL     1       0.039  -0.130  -0.013  0.00  0.00    +0.047 C 
ATOM      4  N   UNL     1       0.060  -0.951  -0.989  0.00  0.00    -0.181 NA
ATOM      5  N   UNL     1       0.071  -2.283  -0.584  0.00  0.00    -0.160 N 
ATOM      6  C   UNL     1       0.058  -2.381   0.762  0.00  0.00    +0.249 C 
ATOM      7  O   UNL     1       0.063  -3.395   1.428  0.00  0.00    -0.273 OA
ATOM      8  C   UNL     1       0.041  -0.949   1.260  0.00  0.00    +0.131 C 
BRANCH   5   9
ATOM      9  C   UNL     1       0.094  -3.376  -1.458  0.00  0.00    +0.060 A 
ATOM     10  C   UNL     1       0.216  -4.665  -0.956  0.00  0.00    +0.025 A 
ATOM     11  C   UNL     1       0.237  -5.742  -1.821  0.00  0.00    +0.002 A 
ATOM     12  C   UNL     1       0.139  -5.537  -3.185  0.00  0.00    +0.000 A 
ATOM     13  C   UNL     1       0.017  -4.254  -3.688  0.00  0.00    +0.002 A 
ATOM     14  C   UNL     1      -0.011  -3.174  -2.828  0.00  0.00    +0.025 A 
ENDBRANCH   5   9
ENDBRANCH   1   8
BRANCH   1  15
ATOM     15  C   UNL     1       1.337  -1.590   3.298  0.00  0.00    +0.131 C 
ATOM     16  C   UNL     1       2.436  -1.175   4.254  0.00  0.00    +0.047 C 
ATOM     17  N   UNL     1       1.879  -0.880   5.363  0.00  0.00    -0.181 NA
ATOM     18  N   UNL     1       0.495  -1.029   5.338  0.00  0.00    -0.160 N 
ATOM     19  C   UNL     1       0.072  -1.458   4.126  0.00  0.00    +0.249 C 
ATOM     20  O   UNL     1      -1.066  -1.686   3.776  0.00  0.00    -0.273 OA
ATOM     21  C   UNL     1       3.911  -1.122   3.952  0.00  0.00    +0.063 C 
BRANCH  18  22
ATOM     22  C   UNL     1      -0.349  -0.770   6.424  0.00  0.00    +0.060 A 
ATOM     23  C   UNL     1      -1.720  -0.955   6.300  0.00  0.00    +0.025 A 
ATOM     24  C   UNL     1      -2.550  -0.699   7.373  0.00  0.00    +0.002 A 
ATOM     25  C   UNL     1      -2.017  -0.259   8.571  0.00  0.00    +0.000 A 
ATOM     26  C   UNL     1      -0.653  -0.073   8.698  0.00  0.00    +0.002 A 
ATOM     27  C   UNL     1       0.183  -0.334   7.630  0.00  0.00    +0.025 A 
ENDBRANCH  18  22
ENDBRANCH   1  15
BRANCH   1  28
ATOM     28  C   UNL     1       1.247   0.778   2.568  0.00  0.00    -0.040 A 
ATOM     29  C   UNL     1       0.207   1.208   3.371  0.00  0.00    +0.004 A 
ATOM     30  C   UNL     1       0.168   2.519   3.809  0.00  0.00    +0.002 A 
ATOM     31  C   UNL     1       1.168   3.400   3.443  0.00  0.00    +0.033 A 
ATOM     32  C   UNL     1       2.208   2.970   2.641  0.00  0.00    +0.126 A 
ATOM     33  C   UNL     1       2.250   1.658   2.207  0.00  0.00    +0.036 A 
BRANCH  32  34
ATOM     34  N   UNL     1       3.279   3.914   2.249  0.00  0.00    +0.056 N 
ATOM     35  O   UNL     1       3.244   5.060   2.631  0.00  0.00    -0.126 OA
ATOM     36  O   UNL     1       4.189   3.538   1.547  0.00  0.00    -0.126 OA
ENDBRANCH  32  34
ENDBRANCH   1  28
TORSDOF 6
