REMARK  Name = ZINC37916254
REMARK  2 active torsions:
REMARK  status: ('A' for Active; 'I' for Inactive)
REMARK    1  A    between atoms: C_4  and  N_7
REMARK    2  A    between atoms: C_14  and  C_16
REMARK                            x       y       z     vdW  Elec       q    Type
REMARK                         _______ _______ _______ _____ _____    ______ ____
ROOT
ATOM      1  N   UNL     1       2.764  -0.537  -2.376  0.00  0.00    -0.296 N 
ATOM      2  C   UNL     1       3.380  -1.735  -2.428  0.00  0.00    +0.303 C 
ATOM      3  O   UNL     1       3.358  -2.472  -1.461  0.00  0.00    -0.253 OA
ATOM      4  N   UNL     1       4.021  -2.115  -3.550  0.00  0.00    -0.282 N 
ATOM      5  C   UNL     1       4.044  -1.369  -4.822  0.00  0.00    +0.110 C 
ATOM      6  C   UNL     1       4.335  -2.438  -5.904  0.00  0.00    +0.021 C 
ATOM      7  C   UNL     1       5.333  -3.367  -5.164  0.00  0.00    +0.024 C 
ATOM      8  C   UNL     1       4.820  -3.339  -3.708  0.00  0.00    +0.081 C 
ATOM      9  H   UNL     1       2.782   0.051  -3.147  0.00  0.00    +0.151 HD
ENDROOT
BRANCH   8  10
ATOM     10  C   UNL     1       6.002  -3.319  -2.737  0.00  0.00    +0.006 C 
ATOM     11  C   UNL     1       6.854  -2.072  -2.994  0.00  0.00    -0.014 C 
ATOM     12  C   UNL     1       8.076  -2.098  -2.074  0.00  0.00    -0.082 C 
ATOM     13  N   UNL     1       8.872  -3.301  -2.346  0.00  0.00    +0.379 N 
ATOM     14  C   UNL     1       8.085  -4.500  -2.033  0.00  0.00    -0.082 C 
ATOM     15  C   UNL     1       6.863  -4.566  -2.952  0.00  0.00    -0.014 C 
ATOM     16  H   UNL     1       9.134  -3.316  -3.320  0.00  0.00    -0.086 HD
ATOM     17  H   UNL     1       9.705  -3.288  -1.776  0.00  0.00    -0.086 HD
ENDBRANCH   8  10
BRANCH   1  21
ATOM     18  C   UNL     1      -0.143   1.268   0.172  0.00  0.00    +0.000 C 
ATOM     19  C   UNL     1       1.278   1.835   0.179  0.00  0.00    +0.002 C 
ATOM     20  C   UNL     1       2.006   1.403  -1.095  0.00  0.00    +0.022 C 
ATOM     21  C   UNL     1       2.067  -0.124  -1.156  0.00  0.00    +0.074 C 
ATOM     22  C   UNL     1       0.645  -0.691  -1.163  0.00  0.00    +0.022 C 
ATOM     23  C   UNL     1      -0.083  -0.260   0.111  0.00  0.00    +0.002 C 
ENDBRANCH   1  21
TORSDOF 2
