REMARK  Name = ZINC00122422
REMARK  5 active torsions:
REMARK  status: ('A' for Active; 'I' for Inactive)
REMARK    1  A    between atoms: C_1  and  C_2
REMARK    2  A    between atoms: C_3  and  C_11
REMARK    3  A    between atoms: C_4  and  C_7
REMARK    4  A    between atoms: N_9  and  N_10
REMARK    5  A    between atoms: C_14  and  C_16
REMARK                            x       y       z     vdW  Elec       q    Type
REMARK                         _______ _______ _______ _____ _____    ______ ____
ROOT
ATOM      1  C   UNL     1      -1.117   1.426   2.086  0.00  0.00    +0.090 C 
ATOM      2  C   UNL     1      -1.840   2.014   0.901  0.00  0.00    +0.144 A 
ATOM      3  C   UNL     1      -2.730   1.371   0.088  0.00  0.00    +0.075 A 
ATOM      4  C   UNL     1      -3.105   2.416  -0.883  0.00  0.00    +0.178 A 
ATOM      5  N   UNL     1      -2.428   3.479  -0.524  0.00  0.00    -0.073 NA
ATOM      6  O   UNL     1      -1.738   3.268   0.444  0.00  0.00    -0.359 OA
ENDROOT
BRANCH   3   7
ATOM      7  C   UNL     1      -3.202  -0.033   0.162  0.00  0.00    +0.084 A 
ATOM      8  C   UNL     1      -2.304  -1.057   0.315  0.00  0.00    +0.075 A 
ATOM      9  S   UNL     1      -3.408  -2.464   0.342  0.00  0.00    -0.075 S 
ATOM     10  C   UNL     1      -4.933  -1.554   0.139  0.00  0.00    +0.109 A 
ATOM     11  N   UNL     1      -4.490  -0.308   0.075  0.00  0.00    -0.239 NA
BRANCH  10  12
ATOM     12  C   UNL     1      -6.321  -2.059   0.063  0.00  0.00    +0.007 A 
ATOM     13  C   UNL     1      -7.383  -1.167  -0.094  0.00  0.00    +0.010 A 
ATOM     14  C   UNL     1      -8.675  -1.645  -0.169  0.00  0.00    +0.001 A 
ATOM     15  C   UNL     1      -8.920  -3.003  -0.079  0.00  0.00    +0.000 A 
ATOM     16  C   UNL     1      -7.872  -3.892   0.081  0.00  0.00    +0.001 A 
ATOM     17  C   UNL     1      -6.574  -3.428   0.152  0.00  0.00    +0.010 A 
ENDBRANCH  10  12
ENDBRANCH   3   7
BRANCH   4  18
ATOM     18  C   UNL     1      -4.051   2.292  -2.018  0.00  0.00    +0.280 C 
ATOM     19  O   UNL     1      -4.542   1.214  -2.284  0.00  0.00    -0.267 OA
ATOM     20  N   UNL     1      -4.370   3.378  -2.750  0.00  0.00    -0.248 N 
ATOM     21  H   UNL     1      -3.977   4.239  -2.537  0.00  0.00    +0.169 HD
BRANCH  20  22
ATOM     22  N   UNL     1      -5.245   3.265  -3.792  0.00  0.00    -0.254 NA
ATOM     23  H   UNL     1      -6.123   2.872  -3.487  0.00  0.00    +0.140 HD
ATOM     24  H   UNL     1      -5.386   4.156  -4.245  0.00  0.00    +0.140 HD
ENDBRANCH  20  22
ENDBRANCH   4  18
TORSDOF 4
