REMARK  Name = ZINC43604579
REMARK  10 active torsions:
REMARK  status: ('A' for Active; 'I' for Inactive)
REMARK    1  A    between atoms: C_1  and  C_2
REMARK    2  A    between atoms: C_13  and  O_30
REMARK    3  A    between atoms: C_17  and  C_29
REMARK    4  A    between atoms: C_22  and  C_28
REMARK    5  A    between atoms: C_23  and  C_25
REMARK    6  A    between atoms: C_25  and  C_27
REMARK    7  A    between atoms: O_30  and  C_31
REMARK    8  A    between atoms: C_31  and  C_33
REMARK    9  A    between atoms: C_33  and  C_34
REMARK   10  A    between atoms: C_34  and  N_35
REMARK                            x       y       z     vdW  Elec       q    Type
REMARK                         _______ _______ _______ _____ _____    ______ ____
ROOT
ATOM      1  C   UNL     1      -0.019   1.526   0.010  0.00  0.00    +0.008 C 
ATOM      2  C   UNL     1       0.002  -0.004   0.002  0.00  0.00    -0.003 C 
ATOM      3  C   UNL     1      -1.438  -0.553   0.067  0.00  0.00    +0.008 C 
ATOM      4  C   UNL     1      -1.516  -1.376   1.360  0.00  0.00    -0.000 C 
ATOM      5  C   UNL     1      -2.477  -2.538   1.251  0.00  0.00    +0.000 C 
ATOM      6  C   UNL     1      -3.844  -2.030   0.778  0.00  0.00    +0.031 C 
ATOM      7  C   UNL     1      -4.778  -3.194   0.619  0.00  0.00    -0.027 C 
ATOM      8  C   UNL     1      -4.369  -4.402   0.367  0.00  0.00    -0.064 C 
ATOM      9  C   UNL     1      -5.410  -5.497   0.208  0.00  0.00    +0.075 C 
ATOM     10  C   UNL     1      -5.142  -6.231  -1.110  0.00  0.00    +0.180 C 
ATOM     11  C   UNL     1      -3.700  -6.740  -1.125  0.00  0.00    +0.046 C 
ATOM     12  C   UNL     1      -2.733  -5.554  -1.089  0.00  0.00    +0.015 C 
ATOM     13  C   UNL     1      -2.925  -4.782   0.219  0.00  0.00    -0.008 C 
ATOM     14  C   UNL     1      -1.992  -3.581   0.247  0.00  0.00    +0.003 C 
ATOM     15  C   UNL     1      -0.597  -4.060   0.666  0.00  0.00    +0.005 C 
ATOM     16  C   UNL     1       0.367  -2.878   0.622  0.00  0.00    +0.008 C 
ATOM     17  C   UNL     1      -0.068  -1.814   1.640  0.00  0.00    -0.019 C 
ATOM     18  C   UNL     1       0.730  -0.531   1.258  0.00  0.00    +0.064 C 
ATOM     19  C   UNL     1       0.141  -2.240   3.095  0.00  0.00    +0.012 C 
ATOM     20  C   UNL     1      -2.555  -5.710   1.377  0.00  0.00    +0.016 C 
ENDROOT
BRANCH  18  21
ATOM     21  C   UNL     1       0.665   0.483   2.371  0.00  0.00    +0.134 C 
ATOM     22  O   UNL     1      -0.218   0.422   3.193  0.00  0.00    -0.297 OA
ATOM     23  C   UNL     1       1.703   1.573   2.459  0.00  0.00    +0.086 C 
ENDBRANCH  18  21
BRANCH  10  24
ATOM     24  O   UNL     1      -6.039  -7.337  -1.230  0.00  0.00    -0.461 OA
BRANCH  24  25
ATOM     25  C   UNL     1      -7.215  -7.104  -1.835  0.00  0.00    +0.306 C 
ATOM     26  O   UNL     1      -7.474  -5.999  -2.248  0.00  0.00    -0.251 OA
BRANCH  25  27
ATOM     27  C   UNL     1      -8.212  -8.222  -1.999  0.00  0.00    +0.102 C 
BRANCH  27  28
ATOM     28  C   UNL     1      -9.457  -7.695  -2.714  0.00  0.00    -0.068 C 
BRANCH  28  29
ATOM     29  N   UNL     1     -10.429  -8.785  -2.874  0.00  0.00    +0.380 N 
ATOM     30  C   UNL     1      -9.868  -9.812  -3.760  0.00  0.00    -0.079 C 
ATOM     31  C   UNL     1     -10.843 -10.987  -3.865  0.00  0.00    -0.019 C 
ATOM     32  C   UNL     1     -12.174 -10.490  -4.436  0.00  0.00    -0.004 C 
ATOM     33  C   UNL     1     -12.713  -9.367  -3.545  0.00  0.00    -0.019 C 
ATOM     34  C   UNL     1     -11.669  -8.252  -3.451  0.00  0.00    -0.079 C 
ATOM     35  H   UNL     1     -10.627  -9.192  -1.972  0.00  0.00    -0.082 HD
ENDBRANCH  28  29
ENDBRANCH  27  28
ENDBRANCH  25  27
ENDBRANCH  24  25
ENDBRANCH  10  24
TORSDOF 6
