REMARK  Name = ZINC09647372
REMARK  13 active torsions:
REMARK  status: ('A' for Active; 'I' for Inactive)
REMARK    1  A    between atoms: C_1  and  C_2
REMARK    2  A    between atoms: C_15  and  C_17
REMARK    3  A    between atoms: C_17  and  C_19
REMARK    4  A    between atoms: C_17  and  N_63
REMARK    5  A    between atoms: C_20  and  N_63
REMARK    6  A    between atoms: C_21  and  C_22
REMARK    7  A    between atoms: C_21  and  N_63
REMARK    8  A    between atoms: C_25  and  O_32
REMARK    9  A    between atoms: C_26  and  O_30
REMARK   10  A    between atoms: C_27  and  O_28
REMARK   11  A    between atoms: O_28  and  C_29
REMARK   12  A    between atoms: O_30  and  C_31
REMARK   13  A    between atoms: O_32  and  C_33
REMARK                            x       y       z     vdW  Elec       q    Type
REMARK                         _______ _______ _______ _____ _____    ______ ____
ROOT
ATOM      1  C   UNL     1       1.077  -0.497  -0.937  0.00  0.00    -0.004 C 
ATOM      2  C   UNL     1       0.563  -0.124  -2.329  0.00  0.00    -0.005 C 
ENDROOT
BRANCH   1  16
ATOM      3  C   UNL     1       1.219 -10.347   0.735  0.00  0.00    +0.008 C 
ATOM      4  C   UNL     1       1.550  -8.870   0.513  0.00  0.00    -0.009 C 
ATOM      5  C   UNL     1       1.544  -8.562  -0.987  0.00  0.00    +0.008 C 
ATOM      6  C   UNL     1       2.112  -7.164  -1.234  0.00  0.00    +0.037 C 
ATOM      7  C   UNL     1       1.364  -6.166  -0.354  0.00  0.00    -0.023 A 
ATOM      8  C   UNL     1       0.656  -6.587   0.716  0.00  0.00    -0.004 A 
ATOM      9  S   UNL     1      -0.029  -5.112   1.422  0.00  0.00    -0.073 S 
ATOM     10  C   UNL     1       0.639  -3.933   0.276  0.00  0.00    +0.116 A 
ATOM     11  C   UNL     1       1.373  -4.728  -0.619  0.00  0.00    +0.075 A 
ATOM     12  C   UNL     1       2.036  -4.022  -1.676  0.00  0.00    +0.260 A 
ATOM     13  O   UNL     1       2.698  -4.624  -2.503  0.00  0.00    -0.267 OA
ATOM     14  N   UNL     1       1.915  -2.683  -1.739  0.00  0.00    -0.312 N 
ATOM     15  H   UNL     1       2.361  -2.199  -2.451  0.00  0.00    +0.170 HD
ATOM     16  C   UNL     1       1.182  -1.996  -0.825  0.00  0.00    +0.097 A 
ATOM     17  N   UNL     1       0.571  -2.611   0.151  0.00  0.00    -0.228 NA
ATOM     18  C   UNL     1       0.490  -7.995   1.198  0.00  0.00    +0.046 C 
ENDBRANCH   1  16
BRANCH   1  20
ATOM     19  C   UNL     1      -1.200  -0.556  -0.115  0.00  0.00    -0.095 C 
ATOM     20  N   UNL     1       0.153  -0.003   0.106  0.00  0.00    +0.387 N 
ATOM     21  H   UNL     1       0.493  -0.309   1.025  0.00  0.00    -0.081 HD
BRANCH  20  22
ATOM     22  C   UNL     1       0.105   1.474   0.080  0.00  0.00    -0.039 C 
BRANCH  22  23
ATOM     23  C   UNL     1      -0.663   1.957   1.283  0.00  0.00    -0.018 A 
ATOM     24  C   UNL     1      -1.980   2.354   1.147  0.00  0.00    +0.009 A 
ATOM     25  C   UNL     1      -2.691   2.793   2.248  0.00  0.00    +0.050 A 
ATOM     26  C   UNL     1      -2.081   2.847   3.493  0.00  0.00    +0.165 A 
ATOM     27  C   UNL     1      -0.755   2.454   3.633  0.00  0.00    +0.204 A 
ATOM     28  C   UNL     1      -0.046   2.008   2.523  0.00  0.00    +0.167 A 
BRANCH  28  29
ATOM     29  O   UNL     1       1.251   1.622   2.655  0.00  0.00    -0.491 OA
ATOM     30  C   UNL     1       1.489   0.277   3.075  0.00  0.00    +0.277 C 
ENDBRANCH  28  29
BRANCH  27  31
ATOM     31  O   UNL     1      -0.153   2.505   4.852  0.00  0.00    -0.488 OA
ATOM     32  C   UNL     1       0.421   3.755   5.240  0.00  0.00    +0.277 C 
ENDBRANCH  27  31
BRANCH  26  33
ATOM     33  O   UNL     1      -2.779   3.284   4.575  0.00  0.00    -0.491 OA
ATOM     34  C   UNL     1      -4.137   3.672   4.357  0.00  0.00    +0.277 C 
ENDBRANCH  26  33
ENDBRANCH  22  23
ENDBRANCH  20  22
ENDBRANCH   1  20
TORSDOF 7
