REMARK  Name = ZINC17945713
REMARK  3 active torsions:
REMARK  status: ('A' for Active; 'I' for Inactive)
REMARK    1  A    between atoms: C_1  and  C_2
REMARK    2  A    between atoms: C_14  and  C_16
REMARK    3  A    between atoms: C_24  and  C_27
REMARK                            x       y       z     vdW  Elec       q    Type
REMARK                         _______ _______ _______ _____ _____    ______ ____
ROOT
ATOM      1  C   UNL     1       0.965  -1.915   6.253  0.00  0.00    +0.110 C 
ATOM      2  C   UNL     1       1.710  -1.353   5.070  0.00  0.00    +0.218 C 
ATOM      3  O   UNL     1       2.445  -2.068   4.421  0.00  0.00    -0.276 OA
ATOM      4  N   UNL     1       1.560  -0.057   4.733  0.00  0.00    -0.255 N 
ATOM      5  C   UNL     1       0.712   0.754   5.488  0.00  0.00    +0.058 A 
ATOM      6  C   UNL     1       1.015   1.097   6.795  0.00  0.00    +0.025 A 
ATOM      7  C   UNL     1       0.201   1.991   7.470  0.00  0.00    +0.002 A 
ATOM      8  C   UNL     1      -0.906   2.538   6.846  0.00  0.00    +0.002 A 
ATOM      9  C   UNL     1      -1.223   2.182   5.547  0.00  0.00    +0.025 A 
ATOM     10  C   UNL     1      -0.420   1.274   4.877  0.00  0.00    +0.053 A 
ATOM     11  N   UNL     1      -0.705   0.840   3.589  0.00  0.00    -0.316 N 
ATOM     12  C   UNL     1       0.069   1.084   2.501  0.00  0.00    +0.018 C 
ATOM     13  C   UNL     1       1.402   0.925   2.454  0.00  0.00    +0.040 C 
ATOM     14  C   UNL     1       2.282   0.470   3.594  0.00  0.00    +0.182 C 
ATOM     15  C   UNL     1       2.109   1.187   1.256  0.00  0.00    +0.164 C 
ATOM     16  O   UNL     1       3.317   1.053   1.248  0.00  0.00    -0.292 OA
ATOM     17  C   UNL     1       1.423   1.625  -0.003  0.00  0.00    +0.091 C 
ATOM     18  C   UNL     1      -0.013   1.086   0.008  0.00  0.00    +0.068 C 
ATOM     19  C   UNL     1      -0.688   1.587   1.283  0.00  0.00    +0.063 C 
ATOM     20  H   UNL     1      -1.516   0.325   3.457  0.00  0.00    +0.152 HD
ENDROOT
BRANCH  14  21
ATOM     21  C   UNL     1       3.111   1.641   4.054  0.00  0.00    +0.130 A 
ATOM     22  C   UNL     1       4.395   1.873   3.725  0.00  0.00    +0.047 A 
ATOM     23  C   UNL     1       4.774   3.071   4.373  0.00  0.00    +0.041 A 
ATOM     24  C   UNL     1       3.699   3.500   5.059  0.00  0.00    +0.195 A 
ATOM     25  O   UNL     1       2.693   2.633   4.857  0.00  0.00    -0.466 OA
ENDBRANCH  14  21
BRANCH  18  26
ATOM     26  C   UNL     1      -0.758   1.593  -1.200  0.00  0.00    +0.109 A 
ATOM     27  C   UNL     1      -1.325   0.830  -2.151  0.00  0.00    +0.045 A 
ATOM     28  C   UNL     1      -1.911   1.713  -3.088  0.00  0.00    +0.041 A 
ATOM     29  C   UNL     1      -1.667   2.962  -2.652  0.00  0.00    +0.195 A 
ATOM     30  O   UNL     1      -0.973   2.883  -1.505  0.00  0.00    -0.468 OA
ENDBRANCH  18  26
TORSDOF 2
