REMARK  Name = ZINC08767148
REMARK  13 active torsions:
REMARK  status: ('A' for Active; 'I' for Inactive)
REMARK    1  A    between atoms: C_1  and  C_2
REMARK    2  A    between atoms: C_2  and  C_3
REMARK    3  A    between atoms: C_3  and  C_4
REMARK    4  A    between atoms: C_5  and  C_39
REMARK    5  A    between atoms: C_6  and  C_27
REMARK    6  A    between atoms: C_12  and  C_13
REMARK    7  A    between atoms: C_16  and  N_18
REMARK    8  A    between atoms: C_23  and  N_79
REMARK    9  A    between atoms: C_36  and  O_37
REMARK   10  A    between atoms: O_37  and  C_38
REMARK   11  A    between atoms: C_39  and  O_41
REMARK   12  A    between atoms: O_41  and  C_42
REMARK   13  A    between atoms: C_42  and  C_43
REMARK                            x       y       z     vdW  Elec       q    Type
REMARK                         _______ _______ _______ _____ _____    ______ ____
ROOT
ATOM      1  C   UNL     1       3.766   6.704  -1.421  0.00  0.00    +0.056 C 
ATOM      2  C   UNL     1       2.805   5.745  -1.248  0.00  0.00    +0.085 C 
ATOM      3  C   UNL     1       2.470   5.321   0.164  0.00  0.00    +0.166 C 
ATOM      4  N   UNL     1       3.217   5.986   1.267  0.00  0.00    -0.275 N 
ATOM      5  C   UNL     1       3.070   5.754   2.578  0.00  0.00    +0.268 A 
ATOM      6  O   UNL     1       2.265   4.933   2.982  0.00  0.00    -0.266 OA
ATOM      7  C   UNL     1       3.875   6.489   3.481  0.00  0.00    +0.084 A 
ATOM      8  C   UNL     1       3.914   6.439   4.859  0.00  0.00    +0.067 C 
ATOM      9  S   UNL     1       4.825   7.501   2.358  0.00  0.00    -0.046 S 
ATOM     10  C   UNL     1       4.142   6.925   0.875  0.00  0.00    +0.178 A 
ATOM     11  N   UNL     1       4.379   7.241  -0.375  0.00  0.00    -0.227 NA
ENDROOT
BRANCH   3  12
ATOM     12  C   UNL     1       2.708   3.837   0.271  0.00  0.00    +0.029 A 
ATOM     13  C   UNL     1       1.620   2.951   0.345  0.00  0.00    -0.009 A 
ATOM     14  C   UNL     1       0.295   3.420   0.320  0.00  0.00    +0.009 A 
ATOM     15  C   UNL     1      -0.734   2.533   0.393  0.00  0.00    +0.001 A 
ATOM     16  C   UNL     1      -0.496   1.163   0.486  0.00  0.00    +0.001 A 
ATOM     17  C   UNL     1       0.773   0.673   0.518  0.00  0.00    +0.008 A 
ATOM     18  C   UNL     1       1.863   1.558   0.445  0.00  0.00    -0.017 A 
ATOM     19  C   UNL     1       3.187   1.087   0.469  0.00  0.00    +0.012 A 
ATOM     20  C   UNL     1       4.218   1.971   0.396  0.00  0.00    +0.046 A 
ATOM     21  C   UNL     1       3.982   3.346   0.297  0.00  0.00    +0.126 A 
BRANCH  21  22
ATOM     22  O   UNL     1       5.033   4.204   0.226  0.00  0.00    -0.495 OA
ATOM     23  C   UNL     1       6.341   3.630   0.257  0.00  0.00    +0.277 C 
ENDBRANCH  21  22
ENDBRANCH   3  12
BRANCH   8  24
ATOM     24  C   UNL     1       2.963   5.678   5.561  0.00  0.00    +0.131 A 
ATOM     25  C   UNL     1       2.822   5.620   6.939  0.00  0.00    +0.051 A 
ATOM     26  C   UNL     1       1.759   4.752   7.196  0.00  0.00    +0.066 A 
ATOM     27  C   UNL     1       1.298   4.308   5.990  0.00  0.00    +0.189 A 
ATOM     28  O   UNL     1       2.028   4.870   5.013  0.00  0.00    -0.442 OA
BRANCH  27  29
ATOM     29  N   UNL     1       0.254   3.425   5.805  0.00  0.00    -0.305 N 
ATOM     30  C   UNL     1       0.489   2.170   6.532  0.00  0.00    +0.089 C 
ATOM     31  C   UNL     1      -0.724   1.252   6.367  0.00  0.00    -0.060 C 
ATOM     32  C   UNL     1      -1.185   2.249   4.210  0.00  0.00    -0.060 C 
ATOM     33  C   UNL     1       0.029   3.167   4.375  0.00  0.00    +0.089 C 
ATOM     34  C   UNL     1      -2.061   0.055   4.741  0.00  0.00    -0.096 C 
ATOM     35  N   UNL     1      -0.926   0.983   4.928  0.00  0.00    +0.380 N 
ATOM     36  H   UNL     1      -0.076   0.552   4.547  0.00  0.00    -0.082 HD
ENDBRANCH  27  29
ENDBRANCH   8  24
BRANCH   2  37
ATOM     37  C   UNL     1       2.151   5.171  -2.349  0.00  0.00    +0.339 C 
ATOM     38  O   UNL     1       2.514   5.440  -3.481  0.00  0.00    -0.245 OA
BRANCH  37  39
ATOM     39  O   UNL     1       1.120   4.321  -2.154  0.00  0.00    -0.462 OA
BRANCH  39  40
ATOM     40  C   UNL     1       0.500   3.775  -3.320  0.00  0.00    +0.229 C 
ATOM     41  C   UNL     1      -0.638   2.842  -2.903  0.00  0.00    +0.048 C 
ENDBRANCH  39  40
ENDBRANCH  37  39
ENDBRANCH   2  37
BRANCH   1  42
ATOM     42  C   UNL     1       4.130   7.154  -2.812  0.00  0.00    +0.056 C 
BRANCH  42  44
ATOM     43  C   UNL     1       5.564   6.675  -4.801  0.00  0.00    +0.004 C 
ATOM     44  C   UNL     1       5.194   6.218  -3.389  0.00  0.00    +0.003 C 
ENDBRANCH  42  44
ENDBRANCH   1  42
TORSDOF 9
