REMARK  Name = ZINC02074179
REMARK  17 active torsions:
REMARK  status: ('A' for Active; 'I' for Inactive)
REMARK    1  A    between atoms: C_1  and  C_2
REMARK    2  A    between atoms: C_2  and  C_3
REMARK    3  A    between atoms: C_3  and  C_4
REMARK    4  A    between atoms: C_4  and  O_5
REMARK    5  A    between atoms: O_5  and  C_6
REMARK    6  A    between atoms: C_6  and  C_8
REMARK    7  A    between atoms: C_9  and  C_41
REMARK    8  A    between atoms: C_13  and  C_15
REMARK    9  A    between atoms: C_18  and  O_24
REMARK   10  A    between atoms: C_19  and  O_21
REMARK   11  A    between atoms: O_21  and  C_22
REMARK   12  A    between atoms: C_22  and  C_23
REMARK   13  A    between atoms: C_28  and  C_31
REMARK   14  A    between atoms: C_34  and  O_39
REMARK   15  A    between atoms: C_35  and  O_37
REMARK   16  A    between atoms: O_37  and  C_38
REMARK   17  A    between atoms: O_39  and  C_40
REMARK                            x       y       z     vdW  Elec       q    Type
REMARK                         _______ _______ _______ _____ _____    ______ ____
ROOT
ATOM      1  C   UNL     1      -0.850   2.892   1.467  0.00  0.00    +0.065 C 
ATOM      2  C   UNL     1      -0.718   1.572   1.248  0.00  0.00    +0.016 C 
ATOM      3  N   UNL     1      -1.215   0.668   2.145  0.00  0.00    -0.321 N 
ATOM      4  C   UNL     1      -1.492   1.043   3.432  0.00  0.00    +0.016 C 
ATOM      5  C   UNL     1      -1.665   2.345   3.744  0.00  0.00    +0.024 C 
ATOM      6  C   UNL     1      -1.558   3.412   2.683  0.00  0.00    +0.092 C 
ATOM      7  C   UNL     1      -1.954   2.743   5.061  0.00  0.00    +0.162 C 
ATOM      8  O   UNL     1      -2.088   3.925   5.311  0.00  0.00    -0.292 OA
ATOM      9  C   UNL     1      -2.099   1.733   6.166  0.00  0.00    +0.088 C 
ATOM     10  C   UNL     1      -2.585   0.408   5.570  0.00  0.00    +0.032 C 
ATOM     11  C   UNL     1      -1.594  -0.029   4.488  0.00  0.00    +0.059 C 
ATOM     12  C   UNL     1      -0.013   1.086   0.008  0.00  0.00    +0.061 C 
ATOM     13  H   UNL     1      -1.396  -0.372   1.835  0.00  0.00    +0.152 HD
ENDROOT
BRANCH   6  14
ATOM     14  C   UNL     1      -2.943   3.866   2.298  0.00  0.00    -0.032 A 
ATOM     15  C   UNL     1      -3.846   2.959   1.777  0.00  0.00    +0.008 A 
ATOM     16  C   UNL     1      -5.117   3.371   1.422  0.00  0.00    +0.049 A 
ATOM     17  C   UNL     1      -5.488   4.696   1.589  0.00  0.00    +0.158 A 
ATOM     18  C   UNL     1      -4.578   5.609   2.113  0.00  0.00    +0.162 A 
ATOM     19  C   UNL     1      -3.308   5.189   2.471  0.00  0.00    +0.054 A 
BRANCH  17  20
ATOM     20  O   UNL     1      -6.738   5.103   1.240  0.00  0.00    -0.503 OA
ATOM     21  H   UNL     1      -7.031   6.155   1.373  0.00  0.00    +0.292 HD
ENDBRANCH  17  20
BRANCH  18  22
ATOM     22  O   UNL     1      -4.937   6.911   2.278  0.00  0.00    -0.489 OA
BRANCH  22  23
ATOM     23  C   UNL     1      -3.951   7.791   2.821  0.00  0.00    +0.226 C 
ATOM     24  C   UNL     1      -4.534   9.202   2.932  0.00  0.00    +0.048 C 
ENDBRANCH  22  23
ENDBRANCH  18  22
ENDBRANCH   6  14
BRANCH  10  25
ATOM     25  C   UNL     1      -2.654  -0.639   6.652  0.00  0.00    -0.040 A 
ATOM     26  C   UNL     1      -1.512  -0.987   7.349  0.00  0.00    +0.008 A 
ATOM     27  C   UNL     1      -1.570  -1.947   8.342  0.00  0.00    +0.049 A 
ATOM     28  C   UNL     1      -2.775  -2.562   8.641  0.00  0.00    +0.161 A 
ATOM     29  C   UNL     1      -3.925  -2.212   7.940  0.00  0.00    +0.162 A 
ATOM     30  C   UNL     1      -3.860  -1.245   6.949  0.00  0.00    +0.053 A 
BRANCH  29  31
ATOM     31  O   UNL     1      -5.110  -2.813   8.230  0.00  0.00    -0.491 OA
ATOM     32  C   UNL     1      -6.248  -2.403   7.469  0.00  0.00    +0.277 C 
ENDBRANCH  29  31
BRANCH  28  33
ATOM     33  O   UNL     1      -2.834  -3.506   9.619  0.00  0.00    -0.491 OA
ATOM     34  C   UNL     1      -1.615  -3.815  10.297  0.00  0.00    +0.277 C 
ENDBRANCH  28  33
ENDBRANCH  10  25
BRANCH   1  35
ATOM     35  C   UNL     1      -0.314   3.807   0.532  0.00  0.00    +0.338 C 
ATOM     36  O   UNL     1       0.259   3.398  -0.461  0.00  0.00    -0.245 OA
BRANCH  35  37
ATOM     37  O   UNL     1      -0.438   5.135   0.739  0.00  0.00    -0.461 OA
BRANCH  37  38
ATOM     38  C   UNL     1       0.126   6.001  -0.246  0.00  0.00    +0.232 C 
BRANCH  38  39
ATOM     39  C   UNL     1      -0.112   7.457   0.158  0.00  0.00    +0.041 C 
BRANCH  39  41
ATOM     40  C   UNL     1       0.254   9.842  -0.493  0.00  0.00    +0.004 C 
ATOM     41  C   UNL     1       0.493   8.386  -0.898  0.00  0.00    -0.000 C 
ENDBRANCH  39  41
ENDBRANCH  38  39
ENDBRANCH  37  38
ENDBRANCH  35  37
ENDBRANCH   1  35
TORSDOF 12
