REMARK  Name = ZINC21231479
REMARK  13 active torsions:
REMARK  status: ('A' for Active; 'I' for Inactive)
REMARK    1  A    between atoms: C_1  and  C_2
REMARK    2  A    between atoms: C_2  and  C_4
REMARK    3  A    between atoms: C_2  and  O_20
REMARK    4  A    between atoms: N_6  and  C_7
REMARK    5  A    between atoms: C_10  and  S_13
REMARK    6  A    between atoms: S_13  and  N_16
REMARK    7  A    between atoms: N_16  and  C_17
REMARK    8  A    between atoms: C_17  and  C_18
REMARK    9  A    between atoms: C_17  and  C_19
REMARK   10  A    between atoms: O_20  and  C_21
REMARK   11  A    between atoms: C_21  and  C_23
REMARK   12  A    between atoms: C_25  and  N_30
REMARK   13  A    between atoms: C_28  and  N_29
REMARK                            x       y       z     vdW  Elec       q    Type
REMARK                         _______ _______ _______ _____ _____    ______ ____
ROOT
ATOM      1  C   UNL     1       1.548  -0.755  -1.384  0.00  0.00    +0.258 C 
ATOM      2  O   UNL     1       2.572  -1.353  -1.127  0.00  0.00    -0.271 OA
ATOM      3  N   UNL     1       1.170  -0.587  -2.667  0.00  0.00    -0.282 N 
ATOM      4  H   UNL     1       0.320  -0.165  -2.870  0.00  0.00    +0.155 HD
ENDROOT
BRANCH   3   5
ATOM      5  C   UNL     1       2.003  -1.019  -3.704  0.00  0.00    +0.034 A 
ATOM      6  C   UNL     1       2.074  -0.295  -4.887  0.00  0.00    +0.025 A 
ATOM      7  C   UNL     1       2.897  -0.724  -5.910  0.00  0.00    +0.030 A 
ATOM      8  C   UNL     1       3.650  -1.874  -5.756  0.00  0.00    +0.105 A 
ATOM      9  C   UNL     1       3.581  -2.598  -4.580  0.00  0.00    +0.030 A 
ATOM     10  C   UNL     1       2.765  -2.170  -3.551  0.00  0.00    +0.025 A 
BRANCH   8  11
ATOM     11  S   UNL     1       4.699  -2.418  -7.063  0.00  0.00    +0.059 S 
ATOM     12  O   UNL     1       4.883  -3.816  -6.881  0.00  0.00    -0.153 OA
ATOM     13  O   UNL     1       4.172  -1.869  -8.263  0.00  0.00    -0.153 OA
BRANCH  11  14
ATOM     14  N   UNL     1       6.179  -1.712  -6.830  0.00  0.00    -0.187 NA
ATOM     15  H   UNL     1       6.518  -1.072  -7.475  0.00  0.00    +0.148 HD
BRANCH  14  16
ATOM     16  C   UNL     1       6.976  -2.054  -5.649  0.00  0.00    +0.070 C 
ATOM     17  C   UNL     1       8.461  -2.047  -6.017  0.00  0.00    +0.025 C 
ATOM     18  C   UNL     1       6.718  -1.027  -4.545  0.00  0.00    +0.025 C 
ENDBRANCH  14  16
ENDBRANCH  11  14
ENDBRANCH   8  11
ENDBRANCH   3   5
BRANCH   1  20
ATOM     19  C   UNL     1       0.684   1.327  -0.350  0.00  0.00    +0.062 C 
ATOM     20  C   UNL     1       0.699  -0.201  -0.269  0.00  0.00    +0.259 C 
BRANCH  20  21
ATOM     21  O   UNL     1       1.242  -0.606   0.989  0.00  0.00    -0.449 OA
BRANCH  21  22
ATOM     22  C   UNL     1       0.374  -0.764   2.008  0.00  0.00    +0.342 C 
ATOM     23  O   UNL     1      -0.811  -0.565   1.832  0.00  0.00    -0.245 OA
BRANCH  22  24
ATOM     24  C   UNL     1       0.863  -1.180   3.334  0.00  0.00    +0.082 A 
ATOM     25  C   UNL     1       2.235  -1.302   3.572  0.00  0.00    +0.049 A 
ATOM     26  C   UNL     1       2.685  -1.691   4.814  0.00  0.00    +0.127 A 
ATOM     27  C   UNL     1       1.784  -1.963   5.832  0.00  0.00    +0.034 A 
ATOM     28  C   UNL     1       0.427  -1.847   5.614  0.00  0.00    +0.026 A 
ATOM     29  C   UNL     1      -0.047  -1.450   4.369  0.00  0.00    +0.039 A 
BRANCH  29  30
ATOM     30  N   UNL     1      -1.412  -1.327   4.148  0.00  0.00    -0.357 N 
ATOM     31  H   UNL     1      -1.737  -0.981   3.303  0.00  0.00    +0.142 HD
ATOM     32  H   UNL     1      -2.040  -1.588   4.840  0.00  0.00    +0.142 HD
ENDBRANCH  29  30
BRANCH  26  33
ATOM     33  N   UNL     1       4.138  -1.819   5.063  0.00  0.00    +0.056 N 
ATOM     34  O   UNL     1       4.927  -1.583   4.177  0.00  0.00    -0.126 OA
ATOM     35  O   UNL     1       4.537  -2.160   6.152  0.00  0.00    -0.126 OA
ENDBRANCH  26  33
ENDBRANCH  22  24
ENDBRANCH  21  22
ENDBRANCH  20  21
ENDBRANCH   1  20
TORSDOF 10
