REMARK  Name = ZINC09187248
REMARK  4 active torsions:
REMARK  status: ('A' for Active; 'I' for Inactive)
REMARK    1  A    between atoms: C_1  and  S_2
REMARK    2  A    between atoms: S_2  and  C_3
REMARK    3  A    between atoms: C_9  and  C_19
REMARK    4  A    between atoms: C_26  and  C_30
REMARK                            x       y       z     vdW  Elec       q    Type
REMARK                         _______ _______ _______ _____ _____    ______ ____
ROOT
ATOM      1  C   UNL     1       0.826  -2.060  -0.930  0.00  0.00    +0.196 C 
ATOM      2  N   UNL     1       1.040  -0.937  -1.623  0.00  0.00    -0.190 NA
ATOM      3  C   UNL     1       1.630  -1.223  -2.768  0.00  0.00    +0.217 C 
ATOM      4  N   UNL     1       2.053  -0.421  -3.809  0.00  0.00    -0.326 N 
ATOM      5  C   UNL     1       2.666  -0.929  -4.947  0.00  0.00    +0.058 C 
ATOM      6  C   UNL     1       2.874  -2.243  -5.093  0.00  0.00    +0.026 C 
ATOM      7  C   UNL     1       3.529  -2.777  -6.335  0.00  0.00    +0.234 C 
ATOM      8  O   UNL     1       4.452  -1.823  -6.863  0.00  0.00    -0.479 OA
ATOM      9  C   UNL     1       4.026  -0.539  -6.978  0.00  0.00    +0.131 A 
ATOM     10  C   UNL     1       3.122  -0.032  -6.034  0.00  0.00    +0.042 A 
ATOM     11  C   UNL     1       2.674   1.279  -6.130  0.00  0.00    +0.033 A 
ATOM     12  C   UNL     1       3.126   2.080  -7.163  0.00  0.00    +0.042 A 
ATOM     13  C   UNL     1       4.019   1.578  -8.095  0.00  0.00    +0.023 A 
ATOM     14  C   UNL     1       4.469   0.273  -8.006  0.00  0.00    +0.048 A 
ATOM     15 CL   UNL     1       2.571   3.720  -7.292  0.00  0.00    -0.084 Cl
ATOM     16  C   UNL     1       2.435  -3.170  -3.984  0.00  0.00    +0.167 C 
ATOM     17  N   UNL     1       1.798  -2.561  -2.812  0.00  0.00    -0.187 N 
ATOM     18  N   UNL     1       1.281  -3.080  -1.620  0.00  0.00    -0.118 NA
ATOM     19  H   UNL     1       1.915   0.537  -3.743  0.00  0.00    +0.169 HD
ENDROOT
BRANCH   7  20
ATOM     20  C   UNL     1       2.472  -3.068  -7.369  0.00  0.00    -0.003 A 
ATOM     21  C   UNL     1       1.826  -2.027  -8.008  0.00  0.00    +0.009 A 
ATOM     22  C   UNL     1       0.857  -2.293  -8.957  0.00  0.00    +0.020 A 
ATOM     23  C   UNL     1       0.534  -3.602  -9.267  0.00  0.00    +0.041 A 
ATOM     24  C   UNL     1       1.181  -4.644  -8.627  0.00  0.00    +0.020 A 
ATOM     25  C   UNL     1       2.154  -4.377  -7.683  0.00  0.00    +0.009 A 
ATOM     26 CL   UNL     1      -0.684  -3.937 -10.458  0.00  0.00    -0.084 Cl
ENDBRANCH   7  20
BRANCH  16  27
ATOM     27  C   UNL     1       1.468  -4.167  -4.569  0.00  0.00    +0.016 A 
ATOM     28  C   UNL     1       1.657  -5.481  -4.842  0.00  0.00    +0.013 A 
ATOM     29  C   UNL     1       0.615  -6.210  -5.384  0.00  0.00    +0.008 A 
ATOM     30  C   UNL     1      -0.565  -5.589  -5.627  0.00  0.00    +0.045 A 
ATOM     31  S   UNL     1      -0.226  -3.925  -5.077  0.00  0.00    -0.099 S 
ENDBRANCH  16  27
BRANCH   1  33
ATOM     32  C   UNL     1      -0.333  -0.431   1.056  0.00  0.00    +0.093 C 
ATOM     33  S   UNL     1       0.063  -2.156   0.655  0.00  0.00    -0.091 S 
ENDBRANCH   1  33
TORSDOF 3
