REMARK  Name = ZINC63375663
REMARK  7 active torsions:
REMARK  status: ('A' for Active; 'I' for Inactive)
REMARK    1  A    between atoms: C_1  and  O_2
REMARK    2  A    between atoms: O_2  and  C_3
REMARK    3  A    between atoms: C_3  and  C_4
REMARK    4  A    between atoms: C_4  and  N_5
REMARK    5  A    between atoms: C_6  and  C_8
REMARK    6  A    between atoms: C_13  and  N_14
REMARK    7  A    between atoms: C_30  and  C_35
REMARK                            x       y       z     vdW  Elec       q    Type
REMARK                         _______ _______ _______ _____ _____    ______ ____
ROOT
ATOM      1  N   UNL     1      -1.720  -6.638  -0.925  0.00  0.00    -0.192 N 
ATOM      2  C   UNL     1      -1.251  -7.075   0.263  0.00  0.00    +0.248 C 
ATOM      3  O   UNL     1      -1.611  -6.724   1.366  0.00  0.00    -0.273 OA
ATOM      4  C   UNL     1      -0.185  -8.096  -0.069  0.00  0.00    +0.169 C 
ATOM      5  C   UNL     1       1.163  -7.657   0.528  0.00  0.00    +0.065 C 
ATOM      6  C   UNL     1       2.236  -8.319  -0.304  0.00  0.00    -0.034 C 
ATOM      7  C   UNL     1       3.556  -8.165  -0.297  0.00  0.00    -0.001 A 
ATOM      8  C   UNL     1       4.445  -7.376   0.572  0.00  0.00    +0.010 A 
ATOM      9  C   UNL     1       5.772  -7.436   0.284  0.00  0.00    +0.001 A 
ATOM     10  C   UNL     1       6.297  -8.191  -0.769  0.00  0.00    +0.002 A 
ATOM     11  C   UNL     1       5.554  -8.950  -1.614  0.00  0.00    +0.026 A 
ATOM     12  C   UNL     1       4.144  -8.974  -1.407  0.00  0.00    +0.043 A 
ATOM     13  N   UNL     1       3.212  -9.618  -2.043  0.00  0.00    -0.375 N 
ATOM     14  C   UNL     1       1.930  -9.344  -1.389  0.00  0.00    +0.131 C 
ATOM     15  C   UNL     1       0.933  -8.693  -2.356  0.00  0.00    +0.135 C 
ATOM     16  N   UNL     1      -0.099  -8.029  -1.543  0.00  0.00    -0.264 N 
ATOM     17  C   UNL     1      -1.079  -7.213  -1.952  0.00  0.00    +0.317 C 
ATOM     18  O   UNL     1      -1.354  -7.015  -3.119  0.00  0.00    -0.252 OA
ATOM     19  H   UNL     1       3.342 -10.185  -2.819  0.00  0.00    +0.160 HD
ENDROOT
BRANCH  15  20
ATOM     20  C   UNL     1       0.283  -9.750  -3.211  0.00  0.00    -0.025 A 
ATOM     21  C   UNL     1      -0.764 -10.498  -2.706  0.00  0.00    +0.008 A 
ATOM     22  C   UNL     1      -1.361 -11.468  -3.490  0.00  0.00    +0.038 A 
ATOM     23  C   UNL     1      -0.911 -11.689  -4.780  0.00  0.00    +0.123 A 
ATOM     24  C   UNL     1       0.138 -10.938  -5.284  0.00  0.00    +0.038 A 
ATOM     25  C   UNL     1       0.730  -9.966  -4.501  0.00  0.00    +0.008 A 
ATOM     26  F   UNL     1      -1.494 -12.636  -5.547  0.00  0.00    -0.205 F 
ENDBRANCH  15  20
BRANCH   1  32
ATOM     27  C   UNL     1      -2.454  -4.335  -1.133  0.00  0.00    +0.059 A 
ATOM     28  C   UNL     1      -3.492  -3.412  -1.280  0.00  0.00    +0.015 A 
ATOM     29  C   UNL     1      -4.796  -3.851  -1.353  0.00  0.00    +0.001 A 
ATOM     30  C   UNL     1      -5.085  -5.204  -1.281  0.00  0.00    +0.002 A 
ATOM     31  C   UNL     1      -4.069  -6.127  -1.135  0.00  0.00    +0.025 A 
ATOM     32  C   UNL     1      -2.749  -5.705  -1.066  0.00  0.00    +0.058 A 
BRANCH  27  34
ATOM     33  N   UNL     1      -0.776  -2.556  -1.119  0.00  0.00    -0.309 N 
ATOM     34  C   UNL     1      -1.055  -3.873  -1.054  0.00  0.00    +0.246 C 
ATOM     35  O   UNL     1      -0.154  -4.680  -0.932  0.00  0.00    -0.270 OA
ATOM     36  H   UNL     1      -1.495  -1.912  -1.217  0.00  0.00    +0.149 HD
BRANCH  33  37
ATOM     37  C   UNL     1       0.613  -2.097  -1.041  0.00  0.00    +0.132 C 
BRANCH  37  38
ATOM     38  C   UNL     1       0.652  -0.570  -1.138  0.00  0.00    +0.178 C 
BRANCH  38  40
ATOM     39  C   UNL     1      -0.017   1.425   0.010  0.00  0.00    +0.194 C 
ATOM     40  O   UNL     1       0.002  -0.004   0.002  0.00  0.00    -0.381 OA
ENDBRANCH  38  40
ENDBRANCH  37  38
ENDBRANCH  33  37
ENDBRANCH  27  34
ENDBRANCH   1  32
TORSDOF 6
