REMARK  Name = ZINC09056579
REMARK  6 active torsions:
REMARK  status: ('A' for Active; 'I' for Inactive)
REMARK    1  A    between atoms: C_1  and  C_2
REMARK    2  A    between atoms: C_2  and  C_3
REMARK    3  A    between atoms: C_6  and  C_9
REMARK    4  A    between atoms: C_15  and  C_17
REMARK    5  A    between atoms: C_17  and  N_18
REMARK    6  A    between atoms: C_26  and  C_28
REMARK                            x       y       z     vdW  Elec       q    Type
REMARK                         _______ _______ _______ _____ _____    ______ ____
ROOT
ATOM      1  C   UNL     1       6.016   0.456  -4.772  0.00  0.00    +0.080 A 
ATOM      2  C   UNL     1       5.024   0.776  -5.656  0.00  0.00    +0.076 A 
ATOM      3  S   UNL     1       3.700   1.198  -4.530  0.00  0.00    -0.060 S 
ATOM      4  C   UNL     1       4.598   0.907  -3.012  0.00  0.00    +0.165 A 
ATOM      5  N   UNL     1       5.778   0.535  -3.471  0.00  0.00    -0.225 NA
ATOM      6  N   UNL     1       4.168   1.042  -1.697  0.00  0.00    -0.263 N 
ATOM      7  C   UNL     1       2.909   1.446  -1.438  0.00  0.00    +0.237 C 
ATOM      8  O   UNL     1       2.150   1.691  -2.351  0.00  0.00    -0.274 OA
ATOM      9  H   UNL     1       4.775   0.847  -0.966  0.00  0.00    +0.157 HD
ENDROOT
BRANCH   1  13
ATOM     10  C   UNL     1       9.836  -0.767  -6.183  0.00  0.00    -0.048 A 
ATOM     11  C   UNL     1       9.595  -0.692  -4.823  0.00  0.00    +0.004 A 
ATOM     12  C   UNL     1       8.357  -0.296  -4.359  0.00  0.00    +0.010 A 
ATOM     13  C   UNL     1       7.348   0.029  -5.264  0.00  0.00    +0.001 A 
ATOM     14  C   UNL     1       7.595  -0.053  -6.633  0.00  0.00    +0.010 A 
ATOM     15  C   UNL     1       8.838  -0.445  -7.086  0.00  0.00    +0.004 A 
BRANCH  10  17
ATOM     16  C   UNL     1      11.206  -2.721  -6.855  0.00  0.00    +0.009 C 
ATOM     17  C   UNL     1      11.189  -1.201  -6.683  0.00  0.00    +0.032 C 
ENDBRANCH  10  17
ENDBRANCH   1  13
BRANCH   7  18
ATOM     18  C   UNL     1       2.443   1.592  -0.012  0.00  0.00    +0.214 C 
BRANCH  18  19
ATOM     19  N   UNL     1       1.048   2.039   0.003  0.00  0.00    -0.215 N 
ATOM     20  C   UNL     1      -0.014   1.208   0.009  0.00  0.00    +0.247 C 
ATOM     21  O   UNL     1       0.002  -0.004   0.002  0.00  0.00    -0.273 OA
ATOM     22  C   UNL     1      -1.230   2.107   0.018  0.00  0.00    +0.115 C 
ATOM     23  C   UNL     1      -2.058   1.866   1.276  0.00  0.00    +0.035 C 
ATOM     24  C   UNL     1      -3.268   2.804   1.280  0.00  0.00    +0.003 C 
ATOM     25  C   UNL     1      -4.116   2.547   0.033  0.00  0.00    +0.000 C 
ATOM     26  C   UNL     1      -3.279   2.817  -1.219  0.00  0.00    +0.006 C 
ATOM     27  C   UNL     1      -2.069   1.879  -1.234  0.00  0.00    +0.018 C 
ATOM     28  C   UNL     1      -1.220   2.162  -2.475  0.00  0.00    +0.010 C 
ATOM     29  N   UNL     1      -0.670   3.464   0.026  0.00  0.00    -0.285 N 
ATOM     30  C   UNL     1       0.670   3.323   0.013  0.00  0.00    +0.310 C 
ATOM     31  O   UNL     1       1.448   4.257   0.010  0.00  0.00    -0.252 OA
ATOM     32  H   UNL     1      -1.166   4.297   0.034  0.00  0.00    +0.151 HD
ENDBRANCH  18  19
ENDBRANCH   7  18
TORSDOF 4
