REMARK  Name = ZINC03296321
REMARK  8 active torsions:
REMARK  status: ('A' for Active; 'I' for Inactive)
REMARK    1  A    between atoms: C_1  and  C_2
REMARK    2  A    between atoms: C_2  and  O_3
REMARK    3  A    between atoms: O_3  and  C_4
REMARK    4  A    between atoms: C_4  and  C_6
REMARK    5  A    between atoms: C_7  and  C_20
REMARK    6  A    between atoms: C_10  and  N_11
REMARK    7  A    between atoms: C_12  and  C_14
REMARK    8  A    between atoms: C_14  and  N_50
REMARK                            x       y       z     vdW  Elec       q    Type
REMARK                         _______ _______ _______ _____ _____    ______ ____
ROOT
ATOM      1  C   UNL     1      -1.248  -2.095   0.003  0.00  0.00    +0.095 A 
ATOM      2  C   UNL     1      -1.290  -2.848  -1.236  0.00  0.00    +0.005 A 
ATOM      3  C   UNL     1      -1.340  -4.200  -1.127  0.00  0.00    +0.056 A 
ATOM      4  S   UNL     1      -1.333  -4.469   0.633  0.00  0.00    -0.080 S 
ATOM      5  C   UNL     1      -1.259  -2.829   1.181  0.00  0.00    +0.086 A 
ENDROOT
BRANCH   2   6
ATOM      6  C   UNL     1      -1.277  -2.175  -2.557  0.00  0.00    -0.016 A 
ATOM      7  C   UNL     1      -2.169  -1.136  -2.821  0.00  0.00    +0.009 A 
ATOM      8  C   UNL     1      -2.149  -0.509  -4.050  0.00  0.00    +0.016 A 
ATOM      9  C   UNL     1      -1.254  -0.917  -5.024  0.00  0.00    +0.018 A 
ATOM     10  C   UNL     1      -0.371  -1.952  -4.769  0.00  0.00    +0.016 A 
ATOM     11  C   UNL     1      -0.378  -2.583  -3.541  0.00  0.00    +0.009 A 
ATOM     12 BR   UNL     1      -1.239  -0.059  -6.708  0.00  0.00    -0.050 Br
ENDBRANCH   2   6
BRANCH   5  13
ATOM     13  N   UNL     1      -1.222  -2.360   2.485  0.00  0.00    -0.281 N 
ATOM     14  C   UNL     1      -1.241  -3.230   3.514  0.00  0.00    +0.201 C 
ATOM     15  O   UNL     1      -1.290  -4.423   3.300  0.00  0.00    -0.278 OA
ATOM     16  H   UNL     1      -1.183  -1.406   2.656  0.00  0.00    +0.155 HD
BRANCH  14  17
ATOM     17  C   UNL     1      -1.201  -2.720   4.932  0.00  0.00    +0.019 C 
BRANCH  17  23
ATOM     18  C   UNL     1      -2.511  -4.572   5.778  0.00  0.00    -0.078 C 
ATOM     19  C   UNL     1      -2.453  -5.829   6.649  0.00  0.00    -0.019 C 
ATOM     20  C   UNL     1      -2.165  -5.427   8.098  0.00  0.00    -0.004 C 
ATOM     21  C   UNL     1      -0.851  -4.642   8.151  0.00  0.00    -0.019 C 
ATOM     22  C   UNL     1      -0.956  -3.420   7.237  0.00  0.00    -0.078 C 
ATOM     23  N   UNL     1      -1.209  -3.876   5.853  0.00  0.00    +0.385 N 
ATOM     24  H   UNL     1      -0.466  -4.528   5.576  0.00  0.00    -0.081 HD
ENDBRANCH  17  23
ENDBRANCH  14  17
ENDBRANCH   5  13
BRANCH   1  25
ATOM     25  C   UNL     1      -1.191  -0.633   0.010  0.00  0.00    +0.342 C 
ATOM     26  O   UNL     1      -2.220   0.016   0.023  0.00  0.00    -0.245 OA
BRANCH  25  27
ATOM     27  O   UNL     1       0.002  -0.004   0.002  0.00  0.00    -0.461 OA
BRANCH  27  29
ATOM     28  C   UNL     1       1.418   1.977  -0.001  0.00  0.00    +0.048 C 
ATOM     29  C   UNL     1      -0.018   1.448   0.010  0.00  0.00    +0.229 C 
ENDBRANCH  27  29
ENDBRANCH  25  27
ENDBRANCH   1  25
TORSDOF 7
