REMARK  Name = ZINC17026625
REMARK  8 active torsions:
REMARK  status: ('A' for Active; 'I' for Inactive)
REMARK    1  A    between atoms: C_1  and  C_2
REMARK    2  A    between atoms: C_5  and  C_33
REMARK    3  A    between atoms: C_6  and  N_8
REMARK    4  A    between atoms: C_9  and  C_22
REMARK    5  A    between atoms: C_12  and  S_13
REMARK    6  A    between atoms: S_13  and  C_14
REMARK    7  A    between atoms: C_14  and  C_15
REMARK    8  A    between atoms: C_22  and  C_23
REMARK                            x       y       z     vdW  Elec       q    Type
REMARK                         _______ _______ _______ _____ _____    ______ ____
ROOT
ATOM      1  N   UNL     1       5.997   6.629  -0.076  0.00  0.00    -0.274 N 
ATOM      2  C   UNL     1       7.300   6.207  -0.075  0.00  0.00    +0.144 A 
ATOM      3  N   UNL     1       7.286   4.904  -0.058  0.00  0.00    -0.133 NA
ATOM      4  N   UNL     1       6.074   4.475  -0.043  0.00  0.00    -0.122 NA
ATOM      5  C   UNL     1       5.240   5.489  -0.059  0.00  0.00    +0.197 A 
ENDROOT
BRANCH   1  11
ATOM      6  C   UNL     1       4.609  10.659   2.379  0.00  0.00    +0.044 C 
ATOM      7  C   UNL     1       4.854   9.929   1.084  0.00  0.00    -0.048 A 
ATOM      8  C   UNL     1       4.622  10.564  -0.122  0.00  0.00    +0.004 A 
ATOM      9  C   UNL     1       4.845   9.898  -1.313  0.00  0.00    +0.005 A 
ATOM     10  C   UNL     1       5.301   8.593  -1.300  0.00  0.00    -0.026 A 
ATOM     11  C   UNL     1       5.534   7.953  -0.091  0.00  0.00    +0.053 A 
ATOM     12  C   UNL     1       5.304   8.623   1.102  0.00  0.00    +0.030 A 
ATOM     13  C   UNL     1       5.544   7.867  -2.598  0.00  0.00    +0.046 C 
ENDBRANCH   1  11
BRANCH   5  14
ATOM     14  S   UNL     1       3.481   5.399  -0.051  0.00  0.00    -0.076 S 
BRANCH  14  15
ATOM     15  C   UNL     1       3.258   3.603  -0.028  0.00  0.00    +0.173 C 
BRANCH  15  16
ATOM     16  C   UNL     1       1.786   3.279  -0.018  0.00  0.00    +0.226 C 
ATOM     17  O   UNL     1       0.968   4.175  -0.026  0.00  0.00    -0.275 OA
ATOM     18  N   UNL     1       1.379   1.995  -0.000  0.00  0.00    -0.301 N 
ATOM     19  C   UNL     1      -0.019   1.539   0.011  0.00  0.00    +0.108 C 
ATOM     20  C   UNL     1       0.002  -0.004   0.002  0.00  0.00    +0.020 C 
ATOM     21  C   UNL     1       1.401  -0.329  -0.584  0.00  0.00    +0.020 C 
ATOM     22  C   UNL     1       2.261   0.814   0.011  0.00  0.00    +0.108 C 
ENDBRANCH  15  16
ENDBRANCH  14  15
ENDBRANCH   5  14
BRANCH   2  23
ATOM     23  C   UNL     1       8.524   7.087  -0.091  0.00  0.00    +0.130 C 
BRANCH  23  24
ATOM     24  C   UNL     1       8.936   7.399   1.324  0.00  0.00    +0.033 A 
ATOM     25  C   UNL     1       9.879   6.651   1.937  0.00  0.00    +0.091 A 
ATOM     26  C   UNL     1      10.250   6.964   3.267  0.00  0.00    +0.254 A 
ATOM     27  O   UNL     1      11.098   6.304   3.840  0.00  0.00    -0.268 OA
ATOM     28  N   UNL     1       9.656   8.000   3.893  0.00  0.00    -0.275 N 
ATOM     29  H   UNL     1       9.913   8.227   4.832  0.00  0.00    +0.173 HD
ATOM     30  C   UNL     1       8.719   8.729   3.259  0.00  0.00    +0.327 A 
ATOM     31  O   UNL     1       8.192   9.660   3.836  0.00  0.00    -0.247 OA
ATOM     32  N   UNL     1       8.362   8.446   1.993  0.00  0.00    -0.311 N 
ATOM     33  H   UNL     1       7.670   9.005   1.537  0.00  0.00    +0.170 HD
ENDBRANCH  23  24
ENDBRANCH   2  23
TORSDOF 6
