REMARK  Name = ZINC09360971
REMARK  9 active torsions:
REMARK  status: ('A' for Active; 'I' for Inactive)
REMARK    1  A    between atoms: C_1  and  C_2
REMARK    2  A    between atoms: C_2  and  C_3
REMARK    3  A    between atoms: C_3  and  C_4
REMARK    4  A    between atoms: C_4  and  O_5
REMARK    5  A    between atoms: O_5  and  C_6
REMARK    6  A    between atoms: C_6  and  C_8
REMARK    7  A    between atoms: C_11  and  N_14
REMARK    8  A    between atoms: C_29  and  C_35
REMARK    9  A    between atoms: C_35  and  C_37
REMARK                            x       y       z     vdW  Elec       q    Type
REMARK                         _______ _______ _______ _____ _____    ______ ____
ROOT
ATOM      1  N   UNL     1       3.081   6.886   2.062  0.00  0.00    -0.210 N 
ATOM      2  C   UNL     1       2.073   6.287   1.341  0.00  0.00    +0.232 C 
ATOM      3  O   UNL     1       0.967   6.724   1.106  0.00  0.00    -0.274 OA
ATOM      4  C   UNL     1       2.635   5.006   0.920  0.00  0.00    +0.113 C 
ATOM      5  C   UNL     1       2.457   3.907  -0.004  0.00  0.00    +0.100 C 
ATOM      6  C   UNL     1       1.153   3.196   0.006  0.00  0.00    -0.021 A 
ATOM      7  C   UNL     1      -0.055   3.853   0.021  0.00  0.00    +0.006 A 
ATOM      8  C   UNL     1      -1.238   3.135   0.030  0.00  0.00    +0.000 A 
ATOM      9  C   UNL     1      -1.216   1.751   0.017  0.00  0.00    +0.001 A 
ATOM     10  C   UNL     1      -0.013   1.076   0.008  0.00  0.00    +0.008 A 
ATOM     11  C   UNL     1       1.184   1.790   0.000  0.00  0.00    -0.019 A 
ATOM     12  C   UNL     1       2.483   1.098  -0.024  0.00  0.00    +0.022 C 
ATOM     13  C   UNL     1       3.643   1.751   0.097  0.00  0.00    +0.054 C 
ATOM     14  C   UNL     1       4.787   4.089   0.489  0.00  0.00    +0.144 C 
ATOM     15  C   UNL     1       4.126   5.446   0.633  0.00  0.00    +0.116 C 
ATOM     16  C   UNL     1       4.301   6.305   1.842  0.00  0.00    +0.232 C 
ATOM     17  O   UNL     1       5.312   6.457   2.492  0.00  0.00    -0.274 OA
ATOM     18  N   UNL     1       3.695   3.248  -0.166  0.00  0.00    -0.384 NA
ATOM     19  H   UNL     1       3.896   3.306  -1.171  0.00  0.00    +0.127 HD
ENDROOT
BRANCH   1  23
ATOM     20  C   UNL     1       2.485  10.110   4.636  0.00  0.00    +0.059 A 
ATOM     21  C   UNL     1       3.765   9.576   4.468  0.00  0.00    +0.017 A 
ATOM     22  C   UNL     1       3.958   8.511   3.617  0.00  0.00    +0.025 A 
ATOM     23  C   UNL     1       2.881   7.967   2.926  0.00  0.00    +0.044 A 
ATOM     24  C   UNL     1       1.606   8.499   3.087  0.00  0.00    +0.025 A 
ATOM     25  C   UNL     1       1.404   9.561   3.940  0.00  0.00    +0.017 A 
BRANCH  20  26
ATOM     26  C   UNL     1       2.273  11.251   5.548  0.00  0.00    +0.339 C 
ATOM     27  O   UNL     1       3.213  11.727   6.153  0.00  0.00    -0.245 OA
BRANCH  26  28
ATOM     28  O   UNL     1       1.038  11.765   5.709  0.00  0.00    -0.461 OA
BRANCH  28  29
ATOM     29  C   UNL     1       0.905  12.886   6.622  0.00  0.00    +0.232 C 
BRANCH  29  30
ATOM     30  C   UNL     1      -0.559  13.330   6.674  0.00  0.00    +0.041 C 
BRANCH  30  32
ATOM     31  C   UNL     1      -2.163  14.955   7.688  0.00  0.00    +0.004 C 
ATOM     32  C   UNL     1      -0.699  14.512   7.635  0.00  0.00    -0.000 C 
ENDBRANCH  30  32
ENDBRANCH  29  30
ENDBRANCH  28  29
ENDBRANCH  26  28
ENDBRANCH  20  26
ENDBRANCH   1  23
BRANCH  14  33
ATOM     33  C   UNL     1       5.476   3.713   1.775  0.00  0.00    +0.217 C 
ATOM     34  O   UNL     1       4.972   2.893   2.517  0.00  0.00    -0.287 OA
BRANCH  33  35
ATOM     35  C   UNL     1       6.708   4.313   2.119  0.00  0.00    +0.172 A 
ATOM     36  C   UNL     1       7.445   4.063   3.259  0.00  0.00    +0.053 A 
ATOM     37  C   UNL     1       8.585   4.875   3.182  0.00  0.00    +0.042 A 
ATOM     38  C   UNL     1       8.503   5.572   2.026  0.00  0.00    +0.196 A 
ATOM     39  O   UNL     1       7.379   5.229   1.387  0.00  0.00    -0.460 OA
ENDBRANCH  33  35
ENDBRANCH  14  33
TORSDOF 8
