REMARK  Name = ZINC01946497
REMARK  13 active torsions:
REMARK  status: ('A' for Active; 'I' for Inactive)
REMARK    1  A    between atoms: C_1  and  C_2
REMARK    2  A    between atoms: C_2  and  C_3
REMARK    3  A    between atoms: C_2  and  C_4
REMARK    4  A    between atoms: C_4  and  N_60
REMARK    5  A    between atoms: C_5  and  C_6
REMARK    6  A    between atoms: C_5  and  N_60
REMARK    7  A    between atoms: C_7  and  O_28
REMARK    8  A    between atoms: C_13  and  C_24
REMARK    9  A    between atoms: C_14  and  C_17
REMARK   10  A    between atoms: C_29  and  C_30
REMARK   11  A    between atoms: C_29  and  N_60
REMARK   12  A    between atoms: C_30  and  C_31
REMARK   13  A    between atoms: C_30  and  C_32
REMARK                            x       y       z     vdW  Elec       q    Type
REMARK                         _______ _______ _______ _____ _____    ______ ____
ROOT
ATOM      1  C   UNL     1      -0.818   1.560   0.207  0.00  0.00    +0.020 A 
ATOM      2  C   UNL     1       0.165   2.523   0.355  0.00  0.00    +0.122 A 
ATOM      3  C   UNL     1       0.071   3.741  -0.315  0.00  0.00    +0.046 A 
ATOM      4  C   UNL     1      -0.995   4.000  -1.129  0.00  0.00    +0.019 A 
ATOM      5  C   UNL     1      -1.993   3.039  -1.288  0.00  0.00    +0.065 A 
ATOM      6  C   UNL     1      -1.905   1.804  -0.621  0.00  0.00    +0.144 A 
ATOM      7  O   UNL     1      -2.874   0.879  -0.772  0.00  0.00    -0.450 OA
ATOM      8  C   UNL     1      -3.945   1.059  -1.550  0.00  0.00    +0.219 A 
ATOM      9  C   UNL     1      -4.152   2.201  -2.255  0.00  0.00    +0.076 A 
ATOM     10  C   UNL     1      -3.158   3.283  -2.159  0.00  0.00    +0.201 A 
ATOM     11  O   UNL     1      -3.291   4.330  -2.768  0.00  0.00    -0.286 OA
ENDROOT
BRANCH   9  12
ATOM     12  C   UNL     1      -5.357   2.356  -3.107  0.00  0.00    -0.011 A 
ATOM     13  C   UNL     1      -5.514   1.567  -4.245  0.00  0.00    +0.010 A 
ATOM     14  C   UNL     1      -6.640   1.710  -5.031  0.00  0.00    +0.020 A 
ATOM     15  C   UNL     1      -7.606   2.644  -4.696  0.00  0.00    +0.041 A 
ATOM     16  C   UNL     1      -7.451   3.433  -3.570  0.00  0.00    +0.020 A 
ATOM     17  C   UNL     1      -6.332   3.294  -2.775  0.00  0.00    +0.010 A 
ATOM     18 CL   UNL     1      -9.016   2.824  -5.693  0.00  0.00    -0.084 Cl
ENDBRANCH   9  12
BRANCH   8  19
ATOM     19  C   UNL     1      -4.962  -0.048  -1.649  0.00  0.00    +0.451 C 
ATOM     20  F   UNL     1      -4.850  -0.675  -2.894  0.00  0.00    -0.163 F 
ATOM     21  F   UNL     1      -4.734  -0.983  -0.633  0.00  0.00    -0.163 F 
ATOM     22  F   UNL     1      -6.248   0.487  -1.510  0.00  0.00    -0.163 F 
ENDBRANCH   8  19
BRANCH   2  23
ATOM     23  O   UNL     1       1.230   2.279   1.161  0.00  0.00    -0.506 OA
ATOM     24  H   UNL     1       1.978   1.866   0.710  0.00  0.00    +0.292 HD
ENDBRANCH   2  23
BRANCH   1  25
ATOM     25  C   UNL     1      -0.705   0.246   0.937  0.00  0.00    -0.036 C 
BRANCH  25  26
ATOM     26  N   UNL     1      -0.898   0.490   2.382  0.00  0.00    +0.383 N 
ATOM     27  H   UNL     1      -0.409   1.354   2.642  0.00  0.00    -0.081 HD
BRANCH  26  28
ATOM     28  C   UNL     1      -2.337   0.643   2.680  0.00  0.00    -0.075 C 
BRANCH  28  30
ATOM     29  C   UNL     1      -4.252   2.246   2.614  0.00  0.00    +0.005 C 
ATOM     30  C   UNL     1      -2.755   2.077   2.349  0.00  0.00    -0.034 C 
ATOM     31  C   UNL     1      -1.968   3.053   3.227  0.00  0.00    +0.005 C 
ENDBRANCH  28  30
ENDBRANCH  26  28
BRANCH  26  32
ATOM     32  C   UNL     1      -0.337  -0.633   3.163  0.00  0.00    -0.075 C 
BRANCH  32  33
ATOM     33  C   UNL     1      -0.203  -0.197   4.623  0.00  0.00    -0.034 C 
ATOM     34  C   UNL     1       0.285  -1.378   5.465  0.00  0.00    +0.005 C 
ATOM     35  C   UNL     1       0.802   0.951   4.723  0.00  0.00    +0.005 C 
ENDBRANCH  32  33
ENDBRANCH  26  32
ENDBRANCH  25  26
ENDBRANCH   1  25
TORSDOF 9
