REMARK  Name = ZINC32261956
REMARK  3 active torsions:
REMARK  status: ('A' for Active; 'I' for Inactive)
REMARK    1  A    between atoms: C_3  and  C_9
REMARK    2  A    between atoms: N_11  and  N_12
REMARK    3  A    between atoms: C_13  and  C_15
REMARK                            x       y       z     vdW  Elec       q    Type
REMARK                         _______ _______ _______ _____ _____    ______ ____
ROOT
ATOM      1  C   UNL     1      -6.440   3.187   2.199  0.00  0.00    +0.261 C 
ATOM      2  O   UNL     1      -6.967   2.467   1.374  0.00  0.00    -0.269 OA
ATOM      3  N   UNL     1      -5.100   3.177   2.344  0.00  0.00    -0.230 N 
ATOM      4  H   UNL     1      -4.623   3.828   3.091  0.00  0.00    +0.173 HD
ENDROOT
BRANCH   1   7
ATOM      5  C   UNL     1      -7.443   5.726   4.777  0.00  0.00    +0.021 A 
ATOM      6  C   UNL     1      -6.665   4.896   3.997  0.00  0.00    +0.015 A 
ATOM      7  C   UNL     1      -7.268   4.073   3.044  0.00  0.00    +0.051 A 
ATOM      8  C   UNL     1      -8.657   4.085   2.896  0.00  0.00    +0.027 A 
ATOM      9  C   UNL     1      -9.424   4.915   3.687  0.00  0.00    +0.035 A 
ATOM     10  C   UNL     1      -8.820   5.734   4.627  0.00  0.00    +0.042 A 
ATOM     11 CL   UNL     1      -9.792   6.775   5.619  0.00  0.00    -0.084 Cl
ATOM     12  I   UNL     1      -9.573   2.847   1.476  0.00  0.00    -0.043 I 
ENDBRANCH   1   7
BRANCH   3  13
ATOM     13  N   UNL     1      -4.315   2.337   1.544  0.00  0.00    -0.232 N 
ATOM     14  C   UNL     1      -2.975   2.327   1.689  0.00  0.00    +0.258 C 
ATOM     15  O   UNL     1      -2.449   3.045   2.512  0.00  0.00    -0.271 OA
ATOM     16  H   UNL     1      -4.792   1.685   0.797  0.00  0.00    +0.173 HD
BRANCH  14  17
ATOM     17  C   UNL     1      -2.131   1.423   0.827  0.00  0.00    +0.205 C 
ATOM     18  C   UNL     1      -2.230   1.847  -0.655  0.00  0.00    +0.043 C 
ATOM     19  C   UNL     1      -0.804   1.620  -1.206  0.00  0.00    +0.031 C 
ATOM     20  C   UNL     1      -0.013   1.086   0.008  0.00  0.00    +0.161 C 
ATOM     21  O   UNL     1      -0.731   1.573   1.163  0.00  0.00    -0.367 OA
ENDBRANCH  14  17
ENDBRANCH   3  13
TORSDOF 3
