REMARK  Name = ZINC63372937
REMARK  12 active torsions:
REMARK  status: ('A' for Active; 'I' for Inactive)
REMARK    1  A    between atoms: C_1  and  C_2
REMARK    2  A    between atoms: C_2  and  C_3
REMARK    3  A    between atoms: C_3  and  C_5
REMARK    4  A    between atoms: C_3  and  N_6
REMARK    5  A    between atoms: C_12  and  C_28
REMARK    6  A    between atoms: C_24  and  C_27
REMARK    7  A    between atoms: C_31  and  O_36
REMARK    8  A    between atoms: C_32  and  O_34
REMARK    9  A    between atoms: O_34  and  C_35
REMARK   10  A    between atoms: O_36  and  C_37
REMARK   11  A    between atoms: C_37  and  C_38
REMARK   12  A    between atoms: C_37  and  C_39
REMARK                            x       y       z     vdW  Elec       q    Type
REMARK                         _______ _______ _______ _____ _____    ______ ____
ROOT
ATOM      1  N   UNL     1       0.639   0.991  -2.302  0.00  0.00    -0.288 N 
ATOM      2  C   UNL     1      -0.612   0.275  -2.491  0.00  0.00    +0.204 C 
ATOM      3  C   UNL     1      -1.287   0.648  -3.769  0.00  0.00    +0.234 C 
ATOM      4  O   UNL     1      -2.341   0.105  -4.027  0.00  0.00    -0.274 OA
ATOM      5  N   UNL     1      -0.816   1.537  -4.651  0.00  0.00    -0.283 N 
ATOM      6  C   UNL     1      -1.589   1.764  -5.887  0.00  0.00    +0.121 C 
ATOM      7  C   UNL     1      -1.983   3.249  -5.975  0.00  0.00    +0.065 C 
ATOM      8  C   UNL     1      -0.743   4.046  -5.656  0.00  0.00    -0.027 C 
ATOM      9  C   UNL     1      -0.141   5.036  -6.302  0.00  0.00    -0.000 A 
ATOM     10  C   UNL     1      -0.521   5.797  -7.503  0.00  0.00    +0.010 A 
ATOM     11  C   UNL     1       0.359   6.748  -7.914  0.00  0.00    +0.001 A 
ATOM     12  C   UNL     1       1.565   7.016  -7.258  0.00  0.00    +0.002 A 
ATOM     13  C   UNL     1       1.990   6.371  -6.142  0.00  0.00    +0.026 A 
ATOM     14  C   UNL     1       1.145   5.355  -5.609  0.00  0.00    +0.043 A 
ATOM     15  N   UNL     1       1.290   4.608  -4.554  0.00  0.00    -0.375 N 
ATOM     16  C   UNL     1       0.095   3.775  -4.412  0.00  0.00    +0.139 C 
ATOM     17  C   UNL     1       0.427   2.279  -4.432  0.00  0.00    +0.135 C 
ATOM     18  C   UNL     1       1.108   1.892  -3.162  0.00  0.00    +0.242 C 
ATOM     19  O   UNL     1       2.162   2.432  -2.898  0.00  0.00    -0.273 OA
ATOM     20  C   UNL     1       1.380   2.000  -5.596  0.00  0.00    +0.044 C 
ATOM     21  H   UNL     1       2.059   4.603  -3.963  0.00  0.00    +0.160 HD
ENDROOT
BRANCH   7  22
ATOM     22  C   UNL     1      -3.067   3.555  -4.974  0.00  0.00    -0.035 A 
ATOM     23  C   UNL     1      -2.834   3.363  -3.625  0.00  0.00    +0.008 A 
ATOM     24  C   UNL     1      -3.826   3.642  -2.703  0.00  0.00    +0.050 A 
ATOM     25  C   UNL     1      -5.056   4.116  -3.130  0.00  0.00    +0.162 A 
ATOM     26  C   UNL     1      -5.290   4.310  -4.488  0.00  0.00    +0.162 A 
ATOM     27  C   UNL     1      -4.290   4.033  -5.407  0.00  0.00    +0.053 A 
BRANCH  26  28
ATOM     28  O   UNL     1      -6.495   4.775  -4.912  0.00  0.00    -0.491 OA
ATOM     29  C   UNL     1      -6.665   4.950  -6.320  0.00  0.00    +0.277 C 
ENDBRANCH  26  28
BRANCH  25  30
ATOM     30  O   UNL     1      -6.032   4.391  -2.224  0.00  0.00    -0.486 OA
BRANCH  30  31
ATOM     31  C   UNL     1      -5.765   4.056  -0.861  0.00  0.00    +0.167 C 
ATOM     32  C   UNL     1      -4.991   5.198  -0.198  0.00  0.00    +0.051 C 
ATOM     33  C   UNL     1      -7.086   3.839  -0.121  0.00  0.00    +0.051 C 
ENDBRANCH  30  31
ENDBRANCH  25  30
ENDBRANCH   7  22
BRANCH   1  34
ATOM     34  C   UNL     1       1.423   0.709  -1.097  0.00  0.00    +0.073 C 
ATOM     35  C   UNL     1       1.813  -0.770  -1.077  0.00  0.00    +0.028 C 
BRANCH  34  37
ATOM     36  C   UNL     1       0.300   2.535   0.188  0.00  0.00    +0.005 C 
ATOM     37  C   UNL     1       0.586   1.032   0.143  0.00  0.00    +0.019 C 
ENDBRANCH  34  37
ENDBRANCH   1  34
TORSDOF 6
