REMARK  Name = ZINC06195426
REMARK  14 active torsions:
REMARK  status: ('A' for Active; 'I' for Inactive)
REMARK    1  A    between atoms: C_1  and  C_2
REMARK    2  A    between atoms: C_2  and  O_3
REMARK    3  A    between atoms: O_3  and  C_4
REMARK    4  A    between atoms: C_4  and  C_5
REMARK    5  A    between atoms: C_5  and  O_6
REMARK    6  A    between atoms: O_6  and  C_7
REMARK    7  A    between atoms: C_7  and  C_9
REMARK    8  A    between atoms: C_10  and  C_39
REMARK    9  A    between atoms: C_14  and  C_16
REMARK   10  A    between atoms: C_26  and  C_29
REMARK   11  A    between atoms: C_32  and  O_37
REMARK   12  A    between atoms: C_33  and  O_35
REMARK   13  A    between atoms: O_35  and  C_36
REMARK   14  A    between atoms: O_37  and  C_38
REMARK                            x       y       z     vdW  Elec       q    Type
REMARK                         _______ _______ _______ _____ _____    ______ ____
ROOT
ATOM      1  C   UNL     1      -9.421  -4.436   1.418  0.00  0.00    +0.154 C 
ATOM      2  C   UNL     1      -8.725  -4.119   2.522  0.00  0.00    +0.031 C 
ATOM      3  N   UNL     1      -7.714  -3.201   2.465  0.00  0.00    -0.260 NA
ATOM      4  C   UNL     1      -7.127  -2.883   1.269  0.00  0.00    +0.049 C 
ATOM      5  C   UNL     1      -7.755  -3.153   0.105  0.00  0.00    +0.025 C 
ATOM      6  C   UNL     1      -9.120  -3.792   0.096  0.00  0.00    +0.073 C 
ATOM      7  C   UNL     1      -7.156  -2.847  -1.130  0.00  0.00    +0.162 C 
ATOM      8  O   UNL     1      -7.751  -3.096  -2.159  0.00  0.00    -0.292 OA
ATOM      9  C   UNL     1      -5.791  -2.217  -1.200  0.00  0.00    +0.088 C 
ATOM     10  C   UNL     1      -4.986  -2.633   0.036  0.00  0.00    +0.032 C 
ATOM     11  C   UNL     1      -5.769  -2.226   1.288  0.00  0.00    +0.064 C 
ATOM     12  C   UNL     1      -9.060  -4.781   3.834  0.00  0.00    +0.061 C 
ENDROOT
BRANCH   6  13
ATOM     13  C   UNL     1     -10.158  -2.737  -0.189  0.00  0.00    -0.038 A 
ATOM     14  C   UNL     1     -10.300  -1.659   0.665  0.00  0.00    +0.007 A 
ATOM     15  C   UNL     1     -11.248  -0.688   0.401  0.00  0.00    +0.038 A 
ATOM     16  C   UNL     1     -12.064  -0.802  -0.711  0.00  0.00    +0.123 A 
ATOM     17  C   UNL     1     -11.925  -1.885  -1.562  0.00  0.00    +0.038 A 
ATOM     18  C   UNL     1     -10.973  -2.852  -1.300  0.00  0.00    +0.007 A 
ATOM     19  F   UNL     1     -12.995   0.143  -0.966  0.00  0.00    -0.205 F 
ENDBRANCH   6  13
BRANCH  10  20
ATOM     20  C   UNL     1      -3.649  -1.937   0.027  0.00  0.00    -0.040 A 
ATOM     21  C   UNL     1      -3.591  -0.556   0.032  0.00  0.00    +0.008 A 
ATOM     22  C   UNL     1      -2.367   0.087   0.030  0.00  0.00    +0.049 A 
ATOM     23  C   UNL     1      -1.196  -0.653   0.010  0.00  0.00    +0.161 A 
ATOM     24  C   UNL     1      -1.255  -2.043   0.004  0.00  0.00    +0.162 A 
ATOM     25  C   UNL     1      -2.485  -2.681   0.013  0.00  0.00    +0.053 A 
BRANCH  24  26
ATOM     26  O   UNL     1      -0.108  -2.774  -0.010  0.00  0.00    -0.491 OA
ATOM     27  C   UNL     1      -0.245  -4.196  -0.015  0.00  0.00    +0.277 C 
ENDBRANCH  24  26
BRANCH  23  28
ATOM     28  O   UNL     1       0.009  -0.022   0.002  0.00  0.00    -0.491 OA
ATOM     29  C   UNL     1      -0.007   1.407   0.008  0.00  0.00    +0.277 C 
ENDBRANCH  23  28
ENDBRANCH  10  20
BRANCH   1  30
ATOM     30  C   UNL     1     -10.459  -5.394   1.502  0.00  0.00    +0.317 C 
ATOM     31  O   UNL     1     -10.713  -5.922   2.568  0.00  0.00    -0.250 OA
BRANCH  30  32
ATOM     32  O   UNL     1     -11.166  -5.721   0.401  0.00  0.00    -0.462 OA
BRANCH  32  33
ATOM     33  C   UNL     1     -12.199  -6.696   0.559  0.00  0.00    +0.260 C 
BRANCH  33  34
ATOM     34  C   UNL     1     -12.886  -6.935  -0.787  0.00  0.00    +0.201 C 
BRANCH  34  35
ATOM     35  O   UNL     1     -11.953  -7.517  -1.700  0.00  0.00    -0.377 OA
BRANCH  35  37
ATOM     36  C   UNL     1     -11.416  -8.402  -3.884  0.00  0.00    +0.034 C 
ATOM     37  C   UNL     1     -12.496  -7.783  -2.995  0.00  0.00    +0.156 C 
ENDBRANCH  35  37
ENDBRANCH  34  35
ENDBRANCH  33  34
ENDBRANCH  32  33
ENDBRANCH  30  32
ENDBRANCH   1  30
TORSDOF 10
