REMARK  Name = ZINC22162867
REMARK  9 active torsions:
REMARK  status: ('A' for Active; 'I' for Inactive)
REMARK    1  A    between atoms: C_1  and  C_2
REMARK    2  A    between atoms: C_3  and  C_32
REMARK    3  A    between atoms: N_9  and  C_27
REMARK    4  A    between atoms: C_10  and  S_12
REMARK    5  A    between atoms: S_12  and  C_13
REMARK    6  A    between atoms: C_13  and  C_14
REMARK    7  A    between atoms: N_16  and  C_17
REMARK    8  A    between atoms: C_17  and  C_19
REMARK    9  A    between atoms: C_17  and  C_20
REMARK                            x       y       z     vdW  Elec       q    Type
REMARK                         _______ _______ _______ _____ _____    ______ ____
ROOT
ATOM      1  C   UNL     1       8.509   4.542  -0.603  0.00  0.00    +0.045 C 
ATOM      2  C   UNL     1       7.047   4.829  -0.378  0.00  0.00    -0.026 A 
ATOM      3  C   UNL     1       6.603   6.094  -0.332  0.00  0.00    -0.008 A 
ATOM      4  S   UNL     1       4.852   5.909  -0.053  0.00  0.00    -0.073 S 
ATOM      5  C   UNL     1       4.766   4.137  -0.007  0.00  0.00    +0.117 A 
ATOM      6  C   UNL     1       6.101   3.739  -0.209  0.00  0.00    +0.075 A 
ATOM      7  C   UNL     1       6.335   2.328  -0.220  0.00  0.00    +0.263 A 
ATOM      8  O   UNL     1       7.460   1.889  -0.389  0.00  0.00    -0.267 OA
ATOM      9  N   UNL     1       5.298   1.490  -0.041  0.00  0.00    -0.284 N 
ATOM     10  C   UNL     1       4.031   1.962   0.150  0.00  0.00    +0.173 A 
ATOM     11  N   UNL     1       3.787   3.257   0.159  0.00  0.00    -0.216 NA
ATOM     12  C   UNL     1       7.396   7.367  -0.480  0.00  0.00    +0.052 C 
ENDROOT
BRANCH   9  13
ATOM     13  C   UNL     1       5.531   0.044  -0.050  0.00  0.00    +0.093 C 
ATOM     14  C   UNL     1       6.503  -0.342   1.084  0.00  0.00    +0.025 C 
ATOM     15  C   UNL     1       7.373  -1.469   0.471  0.00  0.00    +0.002 C 
ATOM     16  C   UNL     1       7.565  -0.996  -0.991  0.00  0.00    +0.002 C 
ATOM     17  C   UNL     1       6.206  -0.372  -1.369  0.00  0.00    +0.025 C 
ENDBRANCH   9  13
BRANCH  10  18
ATOM     18  S   UNL     1       2.705   0.825   0.380  0.00  0.00    -0.078 S 
BRANCH  18  19
ATOM     19  C   UNL     1       1.328   1.984   0.576  0.00  0.00    +0.173 C 
BRANCH  19  20
ATOM     20  C   UNL     1       0.051   1.214   0.791  0.00  0.00    +0.224 C 
ATOM     21  O   UNL     1       0.069   0.002   0.811  0.00  0.00    -0.275 OA
ATOM     22  N   UNL     1      -1.113   1.873   0.957  0.00  0.00    -0.308 N 
ATOM     23  H   UNL     1      -1.130   2.973   0.939  0.00  0.00    +0.149 HD
BRANCH  22  24
ATOM     24  C   UNL     1      -2.356   1.124   1.161  0.00  0.00    +0.100 C 
ATOM     25  C   UNL     1      -2.508   0.782   2.644  0.00  0.00    +0.033 C 
BRANCH  24  26
ATOM     26  C   UNL     1      -3.526   1.964   0.716  0.00  0.00    -0.027 A 
ATOM     27  C   UNL     1      -3.552   3.317   0.996  0.00  0.00    +0.008 A 
ATOM     28  C   UNL     1      -4.622   4.089   0.584  0.00  0.00    +0.038 A 
ATOM     29  C   UNL     1      -5.674   3.503  -0.099  0.00  0.00    +0.123 A 
ATOM     30  C   UNL     1      -5.650   2.147  -0.374  0.00  0.00    +0.038 A 
ATOM     31  C   UNL     1      -4.577   1.378   0.034  0.00  0.00    +0.008 A 
ATOM     32  F   UNL     1      -6.724   4.255  -0.496  0.00  0.00    -0.205 F 
ENDBRANCH  24  26
ENDBRANCH  22  24
ENDBRANCH  19  20
ENDBRANCH  18  19
ENDBRANCH  10  18
TORSDOF 6
