REMARK  Name = ZINC26363620
REMARK  15 active torsions:
REMARK  status: ('A' for Active; 'I' for Inactive)
REMARK    1  A    between atoms: C_1  and  C_2
REMARK    2  A    between atoms: C_6  and  C_15
REMARK    3  A    between atoms: C_13  and  C_14
REMARK    4  A    between atoms: C_15  and  N_16
REMARK    5  A    between atoms: N_16  and  C_17
REMARK    6  A    between atoms: N_16  and  C_23
REMARK    7  A    between atoms: C_17  and  C_18
REMARK    8  A    between atoms: C_23  and  C_25
REMARK    9  A    between atoms: C_23  and  C_34
REMARK   10  A    between atoms: N_29  and  C_30
REMARK   11  A    between atoms: C_30  and  C_31
REMARK   12  A    between atoms: C_31  and  O_32
REMARK   13  A    between atoms: O_32  and  C_33
REMARK   14  A    between atoms: C_34  and  C_35
REMARK   15  A    between atoms: C_34  and  C_36
REMARK                            x       y       z     vdW  Elec       q    Type
REMARK                         _______ _______ _______ _____ _____    ______ ____
ROOT
ATOM      1  N   UNL     1      -0.148   1.395   3.652  0.00  0.00    +0.392 N 
ATOM      2  H   UNL     1      -1.226   1.221   3.514  0.00  0.00    -0.080 HD
ENDROOT
BRANCH   1   3
ATOM      3  C   UNL     1       0.094   2.840   3.545  0.00  0.00    -0.036 C 
BRANCH   3   9
ATOM      4  C   UNL     1      -6.251   6.308   1.720  0.00  0.00    +0.044 C 
ATOM      5  C   UNL     1      -4.941   5.672   1.329  0.00  0.00    -0.047 A 
ATOM      6  C   UNL     1      -4.127   5.151   2.295  0.00  0.00    +0.013 A 
ATOM      7  C   UNL     1      -2.913   4.561   1.933  0.00  0.00    -0.001 A 
ATOM      8  C   UNL     1      -2.017   3.992   2.942  0.00  0.00    +0.017 A 
ATOM      9  C   UNL     1      -0.851   3.433   2.532  0.00  0.00    +0.001 A 
ATOM     10  C   UNL     1      -0.517   3.410   1.161  0.00  0.00    +0.251 A 
ATOM     11  O   UNL     1       0.537   2.906   0.814  0.00  0.00    -0.268 OA
ATOM     12  N   UNL     1      -1.336   3.925   0.227  0.00  0.00    -0.322 N 
ATOM     13  H   UNL     1      -1.052   3.885  -0.836  0.00  0.00    +0.169 HD
ATOM     14  C   UNL     1      -2.535   4.507   0.578  0.00  0.00    +0.049 A 
ATOM     15  C   UNL     1      -3.380   5.045  -0.388  0.00  0.00    +0.030 A 
ATOM     16  C   UNL     1      -4.573   5.622  -0.008  0.00  0.00    -0.046 A 
ATOM     17  C   UNL     1      -5.487   6.203  -1.056  0.00  0.00    +0.044 C 
ENDBRANCH   3   9
ENDBRANCH   1   3
BRANCH   1  18
ATOM     18  C   UNL     1       0.221   0.897   4.984  0.00  0.00    -0.034 C 
BRANCH  18  19
ATOM     19  C   UNL     1      -0.792   1.367   5.995  0.00  0.00    -0.027 A 
ATOM     20  C   UNL     1      -1.899   0.732   6.453  0.00  0.00    +0.009 A 
ATOM     21  C   UNL     1      -2.692   1.362   7.394  0.00  0.00    +0.008 A 
ATOM     22  C   UNL     1      -2.340   2.597   7.830  0.00  0.00    +0.045 A 
ATOM     23  S   UNL     1      -0.843   2.901   6.907  0.00  0.00    -0.103 S 
ENDBRANCH  18  19
ENDBRANCH   1  18
BRANCH   1  24
ATOM     24  C   UNL     1       0.566   0.661   2.599  0.00  0.00    +0.006 C 
BRANCH  24  25
ATOM     25  C   UNL     1       2.017   0.520   2.981  0.00  0.00    +0.138 A 
ATOM     26  N   UNL     1       2.487   0.058   4.114  0.00  0.00    -0.115 NA
ATOM     27  N   UNL     1       3.773   0.096   4.057  0.00  0.00    -0.023 NA
ATOM     28  N   UNL     1       4.137   0.570   2.917  0.00  0.00    -0.044 NA
ATOM     29  N   UNL     1       3.083   0.838   2.223  0.00  0.00    -0.229 N 
BRANCH  29  30
ATOM     30  C   UNL     1       3.051   1.389   0.866  0.00  0.00    +0.175 C 
BRANCH  30  31
ATOM     31  C   UNL     1       3.223   2.908   0.928  0.00  0.00    +0.183 C 
BRANCH  31  32
ATOM     32  O   UNL     1       3.068   3.459  -0.381  0.00  0.00    -0.381 OA
ATOM     33  C   UNL     1       3.211   4.880  -0.434  0.00  0.00    +0.194 C 
ENDBRANCH  31  32
ENDBRANCH  30  31
ENDBRANCH  29  30
ENDBRANCH  24  25
BRANCH  24  34
ATOM     34  C   UNL     1      -0.055  -0.727   2.433  0.00  0.00    -0.024 C 
ATOM     35  C   UNL     1       0.618  -1.451   1.265  0.00  0.00    +0.006 C 
ATOM     36  C   UNL     1      -1.552  -0.586   2.151  0.00  0.00    +0.006 C 
ENDBRANCH  24  34
ENDBRANCH   1  24
TORSDOF 10
