REMARK  Name = ZINC33053201
REMARK  10 active torsions:
REMARK  status: ('A' for Active; 'I' for Inactive)
REMARK    1  A    between atoms: C_1  and  N_2
REMARK    2  A    between atoms: N_2  and  C_3
REMARK    3  A    between atoms: N_2  and  C_29
REMARK    4  A    between atoms: C_3  and  C_4
REMARK    5  A    between atoms: C_4  and  N_5
REMARK    6  A    between atoms: C_6  and  C_8
REMARK    7  A    between atoms: C_11  and  N_23
REMARK    8  A    between atoms: C_12  and  S_14
REMARK    9  A    between atoms: S_14  and  N_17
REMARK   10  A    between atoms: C_29  and  C_30
REMARK                            x       y       z     vdW  Elec       q    Type
REMARK                         _______ _______ _______ _____ _____    ______ ____
ROOT
ATOM      1  C   UNL     1      -1.358   2.111   0.701  0.00  0.00    +0.039 A 
ATOM      2  C   UNL     1      -1.458   3.504   0.756  0.00  0.00    +0.015 A 
ATOM      3  C   UNL     1      -2.691   4.108   0.662  0.00  0.00    +0.026 A 
ATOM      4  C   UNL     1      -3.839   3.332   0.526  0.00  0.00    +0.056 A 
ATOM      5  C   UNL     1      -3.743   1.944   0.478  0.00  0.00    +0.127 A 
ATOM      6  C   UNL     1      -2.512   1.335   0.564  0.00  0.00    +0.043 A 
ENDROOT
BRANCH   4   7
ATOM      7  N   UNL     1      -5.084   3.944   0.439  0.00  0.00    -0.328 N 
ATOM      8  C   UNL     1      -5.179   4.773  -0.770  0.00  0.00    +0.105 C 
ATOM      9  C   UNL     1      -6.604   5.312  -0.910  0.00  0.00    +0.019 C 
ATOM     10  C   UNL     1      -6.954   6.142   0.329  0.00  0.00    +0.003 C 
ATOM     11  C   UNL     1      -6.801   5.270   1.578  0.00  0.00    +0.019 C 
ATOM     12  C   UNL     1      -5.370   4.731   1.645  0.00  0.00    +0.105 C 
ENDBRANCH   4   7
BRANCH   1  14
ATOM     13  N   UNL     1       1.076   2.211   0.921  0.00  0.00    -0.313 N 
ATOM     14  C   UNL     1      -0.037   1.461   0.794  0.00  0.00    +0.244 C 
ATOM     15  O   UNL     1       0.049   0.248   0.752  0.00  0.00    -0.270 OA
ATOM     16  H   UNL     1       0.999   3.307   0.959  0.00  0.00    +0.149 HD
BRANCH  13  17
ATOM     17  C   UNL     1       2.388   1.565   1.007  0.00  0.00    +0.086 C 
BRANCH  17  18
ATOM     18  C   UNL     1       3.474   2.634   1.144  0.00  0.00    -0.060 C 
BRANCH  18  20
ATOM     19  C   UNL     1       5.126   1.307  -0.027  0.00  0.00    -0.096 C 
ATOM     20  N   UNL     1       4.790   1.987   1.231  0.00  0.00    +0.382 N 
ATOM     21  H   UNL     1       4.741   1.227   2.024  0.00  0.00    -0.082 HD
BRANCH  20  22
ATOM     22  C   UNL     1       5.830   2.957   1.599  0.00  0.00    -0.043 C 
BRANCH  22  23
ATOM     23  C   UNL     1       7.109   2.226   1.918  0.00  0.00    -0.064 A 
ATOM     24  C   UNL     1       7.366   1.815   3.212  0.00  0.00    +0.002 A 
ATOM     25  C   UNL     1       8.537   1.140   3.503  0.00  0.00    +0.000 A 
ATOM     26  C   UNL     1       9.455   0.884   2.502  0.00  0.00    +0.000 A 
ATOM     27  C   UNL     1       9.200   1.300   1.208  0.00  0.00    +0.000 A 
ATOM     28  C   UNL     1       8.027   1.970   0.916  0.00  0.00    +0.002 A 
ENDBRANCH  22  23
ENDBRANCH  20  22
ENDBRANCH  18  20
ENDBRANCH  17  18
ENDBRANCH  13  17
ENDBRANCH   1  14
BRANCH   5  29
ATOM     29  S   UNL     1      -5.199   0.966   0.305  0.00  0.00    +0.063 S 
ATOM     30  O   UNL     1      -6.106   1.407   1.306  0.00  0.00    -0.153 OA
ATOM     31  O   UNL     1      -5.529   0.971  -1.077  0.00  0.00    -0.153 OA
BRANCH  29  32
ATOM     32  N   UNL     1      -4.791  -0.592   0.689  0.00  0.00    -0.177 NA
ATOM     33  C   UNL     1      -4.454  -1.559  -0.365  0.00  0.00    +0.109 C 
ATOM     34  C   UNL     1      -3.084  -2.175  -0.042  0.00  0.00    +0.017 C 
ATOM     35  C   UNL     1      -3.117  -2.769   1.368  0.00  0.00    +0.003 C 
ATOM     36  C   UNL     1      -3.397  -1.659   2.384  0.00  0.00    +0.017 C 
ATOM     37  C   UNL     1      -4.765  -1.036   2.089  0.00  0.00    +0.109 C 
ENDBRANCH  29  32
ENDBRANCH   5  29
TORSDOF 9
