REMARK  Name = ZINC39637487
REMARK  6 active torsions:
REMARK  status: ('A' for Active; 'I' for Inactive)
REMARK    1  A    between atoms: C_1  and  C_2
REMARK    2  A    between atoms: C_7  and  N_12
REMARK    3  A    between atoms: C_9  and  C_11
REMARK    4  A    between atoms: C_13  and  C_15
REMARK    5  A    between atoms: C_26  and  C_28
REMARK    6  A    between atoms: C_31  and  C_33
REMARK                            x       y       z     vdW  Elec       q    Type
REMARK                         _______ _______ _______ _____ _____    ______ ____
ROOT
ATOM      1  C   UNL     1       1.363  -0.333   6.074  0.00  0.00    +0.100 C 
ATOM      2  C   UNL     1       0.754  -1.669   6.555  0.00  0.00    +0.121 C 
ATOM      3  N   UNL     1       0.805  -1.593   8.034  0.00  0.00    -0.294 N 
ATOM      4  C   UNL     1       0.455  -0.186   8.343  0.00  0.00    +0.115 C 
ATOM      5  C   UNL     1       1.164   0.638   7.250  0.00  0.00    -0.004 C 
ATOM      6  C   UNL     1       2.514   1.137   7.757  0.00  0.00    -0.010 C 
ATOM      7  C   UNL     1       2.288   2.143   8.889  0.00  0.00    -0.082 C 
ATOM      8  N   UNL     1       1.484   3.266   8.393  0.00  0.00    +0.379 N 
ATOM      9  C   UNL     1       0.153   2.792   7.994  0.00  0.00    -0.082 C 
ATOM     10  C   UNL     1       0.288   1.812   6.824  0.00  0.00    -0.010 C 
ATOM     11  C   UNL     1       1.104  -2.580   8.902  0.00  0.00    +0.282 C 
ATOM     12  O   UNL     1       1.104  -2.359  10.099  0.00  0.00    -0.267 OA
ATOM     13  H   UNL     1       1.388   3.957   9.123  0.00  0.00    -0.086 HD
ATOM     14  H   UNL     1       1.944   3.683   7.598  0.00  0.00    -0.086 HD
ENDROOT
BRANCH  11  15
ATOM     15  C   UNL     1       1.428  -3.919   8.405  0.00  0.00    +0.190 A 
ATOM     16  C   UNL     1       1.744  -5.015   9.178  0.00  0.00    +0.055 A 
ATOM     17  C   UNL     1       1.980  -6.076   8.298  0.00  0.00    +0.050 A 
ATOM     18  C   UNL     1       1.801  -5.595   7.033  0.00  0.00    +0.136 A 
ATOM     19  O   UNL     1       1.464  -4.297   7.109  0.00  0.00    -0.450 OA
BRANCH  18  20
ATOM     20  C   UNL     1       1.949  -6.374   5.787  0.00  0.00    +0.017 A 
ATOM     21  C   UNL     1       2.295  -7.726   5.843  0.00  0.00    +0.014 A 
ATOM     22  C   UNL     1       2.431  -8.449   4.676  0.00  0.00    +0.039 A 
ATOM     23  C   UNL     1       2.226  -7.836   3.450  0.00  0.00    +0.123 A 
ATOM     24  C   UNL     1       1.883  -6.494   3.389  0.00  0.00    +0.039 A 
ATOM     25  C   UNL     1       1.738  -5.763   4.549  0.00  0.00    +0.014 A 
ATOM     26  F   UNL     1       2.361  -8.549   2.311  0.00  0.00    -0.205 F 
ENDBRANCH  18  20
ENDBRANCH  11  15
BRANCH   1  28
ATOM     27  N   UNL     1       1.282   0.918   3.942  0.00  0.00    -0.312 N 
ATOM     28  C   UNL     1       0.634   0.166   4.853  0.00  0.00    +0.218 C 
ATOM     29  O   UNL     1      -0.536  -0.109   4.690  0.00  0.00    -0.275 OA
ATOM     30  H   UNL     1       2.218   1.138   4.071  0.00  0.00    +0.149 HD
BRANCH  27  36
ATOM     31  C   UNL     1      -0.933   3.495   1.362  0.00  0.00    +0.008 C 
ATOM     32  C   UNL     1       0.517   3.176   0.995  0.00  0.00    -0.009 C 
ATOM     33  C   UNL     1       0.544   2.099  -0.091  0.00  0.00    +0.003 C 
ATOM     34  C   UNL     1      -0.140   0.833   0.429  0.00  0.00    +0.002 C 
ATOM     35  C   UNL     1       0.600   0.326   1.669  0.00  0.00    +0.022 C 
ATOM     36  C   UNL     1       0.573   1.404   2.755  0.00  0.00    +0.076 C 
ATOM     37  C   UNL     1       1.258   2.670   2.234  0.00  0.00    +0.009 C 
ATOM     38  C   UNL     1       1.231   3.747   3.320  0.00  0.00    +0.009 C 
ENDBRANCH  27  36
ENDBRANCH   1  28
TORSDOF 4
