REMARK  Name = ZINC63557254
REMARK  8 active torsions:
REMARK  status: ('A' for Active; 'I' for Inactive)
REMARK    1  A    between atoms: C_1  and  C_2
REMARK    2  A    between atoms: C_2  and  C_3
REMARK    3  A    between atoms: C_2  and  C_4
REMARK    4  A    between atoms: C_8  and  N_11
REMARK    5  A    between atoms: C_12  and  C_14
REMARK    6  A    between atoms: N_19  and  C_21
REMARK    7  A    between atoms: C_21  and  C_22
REMARK    8  A    between atoms: C_22  and  C_23
REMARK                            x       y       z     vdW  Elec       q    Type
REMARK                         _______ _______ _______ _____ _____    ______ ____
ROOT
ATOM      1  C   UNL     1      -1.640  -4.187   5.825  0.00  0.00    +0.101 C 
ATOM      2  C   UNL     1      -2.470  -3.254   6.737  0.00  0.00    +0.110 C 
ATOM      3  C   UNL     1      -2.860  -4.130   7.907  0.00  0.00    +0.216 C 
ATOM      4  O   UNL     1      -3.738  -3.873   8.704  0.00  0.00    -0.276 OA
ATOM      5  N   UNL     1      -2.094  -5.233   7.934  0.00  0.00    -0.300 N 
ATOM      6  C   UNL     1      -1.122  -5.236   6.834  0.00  0.00    +0.121 C 
ENDROOT
BRANCH   1   8
ATOM      7  N   UNL     1      -0.746  -2.439   4.321  0.00  0.00    -0.290 N 
ATOM      8  C   UNL     1      -0.497  -3.441   5.187  0.00  0.00    +0.220 C 
ATOM      9  O   UNL     1       0.647  -3.743   5.452  0.00  0.00    -0.275 OA
ATOM     10  H   UNL     1      -1.661  -2.197   4.109  0.00  0.00    +0.151 HD
BRANCH   7  14
ATOM     11  C   UNL     1       0.742  -0.511   1.242  0.00  0.00    +0.132 C 
ATOM     12  N   UNL     1       0.797  -2.005   1.276  0.00  0.00    -0.241 NA
ATOM     13  N   UNL     1       0.983  -2.516   2.618  0.00  0.00    -0.227 NA
ATOM     14  C   UNL     1       0.365  -1.713   3.701  0.00  0.00    +0.216 C 
ATOM     15  S   UNL     1      -0.242  -0.233   2.782  0.00  0.00    -0.102 S 
ATOM     16  H   UNL     1       1.510  -2.355   0.654  0.00  0.00    +0.142 HD
ATOM     17  H   UNL     1       1.959  -2.688   2.808  0.00  0.00    +0.143 HD
BRANCH  11  19
ATOM     18  C   UNL     1      -0.019   1.526   0.010  0.00  0.00    +0.009 C 
ATOM     19  C   UNL     1       0.002  -0.004   0.002  0.00  0.00    +0.011 C 
ATOM     20  C   UNL     1       0.718  -0.497  -1.257  0.00  0.00    +0.009 C 
ENDBRANCH  11  19
ENDBRANCH   7  14
ENDBRANCH   1   8
BRANCH   5  21
ATOM     21  C   UNL     1      -2.213  -6.298   8.934  0.00  0.00    +0.112 C 
BRANCH  21  22
ATOM     22  C   UNL     1      -3.207  -7.352   8.440  0.00  0.00    +0.052 C 
BRANCH  22  23
ATOM     23  C   UNL     1      -3.330  -8.447   9.468  0.00  0.00    -0.040 C 
ATOM     24  C   UNL     1      -4.265  -8.549  10.439  0.00  0.00    +0.002 A 
ATOM     25  C   UNL     1      -5.405  -7.704  10.814  0.00  0.00    +0.048 A 
ATOM     26  C   UNL     1      -6.182  -8.075  11.859  0.00  0.00    +0.124 A 
ATOM     27  C   UNL     1      -5.924  -9.246  12.590  0.00  0.00    +0.040 A 
ATOM     28  C   UNL     1      -4.896 -10.072  12.304  0.00  0.00    +0.029 A 
ATOM     29  C   UNL     1      -4.016  -9.778  11.225  0.00  0.00    +0.043 A 
ATOM     30  N   UNL     1      -2.967 -10.411  10.759  0.00  0.00    -0.380 N 
ATOM     31  C   UNL     1      -2.435  -9.657   9.618  0.00  0.00    +0.144 C 
ATOM     32  F   UNL     1      -7.231  -7.299  12.208  0.00  0.00    -0.205 F 
ATOM     33  H   UNL     1      -2.605 -11.241  11.107  0.00  0.00    +0.160 HD
ENDBRANCH  22  23
ENDBRANCH  21  22
ENDBRANCH   5  21
TORSDOF 6
