REMARK  Name = ZINC59791468
REMARK  8 active torsions:
REMARK  status: ('A' for Active; 'I' for Inactive)
REMARK    1  A    between atoms: C_4  and  N_7
REMARK    2  A    between atoms: C_8  and  C_10
REMARK    3  A    between atoms: C_10  and  C_11
REMARK    4  A    between atoms: C_11  and  S_12
REMARK    5  A    between atoms: S_12  and  C_13
REMARK    6  A    between atoms: C_16  and  C_24
REMARK    7  A    between atoms: N_17  and  C_18
REMARK    8  A    between atoms: C_27  and  N_30
REMARK                            x       y       z     vdW  Elec       q    Type
REMARK                         _______ _______ _______ _____ _____    ______ ____
ROOT
ATOM      1  C   UNL     1       5.837  -6.800   0.467  0.00  0.00    +0.196 A 
ATOM      2  N   UNL     1       4.614  -7.281   0.452  0.00  0.00    -0.122 NA
ATOM      3  N   UNL     1       4.642  -8.562   0.544  0.00  0.00    -0.128 NA
ATOM      4  C   UNL     1       5.884  -8.980   0.623  0.00  0.00    +0.169 A 
ATOM      5  N   UNL     1       6.690  -7.864   0.570  0.00  0.00    -0.270 N 
ENDROOT
BRANCH   5   6
ATOM      6  C   UNL     1       8.091  -7.827   0.616  0.00  0.00    +0.051 A 
ATOM      7  C   UNL     1       8.835  -8.385  -0.414  0.00  0.00    +0.026 A 
ATOM      8  C   UNL     1      10.215  -8.347  -0.366  0.00  0.00    +0.002 A 
ATOM      9  C   UNL     1      10.855  -7.753   0.706  0.00  0.00    +0.000 A 
ATOM     10  C   UNL     1      10.116  -7.197   1.734  0.00  0.00    +0.002 A 
ATOM     11  C   UNL     1       8.736  -7.227   1.689  0.00  0.00    +0.026 A 
ENDBRANCH   5   6
BRANCH   4  12
ATOM     12  C   UNL     1       6.333 -10.384   0.741  0.00  0.00    +0.020 A 
ATOM     13  C   UNL     1       7.642 -10.671   1.133  0.00  0.00    +0.014 A 
ATOM     14  C   UNL     1       8.054 -11.983   1.241  0.00  0.00    +0.033 A 
ATOM     15  C   UNL     1       7.174 -13.013   0.961  0.00  0.00    +0.126 A 
ATOM     16  C   UNL     1       5.876 -12.736   0.572  0.00  0.00    +0.033 A 
ATOM     17  C   UNL     1       5.449 -11.428   0.466  0.00  0.00    +0.014 A 
BRANCH  15  18
ATOM     18  N   UNL     1       7.624 -14.419   1.079  0.00  0.00    +0.056 N 
ATOM     19  O   UNL     1       8.758 -14.664   1.419  0.00  0.00    -0.126 OA
ATOM     20  O   UNL     1       6.857 -15.321   0.835  0.00  0.00    -0.126 OA
ENDBRANCH  15  18
ENDBRANCH   4  12
BRANCH   1  21
ATOM     21  S   UNL     1       6.294  -5.101   0.364  0.00  0.00    -0.085 S 
BRANCH  21  22
ATOM     22  C   UNL     1       4.708  -4.227   0.249  0.00  0.00    +0.086 C 
BRANCH  22  23
ATOM     23  C   UNL     1       4.962  -2.721   0.153  0.00  0.00    +0.107 C 
BRANCH  23  25
ATOM     24  N   UNL     1       3.622  -0.651  -0.037  0.00  0.00    -0.285 N 
ATOM     25  C   UNL     1       3.645  -1.995   0.057  0.00  0.00    +0.218 C 
ATOM     26  O   UNL     1       2.606  -2.620   0.064  0.00  0.00    -0.275 OA
ATOM     27  H   UNL     1       4.452  -0.156  -0.121  0.00  0.00    +0.155 HD
BRANCH  24  31
ATOM     28  C   UNL     1      -0.015   1.381   0.029  0.00  0.00    +0.000 A 
ATOM     29  C   UNL     1       0.140   0.218   0.763  0.00  0.00    +0.002 A 
ATOM     30  C   UNL     1       1.344  -0.457   0.743  0.00  0.00    +0.023 A 
ATOM     31  C   UNL     1       2.400   0.031  -0.015  0.00  0.00    +0.033 A 
ATOM     32  C   UNL     1       2.241   1.198  -0.751  0.00  0.00    +0.023 A 
ATOM     33  C   UNL     1       1.034   1.870  -0.727  0.00  0.00    +0.002 A 
ENDBRANCH  24  31
ENDBRANCH  23  25
ENDBRANCH  22  23
ENDBRANCH  21  22
ENDBRANCH   1  21
TORSDOF 8
