REMARK  Name = ZINC65059862
REMARK  9 active torsions:
REMARK  status: ('A' for Active; 'I' for Inactive)
REMARK    1  A    between atoms: C_2  and  C_3
REMARK    2  A    between atoms: C_3  and  N_4
REMARK    3  A    between atoms: C_5  and  C_7
REMARK    4  A    between atoms: C_12  and  O_13
REMARK    5  A    between atoms: O_13  and  C_14
REMARK    6  A    between atoms: C_18  and  N_20
REMARK    7  A    between atoms: N_20  and  S_21
REMARK    8  A    between atoms: S_21  and  C_24
REMARK    9  A    between atoms: C_27  and  C_30
REMARK                            x       y       z     vdW  Elec       q    Type
REMARK                         _______ _______ _______ _____ _____    ______ ____
ROOT
ATOM      1  C   UNL     1      -5.680  -4.984  -2.016  0.00  0.00    +0.132 A 
ATOM      2  C   UNL     1      -5.726  -5.904  -3.054  0.00  0.00    +0.046 A 
ATOM      3  C   UNL     1      -6.853  -6.682  -3.240  0.00  0.00    +0.005 A 
ATOM      4  C   UNL     1      -7.937  -6.547  -2.394  0.00  0.00    +0.025 A 
ATOM      5  C   UNL     1      -7.896  -5.627  -1.354  0.00  0.00    +0.052 A 
ATOM      6  C   UNL     1      -6.763  -4.849  -1.161  0.00  0.00    +0.070 A 
ENDROOT
BRANCH   5   7
ATOM      7  N   UNL     1      -8.992  -5.490  -0.499  0.00  0.00    -0.216 N 
ATOM      8  H   UNL     1      -9.310  -4.606  -0.257  0.00  0.00    +0.174 HD
BRANCH   7   9
ATOM      9  S   UNL     1      -9.748  -6.836   0.101  0.00  0.00    +0.072 S 
ATOM     10  O   UNL     1     -10.792  -6.372   0.947  0.00  0.00    -0.150 OA
ATOM     11  O   UNL     1      -9.989  -7.693  -1.006  0.00  0.00    -0.150 OA
BRANCH   9  12
ATOM     12  C   UNL     1      -8.590  -7.665   1.138  0.00  0.00    +0.109 A 
ATOM     13  C   UNL     1      -7.746  -8.621   0.605  0.00  0.00    +0.029 A 
ATOM     14  C   UNL     1      -6.838  -9.272   1.419  0.00  0.00    +0.006 A 
ATOM     15  C   UNL     1      -6.773  -8.966   2.765  0.00  0.00    -0.044 A 
ATOM     16  C   UNL     1      -7.616  -8.009   3.298  0.00  0.00    +0.006 A 
ATOM     17  C   UNL     1      -8.522  -7.355   2.483  0.00  0.00    +0.029 A 
BRANCH  15  18
ATOM     18  C   UNL     1      -5.783  -9.676   3.653  0.00  0.00    +0.019 C 
ATOM     19  C   UNL     1      -6.533 -10.419   4.761  0.00  0.00    +0.008 C 
ATOM     20  C   UNL     1      -5.528 -11.140   5.661  0.00  0.00    +0.001 C 
ATOM     21  C   UNL     1      -4.577 -10.117   6.286  0.00  0.00    +0.000 C 
ATOM     22  C   UNL     1      -3.828  -9.374   5.178  0.00  0.00    +0.001 C 
ATOM     23  C   UNL     1      -4.833  -8.653   4.277  0.00  0.00    +0.008 C 
ENDBRANCH  15  18
ENDBRANCH   9  12
ENDBRANCH   7   9
ENDBRANCH   5   7
BRANCH   1  24
ATOM     24  O   UNL     1      -4.571  -4.220  -1.833  0.00  0.00    -0.437 OA
BRANCH  24  30
ATOM     25  C   UNL     1      -3.307  -2.290  -2.443  0.00  0.00    +0.098 A 
ATOM     26  C   UNL     1      -3.130  -1.209  -3.314  0.00  0.00    +0.020 A 
ATOM     27  C   UNL     1      -4.031  -1.046  -4.351  0.00  0.00    +0.021 A 
ATOM     28  C   UNL     1      -5.071  -1.947  -4.497  0.00  0.00    +0.114 A 
ATOM     29  N   UNL     1      -5.220  -2.959  -3.665  0.00  0.00    -0.220 NA
ATOM     30  C   UNL     1      -4.383  -3.164  -2.660  0.00  0.00    +0.233 A 
BRANCH  25  32
ATOM     31  N   UNL     1      -1.345  -1.665  -1.124  0.00  0.00    -0.308 N 
ATOM     32  C   UNL     1      -2.375  -2.511  -1.321  0.00  0.00    +0.249 C 
ATOM     33  O   UNL     1      -2.537  -3.457  -0.575  0.00  0.00    -0.270 OA
ATOM     34  H   UNL     1      -1.217  -0.910  -1.720  0.00  0.00    +0.149 HD
BRANCH  31  35
ATOM     35  C   UNL     1      -0.420  -1.885  -0.009  0.00  0.00    +0.131 C 
BRANCH  35  37
ATOM     36  C   UNL     1       0.830  -0.081   1.062  0.00  0.00    +0.005 C 
ATOM     37  C   UNL     1       0.633  -0.806  -0.011  0.00  0.00    -0.016 C 
ENDBRANCH  35  37
ENDBRANCH  31  35
ENDBRANCH  25  32
ENDBRANCH  24  30
ENDBRANCH   1  24
TORSDOF 9
