REMARK  Name = ZINC36342102
REMARK  14 active torsions:
REMARK  status: ('A' for Active; 'I' for Inactive)
REMARK    1  A    between atoms: C_1  and  C_2
REMARK    2  A    between atoms: C_3  and  C_21
REMARK    3  A    between atoms: C_4  and  O_13
REMARK    4  A    between atoms: N_5  and  C_7
REMARK    5  A    between atoms: O_13  and  C_14
REMARK    6  A    between atoms: C_21  and  N_22
REMARK    7  A    between atoms: N_22  and  C_23
REMARK    8  A    between atoms: N_22  and  C_30
REMARK    9  A    between atoms: C_23  and  C_24
REMARK   10  A    between atoms: C_30  and  C_31
REMARK   11  A    between atoms: C_31  and  C_33
REMARK   12  A    between atoms: C_31  and  O_37
REMARK   13  A    between atoms: C_33  and  C_34
REMARK   14  A    between atoms: C_34  and  C_35
REMARK                            x       y       z     vdW  Elec       q    Type
REMARK                         _______ _______ _______ _____ _____    ______ ____
ROOT
ATOM      1  C   UNL     1       0.429  -3.743  -2.049  0.00  0.00    +0.068 C 
ATOM      2  C   UNL     1      -0.676  -2.967  -2.718  0.00  0.00    +0.065 A 
ATOM      3  C   UNL     1      -0.815  -1.575  -2.715  0.00  0.00    +0.021 A 
ATOM      4  C   UNL     1      -1.933  -1.266  -3.425  0.00  0.00    +0.225 A 
ATOM      5  N   UNL     1      -2.478  -2.434  -3.859  0.00  0.00    -0.200 N 
ATOM      6  N   UNL     1      -1.664  -3.481  -3.404  0.00  0.00    -0.168 NA
ENDROOT
BRANCH   5   7
ATOM      7  C   UNL     1      -3.642  -2.568  -4.627  0.00  0.00    +0.069 A 
ATOM      8  C   UNL     1      -4.762  -1.802  -4.331  0.00  0.00    +0.028 A 
ATOM      9  C   UNL     1      -5.908  -1.936  -5.091  0.00  0.00    +0.002 A 
ATOM     10  C   UNL     1      -5.941  -2.831  -6.144  0.00  0.00    +0.000 A 
ATOM     11  C   UNL     1      -4.827  -3.595  -6.441  0.00  0.00    +0.002 A 
ATOM     12  C   UNL     1      -3.676  -3.461  -5.690  0.00  0.00    +0.028 A 
ENDBRANCH   5   7
BRANCH   4  13
ATOM     13  O   UNL     1      -2.417  -0.020  -3.657  0.00  0.00    -0.438 OA
BRANCH  13  14
ATOM     14  C   UNL     1      -3.239   0.529  -2.724  0.00  0.00    +0.131 A 
ATOM     15  C   UNL     1      -3.467  -0.130  -1.525  0.00  0.00    +0.049 A 
ATOM     16  C   UNL     1      -4.303   0.429  -0.577  0.00  0.00    +0.042 A 
ATOM     17  C   UNL     1      -4.912   1.648  -0.824  0.00  0.00    +0.124 A 
ATOM     18  C   UNL     1      -4.685   2.308  -2.020  0.00  0.00    +0.042 A 
ATOM     19  C   UNL     1      -3.846   1.753  -2.967  0.00  0.00    +0.049 A 
ATOM     20  F   UNL     1      -5.728   2.194   0.104  0.00  0.00    -0.205 F 
ENDBRANCH  13  14
ENDBRANCH   4  13
BRANCH   3  21
ATOM     21  C   UNL     1       0.110  -0.593  -2.045  0.00  0.00    -0.036 C 
BRANCH  21  22
ATOM     22  N   UNL     1       1.249  -0.310  -2.929  0.00  0.00    +0.386 N 
ATOM     23  H   UNL     1       1.672  -1.179  -3.220  0.00  0.00    -0.081 HD
BRANCH  22  24
ATOM     24  C   UNL     1       2.240   0.499  -2.207  0.00  0.00    -0.046 C 
BRANCH  24  25
ATOM     25  C   UNL     1       1.653   1.880  -1.911  0.00  0.00    +0.102 C 
ATOM     26  C   UNL     1       2.724   2.774  -1.251  0.00  0.00    +0.032 C 
ATOM     27  C   UNL     1       1.899   3.545  -0.185  0.00  0.00    +0.030 C 
ATOM     28  C   UNL     1       0.865   2.466   0.223  0.00  0.00    +0.160 C 
ATOM     29  O   UNL     1       0.562   1.757  -0.991  0.00  0.00    -0.378 OA
ENDBRANCH  24  25
ENDBRANCH  22  24
BRANCH  22  30
ATOM     30  C   UNL     1       0.781   0.427  -4.110  0.00  0.00    -0.047 C 
BRANCH  30  31
ATOM     31  C   UNL     1       1.933   0.581  -5.105  0.00  0.00    +0.098 C 
BRANCH  31  32
ATOM     32  O   UNL     1       2.895   1.499  -4.581  0.00  0.00    -0.394 OA
ATOM     33  H   UNL     1       2.543   2.384  -4.412  0.00  0.00    +0.210 HD
ENDBRANCH  31  32
BRANCH  31  34
ATOM     34  C   UNL     1       1.392   1.112  -6.434  0.00  0.00    +0.033 C 
BRANCH  34  35
ATOM     35  C   UNL     1       2.520   1.149  -7.466  0.00  0.00    +0.029 C 
BRANCH  35  36
ATOM     36  C   UNL     1       1.987   1.672  -8.775  0.00  0.00    -0.034 C 
ATOM     37  C   UNL     1       2.557   2.703  -9.349  0.00  0.00    +0.004 C 
ENDBRANCH  35  36
ENDBRANCH  34  35
ENDBRANCH  31  34
ENDBRANCH  30  31
ENDBRANCH  22  30
ENDBRANCH  21  22
ENDBRANCH   3  21
TORSDOF 13
