REMARK  Name = ZINC63205712
REMARK  7 active torsions:
REMARK  status: ('A' for Active; 'I' for Inactive)
REMARK    1  A    between atoms: C_7  and  C_10
REMARK    2  A    between atoms: C_13  and  S_18
REMARK    3  A    between atoms: N_14  and  C_15
REMARK    4  A    between atoms: S_18  and  C_19
REMARK    5  A    between atoms: C_19  and  C_20
REMARK    6  A    between atoms: N_22  and  C_23
REMARK    7  A    between atoms: C_24  and  C_30
REMARK                            x       y       z     vdW  Elec       q    Type
REMARK                         _______ _______ _______ _____ _____    ______ ____
ROOT
ATOM      1  C   UNL     1      -0.377  -3.492  -2.779  0.00  0.00    +0.163 A 
ATOM      2  N   UNL     1      -1.096  -3.325  -1.679  0.00  0.00    -0.129 NA
ATOM      3  N   UNL     1      -1.415  -4.470  -1.190  0.00  0.00    -0.122 NA
ATOM      4  C   UNL     1      -0.921  -5.441  -1.945  0.00  0.00    +0.193 A 
ATOM      5  N   UNL     1      -0.254  -4.856  -2.977  0.00  0.00    -0.299 N 
ENDROOT
BRANCH   1  12
ATOM      6  C   UNL     1      -0.547   1.032  -2.489  0.00  0.00    +0.001 A 
ATOM      7  C   UNL     1       0.127   1.685  -3.523  0.00  0.00    +0.002 A 
ATOM      8  C   UNL     1       0.761   1.001  -4.507  0.00  0.00    +0.026 A 
ATOM      9  C   UNL     1       0.751  -0.418  -4.500  0.00  0.00    +0.043 A 
ATOM     10  N   UNL     1       1.282  -1.298  -5.325  0.00  0.00    -0.380 N 
ATOM     11  C   UNL     1       0.971  -2.652  -4.854  0.00  0.00    +0.152 C 
ATOM     12  C   UNL     1       0.155  -2.478  -3.592  0.00  0.00    +0.025 C 
ATOM     13  C   UNL     1       0.040  -1.101  -3.406  0.00  0.00    +0.006 A 
ATOM     14  C   UNL     1      -0.599  -0.323  -2.417  0.00  0.00    +0.010 A 
ATOM     15  H   UNL     1       1.796  -1.085  -6.119  0.00  0.00    +0.160 HD
ENDBRANCH   1  12
BRANCH   5  16
ATOM     16  C   UNL     1       0.451  -5.531  -4.070  0.00  0.00    +0.091 C 
ATOM     17  C   UNL     1       0.112  -7.001  -4.327  0.00  0.00    +0.027 C 
ATOM     18  C   UNL     1       1.454  -6.623  -3.696  0.00  0.00    +0.027 C 
ENDBRANCH   5  16
BRANCH   4  19
ATOM     19  S   UNL     1      -1.102  -7.171  -1.667  0.00  0.00    -0.077 S 
BRANCH  19  20
ATOM     20  C   UNL     1      -2.094  -7.271  -0.152  0.00  0.00    +0.173 C 
BRANCH  20  21
ATOM     21  C   UNL     1      -2.325  -8.718   0.203  0.00  0.00    +0.228 C 
ATOM     22  O   UNL     1      -1.866  -9.595  -0.498  0.00  0.00    -0.275 OA
ATOM     23  N   UNL     1      -3.042  -9.037   1.298  0.00  0.00    -0.283 N 
ATOM     24  H   UNL     1      -3.476  -8.339   1.814  0.00  0.00    +0.155 HD
BRANCH  23  25
ATOM     25  C   UNL     1      -3.160 -10.375   1.692  0.00  0.00    +0.064 A 
ATOM     26  C   UNL     1      -4.364 -11.046   1.524  0.00  0.00    +0.077 A 
ATOM     27  C   UNL     1      -4.477 -12.366   1.914  0.00  0.00    +0.014 A 
ATOM     28  C   UNL     1      -3.393 -13.020   2.471  0.00  0.00    +0.002 A 
ATOM     29  C   UNL     1      -2.192 -12.355   2.640  0.00  0.00    +0.022 A 
ATOM     30  C   UNL     1      -2.071 -11.036   2.247  0.00  0.00    +0.063 A 
ATOM     31 CL   UNL     1      -0.561 -10.203   2.453  0.00  0.00    -0.082 Cl
BRANCH  26  32
ATOM     32  C   UNL     1      -5.546 -10.335   0.918  0.00  0.00    +0.419 C 
ATOM     33  F   UNL     1      -6.634 -11.211   0.853  0.00  0.00    -0.166 F 
ATOM     34  F   UNL     1      -5.882  -9.231   1.710  0.00  0.00    -0.166 F 
ATOM     35  F   UNL     1      -5.218  -9.901  -0.371  0.00  0.00    -0.166 F 
ENDBRANCH  26  32
ENDBRANCH  23  25
ENDBRANCH  20  21
ENDBRANCH  19  20
ENDBRANCH   4  19
TORSDOF 7
