REMARK  Name = ZINC20064456
REMARK  5 active torsions:
REMARK  status: ('A' for Active; 'I' for Inactive)
REMARK    1  A    between atoms: C_1  and  N_2
REMARK    2  A    between atoms: C_13  and  C_16
REMARK    3  A    between atoms: C_19  and  O_22
REMARK    4  A    between atoms: O_22  and  C_23
REMARK    5  A    between atoms: C_23  and  C_25
REMARK                            x       y       z     vdW  Elec       q    Type
REMARK                         _______ _______ _______ _____ _____    ______ ____
ROOT
ATOM      1  C   UNL     1      -0.253   0.287   1.916  0.00  0.00    -0.096 C 
ATOM      2  N   UNL     1      -0.708   1.126   0.800  0.00  0.00    +0.381 N 
ATOM      3  C   UNL     1      -0.053   0.734  -0.456  0.00  0.00    -0.074 C 
ATOM      4  C   UNL     1      -0.797   1.342  -1.647  0.00  0.00    +0.018 C 
ATOM      5  C   UNL     1      -0.951   2.839  -1.399  0.00  0.00    -0.027 A 
ATOM      6  C   UNL     1      -0.795   3.336  -0.150  0.00  0.00    -0.021 A 
ATOM      7  S   UNL     1      -1.054   5.081  -0.319  0.00  0.00    -0.080 S 
ATOM      8  C   UNL     1      -1.361   5.145  -2.002  0.00  0.00    +0.080 A 
ATOM      9  C   UNL     1      -1.266   3.811  -2.430  0.00  0.00    +0.068 A 
ATOM     10  C   UNL     1      -1.482   3.538  -3.870  0.00  0.00    +0.248 C 
ATOM     11  O   UNL     1      -1.295   2.431  -4.340  0.00  0.00    -0.270 OA
ATOM     12  N   UNL     1      -1.894   4.567  -4.639  0.00  0.00    -0.289 N 
ATOM     13  C   UNL     1      -2.354   5.842  -4.099  0.00  0.00    +0.190 C 
ATOM     14  N   UNL     1      -1.644   6.183  -2.853  0.00  0.00    -0.316 N 
ATOM     15  C   UNL     1      -0.474   2.555   1.085  0.00  0.00    -0.036 C 
ATOM     16  H   UNL     1      -1.872   4.407  -5.727  0.00  0.00    +0.151 HD
ATOM     17  H   UNL     1      -1.367   7.227  -2.644  0.00  0.00    +0.149 HD
ATOM     18  H   UNL     1      -1.790   0.968   0.682  0.00  0.00    -0.082 HD
ENDROOT
BRANCH  13  19
ATOM     19  C   UNL     1      -3.832   5.754  -3.816  0.00  0.00    -0.009 A 
ATOM     20  C   UNL     1      -4.390   6.525  -2.812  0.00  0.00    +0.010 A 
ATOM     21  C   UNL     1      -5.745   6.450  -2.555  0.00  0.00    +0.047 A 
ATOM     22  C   UNL     1      -6.545   5.593  -3.297  0.00  0.00    +0.132 A 
ATOM     23  C   UNL     1      -5.982   4.817  -4.299  0.00  0.00    +0.047 A 
ATOM     24  C   UNL     1      -4.627   4.899  -4.556  0.00  0.00    +0.010 A 
BRANCH  22  25
ATOM     25  O   UNL     1      -7.877   5.513  -3.041  0.00  0.00    -0.422 OA
BRANCH  25  26
ATOM     26  C   UNL     1      -8.328   4.366  -2.497  0.00  0.00    +0.345 C 
ATOM     27  O   UNL     1      -7.542   3.503  -2.159  0.00  0.00    -0.245 OA
BRANCH  26  28
ATOM     28  C   UNL     1      -9.776   4.158  -2.310  0.00  0.00    +0.063 A 
ATOM     29  C   UNL     1     -10.682   5.152  -2.692  0.00  0.00    +0.019 A 
ATOM     30  C   UNL     1     -12.034   4.953  -2.521  0.00  0.00    +0.050 A 
ATOM     31  C   UNL     1     -12.502   3.772  -1.960  0.00  0.00    +0.166 A 
ATOM     32  C   UNL     1     -11.603   2.778  -1.571  0.00  0.00    +0.167 A 
ATOM     33  C   UNL     1     -10.246   2.969  -1.745  0.00  0.00    +0.064 A 
ATOM     34  O   UNL     1     -12.309   1.730  -1.055  0.00  0.00    -0.453 OA
ATOM     35  C   UNL     1     -13.663   1.920  -1.506  0.00  0.00    +0.466 C 
ATOM     36  O   UNL     1     -13.768   3.344  -1.686  0.00  0.00    -0.453 OA
ENDBRANCH  26  28
ENDBRANCH  25  26
ENDBRANCH  22  25
ENDBRANCH  13  19
TORSDOF 4
