REMARK  Name = ZINC36637920
REMARK  10 active torsions:
REMARK  status: ('A' for Active; 'I' for Inactive)
REMARK    1  A    between atoms: C_1  and  C_2
REMARK    2  A    between atoms: C_2  and  C_3
REMARK    3  A    between atoms: N_12  and  C_13
REMARK    4  A    between atoms: C_13  and  C_14
REMARK    5  A    between atoms: C_14  and  N_15
REMARK    6  A    between atoms: N_15  and  C_16
REMARK    7  A    between atoms: N_15  and  C_18
REMARK    8  A    between atoms: C_16  and  C_17
REMARK    9  A    between atoms: C_18  and  C_19
REMARK   10  A    between atoms: C_20  and  C_22
REMARK                            x       y       z     vdW  Elec       q    Type
REMARK                         _______ _______ _______ _____ _____    ______ ____
ROOT
ATOM      1  C   UNL     1      -0.001  -0.785   0.929  0.00  0.00    -0.046 A 
ATOM      2  C   UNL     1       1.381  -0.916   0.927  0.00  0.00    +0.006 A 
ATOM      3  C   UNL     1       2.070  -1.251   2.062  0.00  0.00    +0.029 A 
ATOM      4  C   UNL     1       1.389  -1.476   3.281  0.00  0.00    +0.080 A 
ATOM      5  C   UNL     1      -0.017  -1.333   3.246  0.00  0.00    +0.041 A 
ATOM      6  C   UNL     1      -0.699  -0.992   2.104  0.00  0.00    +0.021 A 
ATOM      7  S   UNL     1      -0.475  -1.687   4.926  0.00  0.00    -0.052 S 
ATOM      8  C   UNL     1       1.172  -1.992   5.548  0.00  0.00    +0.168 A 
ATOM      9  N   UNL     1       1.913  -1.810   4.480  0.00  0.00    -0.224 NA
ATOM     10  N   UNL     1       1.565  -2.333   6.831  0.00  0.00    -0.248 N 
ATOM     11  C   UNL     1       0.643  -2.476   7.803  0.00  0.00    +0.259 C 
ATOM     12  O   UNL     1      -0.540  -2.385   7.537  0.00  0.00    -0.269 OA
ENDROOT
BRANCH  11  13
ATOM     13  C   UNL     1       1.068  -2.741   9.186  0.00  0.00    +0.122 A 
ATOM     14  C   UNL     1       1.513  -4.002   9.582  0.00  0.00    +0.032 A 
ATOM     15  C   UNL     1       1.873  -4.184  10.931  0.00  0.00    +0.026 A 
ATOM     16  C   UNL     1       2.549  -5.407  11.370  0.00  0.00    -0.007 A 
ATOM     17  C   UNL     1       2.844  -6.441  10.478  0.00  0.00    +0.009 A 
ATOM     18  C   UNL     1       3.476  -7.563  10.931  0.00  0.00    +0.001 A 
ATOM     19  C   UNL     1       3.831  -7.691  12.270  0.00  0.00    +0.001 A 
ATOM     20  C   UNL     1       3.557  -6.700  13.165  0.00  0.00    +0.008 A 
ATOM     21  C   UNL     1       2.909  -5.532  12.732  0.00  0.00    -0.017 A 
ATOM     22  C   UNL     1       2.612  -4.487  13.629  0.00  0.00    +0.012 A 
ATOM     23  C   UNL     1       1.976  -3.363  13.211  0.00  0.00    +0.047 A 
ATOM     24  C   UNL     1       1.591  -3.189  11.879  0.00  0.00    +0.140 A 
ATOM     25  O   UNL     1       0.924  -2.071  11.505  0.00  0.00    -0.422 OA
ATOM     26  C   UNL     1       1.049  -1.685  10.212  0.00  0.00    +0.350 A 
ATOM     27  O   UNL     1       1.137  -0.510   9.908  0.00  0.00    -0.244 OA
ENDBRANCH  11  13
BRANCH   1  29
ATOM     28  C   UNL     1      -0.840   1.108  -0.435  0.00  0.00    +0.009 C 
ATOM     29  C   UNL     1      -0.732  -0.415  -0.336  0.00  0.00    +0.032 C 
ENDBRANCH   1  29
BRANCH  10  30
ATOM     30  C   UNL     1       2.985  -2.540   7.130  0.00  0.00    +0.097 C 
BRANCH  30  31
ATOM     31  C   UNL     1       3.638  -1.196   7.458  0.00  0.00    -0.059 C 
BRANCH  31  32
ATOM     32  N   UNL     1       5.061  -1.403   7.758  0.00  0.00    +0.380 N 
ATOM     33  H   UNL     1       5.153  -2.085   8.496  0.00  0.00    -0.082 HD
BRANCH  32  34
ATOM     34  C   UNL     1       5.750  -1.887   6.555  0.00  0.00    -0.082 C 
ATOM     35  C   UNL     1       7.200  -2.230   6.901  0.00  0.00    -0.017 C 
ENDBRANCH  32  34
BRANCH  32  36
ATOM     36  C   UNL     1       5.660  -0.133   8.188  0.00  0.00    -0.082 C 
ATOM     37  C   UNL     1       5.052   0.291   9.527  0.00  0.00    -0.017 C 
ENDBRANCH  32  36
ENDBRANCH  31  32
ENDBRANCH  30  31
ENDBRANCH  10  30
TORSDOF 7
