REMARK  Name = ZINC01582004
REMARK  10 active torsions:
REMARK  status: ('A' for Active; 'I' for Inactive)
REMARK    1  A    between atoms: C_1  and  C_2
REMARK    2  A    between atoms: C_2  and  C_3
REMARK    3  A    between atoms: C_2  and  N_52
REMARK    4  A    between atoms: C_4  and  C_5
REMARK    5  A    between atoms: C_4  and  N_52
REMARK    6  A    between atoms: C_5  and  N_6
REMARK    7  A    between atoms: C_9  and  C_27
REMARK    8  A    between atoms: C_10  and  C_20
REMARK    9  A    between atoms: C_11  and  C_13
REMARK   10  A    between atoms: C_27  and  C_29
REMARK                            x       y       z     vdW  Elec       q    Type
REMARK                         _______ _______ _______ _____ _____    ______ ____
ROOT
ATOM      1  N   UNL     1      -3.537  -1.032  -0.099  0.00  0.00    -0.230 N 
ATOM      2  C   UNL     1      -4.774  -0.514   0.024  0.00  0.00    +0.278 A 
ATOM      3  O   UNL     1      -5.754  -1.240   0.028  0.00  0.00    -0.265 OA
ATOM      4  C   UNL     1      -4.921   0.941   0.151  0.00  0.00    +0.093 A 
ATOM      5  C   UNL     1      -3.735   1.704   0.136  0.00  0.00    +0.025 A 
ATOM      6  C   UNL     1      -2.506   1.004  -0.001  0.00  0.00    +0.100 A 
ATOM      7  N   UNL     1      -2.486  -0.300  -0.113  0.00  0.00    -0.168 NA
ENDROOT
BRANCH   6   8
ATOM      8  C   UNL     1      -1.231   1.761  -0.023  0.00  0.00    +0.003 A 
ATOM      9  C   UNL     1      -0.197   1.365  -0.870  0.00  0.00    +0.011 A 
ATOM     10  C   UNL     1       0.985   2.076  -0.891  0.00  0.00    +0.020 A 
ATOM     11  C   UNL     1       1.148   3.178  -0.069  0.00  0.00    +0.041 A 
ATOM     12  C   UNL     1       0.126   3.572   0.779  0.00  0.00    +0.020 A 
ATOM     13  C   UNL     1      -1.059   2.867   0.808  0.00  0.00    +0.011 A 
ATOM     14 CL   UNL     1       2.637   4.069  -0.101  0.00  0.00    -0.084 Cl
ENDBRANCH   6   8
BRANCH   5  15
ATOM     15  C   UNL     1      -3.769   3.175   0.258  0.00  0.00    -0.015 A 
ATOM     16  C   UNL     1      -3.422   3.977  -0.832  0.00  0.00    +0.010 A 
ATOM     17  C   UNL     1      -3.461   5.350  -0.713  0.00  0.00    +0.020 A 
ATOM     18  C   UNL     1      -3.833   5.934   0.487  0.00  0.00    +0.041 A 
ATOM     19  C   UNL     1      -4.173   5.144   1.573  0.00  0.00    +0.020 A 
ATOM     20  C   UNL     1      -4.143   3.770   1.466  0.00  0.00    +0.010 A 
ATOM     21 CL   UNL     1      -3.873   7.664   0.631  0.00  0.00    -0.084 Cl
ENDBRANCH   5  15
BRANCH   4  22
ATOM     22  C   UNL     1      -6.234   1.569   0.288  0.00  0.00    +0.166 C 
ATOM     23  O   UNL     1      -6.322   2.776   0.392  0.00  0.00    -0.292 OA
ATOM     24  C   UNL     1      -7.479   0.720   0.300  0.00  0.00    +0.092 C 
ENDBRANCH   4  22
BRANCH   1  25
ATOM     25  C   UNL     1      -3.388  -2.484  -0.226  0.00  0.00    +0.128 C 
BRANCH  25  26
ATOM     26  C   UNL     1      -3.430  -2.873  -1.705  0.00  0.00    -0.059 C 
BRANCH  26  27
ATOM     27  N   UNL     1      -3.280  -4.336  -1.825  0.00  0.00    +0.382 N 
ATOM     28  H   UNL     1      -2.382  -4.619  -1.415  0.00  0.00    -0.085 HD
ATOM     29  H   UNL     1      -4.046  -4.797  -1.321  0.00  0.00    -0.085 HD
BRANCH  27  31
ATOM     30  C   UNL     1      -1.917  -4.610  -3.847  0.00  0.00    -0.014 C 
ATOM     31  C   UNL     1      -3.316  -4.740  -3.243  0.00  0.00    -0.078 C 
ATOM     32  C   UNL     1      -3.780  -6.195  -3.338  0.00  0.00    -0.014 C 
ENDBRANCH  27  31
ENDBRANCH  26  27
ENDBRANCH  25  26
ENDBRANCH   1  25
TORSDOF 7
