REMARK  Name = ZINC03444745
REMARK  15 active torsions:
REMARK  status: ('A' for Active; 'I' for Inactive)
REMARK    1  A    between atoms: C_1  and  N_66
REMARK    2  A    between atoms: C_2  and  N_66
REMARK    3  A    between atoms: C_3  and  C_5
REMARK    4  A    between atoms: C_3  and  C_26
REMARK    5  A    between atoms: C_3  and  N_66
REMARK    6  A    between atoms: C_5  and  N_6
REMARK    7  A    between atoms: C_7  and  C_9
REMARK    8  A    between atoms: C_13  and  S_15
REMARK    9  A    between atoms: S_15  and  N_18
REMARK   10  A    between atoms: N_18  and  C_19
REMARK   11  A    between atoms: N_18  and  C_20
REMARK   12  A    between atoms: C_29  and  O_34
REMARK   13  A    between atoms: C_30  and  O_32
REMARK   14  A    between atoms: O_32  and  C_33
REMARK   15  A    between atoms: O_34  and  C_35
REMARK                            x       y       z     vdW  Elec       q    Type
REMARK                         _______ _______ _______ _____ _____    ______ ____
ROOT
ATOM      1  N   UNL     1      -1.975   5.162   1.971  0.00  0.00    -0.313 N 
ATOM      2  C   UNL     1      -1.813   6.160   1.080  0.00  0.00    +0.244 C 
ATOM      3  O   UNL     1      -2.769   6.827   0.735  0.00  0.00    -0.270 OA
ATOM      4  H   UNL     1      -1.212   4.629   2.247  0.00  0.00    +0.149 HD
ENDROOT
BRANCH   2   5
ATOM      5  C   UNL     1      -0.474   6.444   0.523  0.00  0.00    +0.039 A 
ATOM      6  C   UNL     1       0.626   5.680   0.918  0.00  0.00    +0.013 A 
ATOM      7  C   UNL     1       1.872   5.947   0.390  0.00  0.00    +0.003 A 
ATOM      8  C   UNL     1       2.035   6.973  -0.524  0.00  0.00    +0.029 A 
ATOM      9  C   UNL     1       0.950   7.737  -0.915  0.00  0.00    +0.109 A 
ATOM     10  C   UNL     1      -0.302   7.481  -0.395  0.00  0.00    +0.041 A 
BRANCH   9  11
ATOM     11  S   UNL     1       1.168   9.042  -2.080  0.00  0.00    +0.074 S 
ATOM     12  O   UNL     1       0.029   9.884  -1.964  0.00  0.00    -0.150 OA
ATOM     13  O   UNL     1       2.493   9.524  -1.907  0.00  0.00    -0.150 OA
BRANCH  11  14
ATOM     14  N   UNL     1       1.104   8.365  -3.590  0.00  0.00    -0.206 N 
ATOM     15  C   UNL     1       2.337   7.934  -4.252  0.00  0.00    +0.157 C 
BRANCH  14  16
ATOM     16  C   UNL     1      -0.126   8.205  -4.232  0.00  0.00    +0.051 A 
ATOM     17  C   UNL     1      -1.097   7.379  -3.681  0.00  0.00    +0.025 A 
ATOM     18  C   UNL     1      -2.314   7.228  -4.316  0.00  0.00    +0.002 A 
ATOM     19  C   UNL     1      -2.563   7.889  -5.505  0.00  0.00    +0.000 A 
ATOM     20  C   UNL     1      -1.596   8.708  -6.059  0.00  0.00    +0.002 A 
ATOM     21  C   UNL     1      -0.379   8.868  -5.427  0.00  0.00    +0.025 A 
ENDBRANCH  14  16
ENDBRANCH  11  14
ENDBRANCH   9  11
ENDBRANCH   2   5
BRANCH   1  22
ATOM     22  C   UNL     1      -3.302   4.880   2.523  0.00  0.00    +0.094 C 
BRANCH  22  23
ATOM     23  C   UNL     1      -3.210   3.708   3.502  0.00  0.00    -0.021 C 
BRANCH  23  24
ATOM     24  C   UNL     1      -4.548   3.497   4.162  0.00  0.00    -0.056 A 
ATOM     25  C   UNL     1      -5.115   2.236   4.184  0.00  0.00    +0.006 A 
ATOM     26  C   UNL     1      -6.340   2.036   4.793  0.00  0.00    +0.049 A 
ATOM     27  C   UNL     1      -7.008   3.103   5.372  0.00  0.00    +0.161 A 
ATOM     28  C   UNL     1      -6.440   4.374   5.344  0.00  0.00    +0.162 A 
ATOM     29  C   UNL     1      -5.209   4.566   4.737  0.00  0.00    +0.051 A 
BRANCH  28  30
ATOM     30  O   UNL     1      -7.092   5.424   5.911  0.00  0.00    -0.491 OA
ATOM     31  C   UNL     1      -6.449   6.698   5.845  0.00  0.00    +0.277 C 
ENDBRANCH  28  30
BRANCH  27  32
ATOM     32  O   UNL     1      -8.216   2.910   5.966  0.00  0.00    -0.491 OA
ATOM     33  C   UNL     1      -8.737   1.579   5.957  0.00  0.00    +0.277 C 
ENDBRANCH  27  32
ENDBRANCH  23  24
BRANCH  23  36
ATOM     34  C   UNL     1      -2.584   5.181   5.319  0.00  0.00    -0.096 C 
ATOM     35  C   UNL     1      -1.969   2.840   5.392  0.00  0.00    -0.096 C 
ATOM     36  N   UNL     1      -2.175   4.011   4.514  0.00  0.00    +0.382 N 
ATOM     37  H   UNL     1      -1.294   4.228   4.034  0.00  0.00    -0.082 HD
ENDBRANCH  23  36
ENDBRANCH  22  23
ENDBRANCH   1  22
TORSDOF 10
