REMARK  Name = ZINC39929748
REMARK  7 active torsions:
REMARK  status: ('A' for Active; 'I' for Inactive)
REMARK    1  A    between atoms: C_3  and  N_37
REMARK    2  A    between atoms: C_6  and  C_7
REMARK    3  A    between atoms: C_7  and  C_8
REMARK    4  A    between atoms: C_11  and  N_14
REMARK    5  A    between atoms: N_14  and  C_15
REMARK    6  A    between atoms: N_19  and  C_31
REMARK    7  A    between atoms: N_22  and  C_25
REMARK                            x       y       z     vdW  Elec       q    Type
REMARK                         _______ _______ _______ _____ _____    ______ ____
ROOT
ATOM      1  C   UNL     1      -2.579  -2.828  -5.970  0.00  0.00    +0.090 C 
ATOM      2  C   UNL     1      -3.070  -3.108  -7.232  0.00  0.00    +0.113 C 
ATOM      3  C   UNL     1      -3.933  -2.153  -7.950  0.00  0.00    +0.261 C 
ATOM      4  O   UNL     1      -4.237  -1.087  -7.449  0.00  0.00    -0.269 OA
ATOM      5  N   UNL     1      -4.375  -2.493  -9.179  0.00  0.00    -0.218 N 
ATOM      6  C   UNL     1      -4.047  -3.664  -9.742  0.00  0.00    +0.318 C 
ATOM      7  O   UNL     1      -4.478  -3.910 -10.852  0.00  0.00    -0.252 OA
ATOM      8  N   UNL     1      -3.267  -4.578  -9.148  0.00  0.00    -0.218 N 
ATOM      9  C   UNL     1      -2.749  -4.371  -7.920  0.00  0.00    +0.261 C 
ATOM     10  O   UNL     1      -2.039  -5.207  -7.392  0.00  0.00    -0.269 OA
ENDROOT
BRANCH   8  11
ATOM     11  C   UNL     1      -2.967  -5.829  -9.850  0.00  0.00    +0.086 C 
ATOM     12  C   UNL     1      -3.475  -7.012  -9.024  0.00  0.00    +0.023 C 
ATOM     13  C   UNL     1      -3.162  -8.318  -9.757  0.00  0.00    +0.002 C 
ATOM     14  C   UNL     1      -1.649  -8.443  -9.952  0.00  0.00    +0.000 C 
ATOM     15  C   UNL     1      -1.142  -7.260 -10.778  0.00  0.00    +0.002 C 
ATOM     16  C   UNL     1      -1.455  -5.954 -10.045  0.00  0.00    +0.023 C 
ENDBRANCH   8  11
BRANCH   5  17
ATOM     17  C   UNL     1      -5.234  -1.561  -9.913  0.00  0.00    +0.086 C 
ATOM     18  C   UNL     1      -4.489  -0.242 -10.129  0.00  0.00    +0.023 C 
ATOM     19  C   UNL     1      -5.387   0.731 -10.896  0.00  0.00    +0.002 C 
ATOM     20  C   UNL     1      -6.662   0.991 -10.091  0.00  0.00    +0.000 C 
ATOM     21  C   UNL     1      -7.407  -0.328  -9.875  0.00  0.00    +0.002 C 
ATOM     22  C   UNL     1      -6.509  -1.301  -9.108  0.00  0.00    +0.023 C 
ENDBRANCH   5  17
BRANCH   1  23
ATOM     23  N   UNL     1      -3.024  -1.747  -5.297  0.00  0.00    -0.320 N 
ATOM     24  H   UNL     1      -3.712  -1.184  -5.684  0.00  0.00    +0.152 HD
BRANCH  23  28
ATOM     25  C   UNL     1      -1.442  -0.825  -1.556  0.00  0.00    -0.043 A 
ATOM     26  C   UNL     1      -2.423  -0.022  -2.107  0.00  0.00    +0.006 A 
ATOM     27  C   UNL     1      -2.950  -0.324  -3.348  0.00  0.00    +0.023 A 
ATOM     28  C   UNL     1      -2.493  -1.438  -4.042  0.00  0.00    +0.031 A 
ATOM     29  C   UNL     1      -1.507  -2.243  -3.485  0.00  0.00    +0.023 A 
ATOM     30  C   UNL     1      -0.981  -1.931  -2.247  0.00  0.00    +0.006 A 
BRANCH  25  31
ATOM     31  C   UNL     1      -0.870  -0.492  -0.203  0.00  0.00    +0.070 C 
BRANCH  31  37
ATOM     32  C   UNL     1       0.137   1.793  -0.377  0.00  0.00    +0.006 A 
ATOM     33  C   UNL     1       1.223   2.633  -0.530  0.00  0.00    +0.023 A 
ATOM     34  C   UNL     1       2.497   2.099  -0.678  0.00  0.00    +0.025 A 
ATOM     35  C   UNL     1       2.674   0.721  -0.672  0.00  0.00    +0.023 A 
ATOM     36  C   UNL     1       1.584  -0.113  -0.518  0.00  0.00    +0.006 A 
ATOM     37  C   UNL     1       0.317   0.422  -0.371  0.00  0.00    -0.043 A 
BRANCH  34  38
ATOM     38  N   UNL     1       3.597   2.945  -0.834  0.00  0.00    -0.358 N 
ATOM     39  H   UNL     1       3.472   3.907  -0.839  0.00  0.00    +0.142 HD
ATOM     40  H   UNL     1       4.486   2.571  -0.937  0.00  0.00    +0.142 HD
ENDBRANCH  34  38
ENDBRANCH  31  37
ENDBRANCH  25  31
ENDBRANCH  23  28
ENDBRANCH   1  23
TORSDOF 7
