REMARK  Name = ZINC41586179
REMARK  11 active torsions:
REMARK  status: ('A' for Active; 'I' for Inactive)
REMARK    1  A    between atoms: C_1  and  C_2
REMARK    2  A    between atoms: C_2  and  O_3
REMARK    3  A    between atoms: O_3  and  C_4
REMARK    4  A    between atoms: C_4  and  C_6
REMARK    5  A    between atoms: N_9  and  C_12
REMARK    6  A    between atoms: C_12  and  C_13
REMARK    7  A    between atoms: C_14  and  O_33
REMARK    8  A    between atoms: C_16  and  C_32
REMARK    9  A    between atoms: C_21  and  C_22
REMARK   10  A    between atoms: C_25  and  O_28
REMARK   11  A    between atoms: O_28  and  C_29
REMARK                            x       y       z     vdW  Elec       q    Type
REMARK                         _______ _______ _______ _____ _____    ______ ____
ROOT
ATOM      1  C   UNL     1       1.778  -6.167   5.938  0.00  0.00    +0.020 A 
ATOM      2  C   UNL     1       0.765  -6.741   6.690  0.00  0.00    +0.122 A 
ATOM      3  C   UNL     1       0.772  -8.106   6.962  0.00  0.00    +0.050 A 
ATOM      4  C   UNL     1       1.782  -8.895   6.488  0.00  0.00    -0.033 A 
ATOM      5  C   UNL     1       2.808  -8.331   5.729  0.00  0.00    +0.071 A 
ATOM      6  C   UNL     1       2.809  -6.956   5.444  0.00  0.00    +0.145 A 
ATOM      7  O   UNL     1       3.890  -6.647   4.695  0.00  0.00    -0.451 OA
ATOM      8  C   UNL     1       4.649  -7.737   4.434  0.00  0.00    +0.176 C 
ATOM      9  C   UNL     1       5.798  -7.759   3.710  0.00  0.00    +0.058 C 
ATOM     10  C   UNL     1       4.012  -8.889   5.087  0.00  0.00    +0.232 C 
ATOM     11  O   UNL     1       4.388 -10.049   5.087  0.00  0.00    -0.283 OA
ATOM     12  C   UNL     1       1.788 -10.373   6.784  0.00  0.00    +0.045 C 
ENDROOT
BRANCH   9  13
ATOM     13  C   UNL     1       6.423  -9.041   3.365  0.00  0.00    -0.021 A 
ATOM     14  C   UNL     1       5.628 -10.131   2.986  0.00  0.00    +0.011 A 
ATOM     15  C   UNL     1       6.220 -11.331   2.663  0.00  0.00    +0.046 A 
ATOM     16  C   UNL     1       7.603 -11.463   2.712  0.00  0.00    +0.120 A 
ATOM     17  C   UNL     1       8.396 -10.385   3.088  0.00  0.00    +0.046 A 
ATOM     18  C   UNL     1       7.816  -9.178   3.407  0.00  0.00    +0.011 A 
BRANCH  16  19
ATOM     19  O   UNL     1       8.181 -12.649   2.393  0.00  0.00    -0.495 OA
ATOM     20  C   UNL     1       9.606 -12.716   2.465  0.00  0.00    +0.277 C 
ENDBRANCH  16  19
ENDBRANCH   9  13
BRANCH   2  21
ATOM     21  O   UNL     1      -0.242  -5.966   7.166  0.00  0.00    -0.506 OA
ATOM     22  H   UNL     1      -0.997  -5.890   6.566  0.00  0.00    +0.292 HD
ENDBRANCH   2  21
BRANCH   1  23
ATOM     23  C   UNL     1       1.757  -4.687   5.652  0.00  0.00    -0.036 C 
BRANCH  23  27
ATOM     24  C   UNL     1       0.745  -3.370   1.729  0.00  0.00    +0.094 C 
ATOM     25  C   UNL     1       0.059  -2.728   2.939  0.00  0.00    -0.004 C 
ATOM     26  C   UNL     1       0.897  -2.993   4.192  0.00  0.00    -0.078 C 
ATOM     27  N   UNL     1       1.019  -4.439   4.407  0.00  0.00    +0.383 N 
ATOM     28  C   UNL     1       1.739  -5.051   3.283  0.00  0.00    -0.078 C 
ATOM     29  C   UNL     1       0.934  -4.866   1.995  0.00  0.00    -0.004 C 
ATOM     30  H   UNL     1       0.099  -4.847   4.477  0.00  0.00    -0.081 HD
BRANCH  24  31
ATOM     31  C   UNL     1      -0.113  -3.181   0.504  0.00  0.00    +0.310 C 
ATOM     32  O   UNL     1      -0.532  -4.143  -0.095  0.00  0.00    -0.251 OA
BRANCH  31  33
ATOM     33  O   UNL     1      -0.413  -1.943   0.080  0.00  0.00    -0.465 OA
BRANCH  33  35
ATOM     34  C   UNL     1      -1.464  -0.362  -1.416  0.00  0.00    +0.048 C 
ATOM     35  C   UNL     1      -1.231  -1.838  -1.087  0.00  0.00    +0.229 C 
ENDBRANCH  33  35
ENDBRANCH  31  33
ENDBRANCH  24  31
ENDBRANCH  23  27
ENDBRANCH   1  23
TORSDOF 8
