REMARK  Name = ZINC35316795
REMARK  6 active torsions:
REMARK  status: ('A' for Active; 'I' for Inactive)
REMARK    1  A    between atoms: C_1  and  C_2
REMARK    2  A    between atoms: C_2  and  C_14
REMARK    3  A    between atoms: C_4  and  C_7
REMARK    4  A    between atoms: C_14  and  N_16
REMARK    5  A    between atoms: C_20  and  C_23
REMARK    6  A    between atoms: N_21  and  C_22
REMARK                            x       y       z     vdW  Elec       q    Type
REMARK                         _______ _______ _______ _____ _____    ______ ____
ROOT
ATOM      1  C   UNL     1      -1.398  -0.559  -0.045  0.00  0.00    +0.286 C 
ATOM      2  O   UNL     1      -1.892  -0.875  -1.111  0.00  0.00    -0.269 OA
ENDROOT
BRANCH   1   3
ATOM      3  N   UNL     1      -2.093  -0.705   1.077  0.00  0.00    -0.143 NA
ATOM      4  C   UNL     1      -3.332  -1.196   1.035  0.00  0.00    +0.201 A 
ATOM      5  N   UNL     1      -3.995  -1.590  -0.081  0.00  0.00    -0.332 N 
ATOM      6  C   UNL     1      -5.245  -2.036   0.295  0.00  0.00    +0.112 A 
ATOM      7  C   UNL     1      -5.346  -1.916   1.631  0.00  0.00    +0.067 A 
ATOM      8  N   UNL     1      -4.147  -1.395   2.102  0.00  0.00    -0.315 N 
ATOM      9  C   UNL     1      -3.822  -1.108   3.502  0.00  0.00    +0.152 C 
ATOM     10  H   UNL     1      -3.651  -1.563  -0.988  0.00  0.00    +0.168 HD
BRANCH   7  11
ATOM     11  C   UNL     1      -6.521  -2.280   2.453  0.00  0.00    +0.000 A 
ATOM     12  C   UNL     1      -6.492  -2.096   3.835  0.00  0.00    +0.013 A 
ATOM     13  C   UNL     1      -7.591  -2.436   4.597  0.00  0.00    +0.039 A 
ATOM     14  C   UNL     1      -8.722  -2.959   3.991  0.00  0.00    +0.123 A 
ATOM     15  C   UNL     1      -8.756  -3.143   2.618  0.00  0.00    +0.039 A 
ATOM     16  C   UNL     1      -7.665  -2.801   1.847  0.00  0.00    +0.013 A 
ATOM     17  F   UNL     1      -9.796  -3.291   4.741  0.00  0.00    -0.205 F 
ENDBRANCH   7  11
ENDBRANCH   1   3
BRANCH   1  19
ATOM     18  C   UNL     1      -0.019   1.526   0.010  0.00  0.00    +0.069 C 
ATOM     19  C   UNL     1       0.002  -0.004   0.002  0.00  0.00    +0.218 C 
ATOM     20  C   UNL     1       0.851  -0.540  -1.175  0.00  0.00    +0.119 C 
ATOM     21  C   UNL     1       2.213  -0.737  -0.537  0.00  0.00    +0.094 C 
ATOM     22  N   UNL     1       2.066  -0.709   0.746  0.00  0.00    -0.088 NA
ATOM     23  O   UNL     1       0.723  -0.517   1.141  0.00  0.00    -0.377 OA
BRANCH  21  24
ATOM     24  C   UNL     1       3.487  -0.927  -1.257  0.00  0.00    +0.035 A 
ATOM     25  C   UNL     1       3.509  -0.932  -2.654  0.00  0.00    +0.012 A 
ATOM     26  C   UNL     1       4.702  -1.111  -3.321  0.00  0.00    +0.001 A 
ATOM     27  C   UNL     1       5.878  -1.286  -2.611  0.00  0.00    +0.003 A 
ATOM     28  C   UNL     1       5.866  -1.283  -1.229  0.00  0.00    +0.039 A 
ATOM     29  C   UNL     1       4.678  -1.099  -0.546  0.00  0.00    +0.132 A 
ATOM     30  F   UNL     1       4.667  -1.090   0.805  0.00  0.00    -0.205 F 
ENDBRANCH  21  24
ENDBRANCH   1  19
TORSDOF 4
