REMARK  Name = ZINC16618703
REMARK  9 active torsions:
REMARK  status: ('A' for Active; 'I' for Inactive)
REMARK    1  A    between atoms: C_1  and  C_2
REMARK    2  A    between atoms: C_3  and  C_32
REMARK    3  A    between atoms: N_4  and  C_25
REMARK    4  A    between atoms: C_5  and  N_9
REMARK    5  A    between atoms: C_6  and  C_7
REMARK    6  A    between atoms: C_10  and  C_12
REMARK    7  A    between atoms: C_12  and  N_13
REMARK    8  A    between atoms: C_15  and  C_21
REMARK    9  A    between atoms: C_25  and  C_26
REMARK                            x       y       z     vdW  Elec       q    Type
REMARK                         _______ _______ _______ _____ _____    ______ ____
ROOT
ATOM      1  N   UNL     1       2.662   1.886  -0.359  0.00  0.00    -0.269 N 
ATOM      2  C   UNL     1       3.006   0.703  -0.906  0.00  0.00    +0.238 C 
ATOM      3  O   UNL     1       2.145  -0.057  -1.298  0.00  0.00    -0.273 OA
ATOM      4  H   UNL     1       3.351   2.505  -0.071  0.00  0.00    +0.156 HD
ENDROOT
BRANCH   1   9
ATOM      5  C   UNL     1      -2.296   1.692   0.597  0.00  0.00    +0.047 C 
ATOM      6  C   UNL     1      -0.917   2.164   0.216  0.00  0.00    -0.011 A 
ATOM      7  C   UNL     1      -0.576   3.396  -0.195  0.00  0.00    +0.022 A 
ATOM      8  N   UNL     1       0.768   3.432  -0.453  0.00  0.00    -0.327 N 
ATOM      9  C   UNL     1       1.324   2.217  -0.207  0.00  0.00    +0.124 A 
ATOM     10  C   UNL     1       0.315   1.366   0.223  0.00  0.00    +0.095 A 
ATOM     11  C   UNL     1      -1.525   4.556  -0.352  0.00  0.00    +0.064 C 
BRANCH  10  12
ATOM     12  C   UNL     1       0.449  -0.011   0.593  0.00  0.00    +0.103 C 
ATOM     13  N   UNL     1       0.555  -1.103   0.886  0.00  0.00    -0.191 NA
ENDBRANCH  10  12
BRANCH   8  14
ATOM     14  C   UNL     1       1.501   4.609  -0.926  0.00  0.00    +0.158 C 
BRANCH  14  15
ATOM     15  C   UNL     1       1.589   4.574  -2.430  0.00  0.00    -0.028 A 
ATOM     16  C   UNL     1       2.645   3.929  -3.046  0.00  0.00    +0.005 A 
ATOM     17  C   UNL     1       2.724   3.893  -4.426  0.00  0.00    +0.000 A 
ATOM     18  C   UNL     1       1.751   4.511  -5.190  0.00  0.00    +0.000 A 
ATOM     19  C   UNL     1       0.697   5.160  -4.574  0.00  0.00    +0.000 A 
ATOM     20  C   UNL     1       0.616   5.192  -3.194  0.00  0.00    +0.005 A 
ENDBRANCH  14  15
ENDBRANCH   8  14
ENDBRANCH   1   9
BRANCH   2  21
ATOM     21  C   UNL     1       4.459   0.325  -1.033  0.00  0.00    +0.220 C 
BRANCH  21  22
ATOM     22  N   UNL     1       4.567  -0.997  -1.655  0.00  0.00    -0.305 N 
ATOM     23  C   UNL     1       4.655  -1.097  -3.007  0.00  0.00    +0.102 A 
ATOM     24  C   UNL     1       4.756  -2.307  -3.605  0.00  0.00    +0.073 A 
ATOM     25  C   UNL     1       4.771  -3.474  -2.827  0.00  0.00    +0.039 A 
ATOM     26  C   UNL     1       4.683  -3.371  -1.469  0.00  0.00    +0.106 A 
ATOM     27  C   UNL     1       4.584  -2.098  -0.880  0.00  0.00    +0.270 A 
ATOM     28  O   UNL     1       4.508  -1.991   0.333  0.00  0.00    -0.266 OA
ATOM     29 CL   UNL     1       4.699  -4.797  -0.479  0.00  0.00    -0.078 Cl
BRANCH  24  30
ATOM     30  C   UNL     1       4.853  -2.401  -5.106  0.00  0.00    +0.419 C 
ATOM     31  F   UNL     1       6.198  -2.474  -5.483  0.00  0.00    -0.166 F 
ATOM     32  F   UNL     1       4.182  -3.547  -5.546  0.00  0.00    -0.166 F 
ATOM     33  F   UNL     1       4.268  -1.268  -5.682  0.00  0.00    -0.166 F 
ENDBRANCH  24  30
ENDBRANCH  21  22
ENDBRANCH   2  21
TORSDOF 7
