REMARK  Name = ZINC07169932
REMARK  7 active torsions:
REMARK  status: ('A' for Active; 'I' for Inactive)
REMARK    1  A    between atoms: C_1  and  C_2
REMARK    2  A    between atoms: C_2  and  N_3
REMARK    3  A    between atoms: C_12  and  S_13
REMARK    4  A    between atoms: S_13  and  C_14
REMARK    5  A    between atoms: C_14  and  C_16
REMARK    6  A    between atoms: C_14  and  C_17
REMARK    7  A    between atoms: C_26  and  C_30
REMARK                            x       y       z     vdW  Elec       q    Type
REMARK                         _______ _______ _______ _____ _____    ______ ____
ROOT
ATOM      1  N   UNL     1      -0.704   1.998   1.216  0.00  0.00    -0.288 N 
ATOM      2  C   UNL     1      -2.034   2.206   1.181  0.00  0.00    +0.263 A 
ATOM      3  O   UNL     1      -2.664   2.004   0.157  0.00  0.00    -0.267 OA
ATOM      4  C   UNL     1      -2.698   2.663   2.363  0.00  0.00    +0.076 A 
ATOM      5  C   UNL     1      -4.122   2.946   2.551  0.00  0.00    -0.023 A 
ATOM      6  C   UNL     1      -4.504   3.375   3.771  0.00  0.00    -0.004 A 
ATOM      7  S   UNL     1      -3.014   3.426   4.729  0.00  0.00    -0.073 S 
ATOM      8  C   UNL     1      -1.877   2.869   3.485  0.00  0.00    +0.117 A 
ATOM      9  N   UNL     1      -0.568   2.651   3.452  0.00  0.00    -0.216 NA
ATOM     10  C   UNL     1       0.018   2.225   2.352  0.00  0.00    +0.173 A 
ATOM     11  C   UNL     1      -5.891   3.730   4.214  0.00  0.00    +0.046 C 
ATOM     12  C   UNL     1      -6.772   3.891   2.968  0.00  0.00    -0.009 C 
ATOM     13  C   UNL     1      -6.540   2.691   2.044  0.00  0.00    +0.008 C 
ATOM     14  C   UNL     1      -5.142   2.772   1.430  0.00  0.00    +0.037 C 
ATOM     15  C   UNL     1      -8.244   3.945   3.383  0.00  0.00    +0.008 C 
ENDROOT
BRANCH   1  17
ATOM     16  C   UNL     1       0.002  -0.004   0.002  0.00  0.00    +0.027 C 
ATOM     17  C   UNL     1      -0.019   1.526   0.010  0.00  0.00    +0.124 C 
ENDBRANCH   1  17
BRANCH  10  18
ATOM     18  S   UNL     1       1.758   1.945   2.345  0.00  0.00    -0.075 S 
BRANCH  18  19
ATOM     19  C   UNL     1       2.154   2.396   4.053  0.00  0.00    +0.137 C 
ATOM     20  C   UNL     1       1.481   1.411   5.010  0.00  0.00    +0.029 C 
BRANCH  19  21
ATOM     21  C   UNL     1       3.647   2.348   4.251  0.00  0.00    +0.236 C 
ATOM     22  O   UNL     1       4.340   1.712   3.486  0.00  0.00    -0.274 OA
ATOM     23  N   UNL     1       4.213   3.013   5.279  0.00  0.00    -0.224 N 
ATOM     24  C   UNL     1       5.651   3.048   5.583  0.00  0.00    +0.136 C 
ATOM     25  C   UNL     1       5.741   3.936   6.839  0.00  0.00    +0.125 C 
ATOM     26  N   UNL     1       4.344   4.307   7.109  0.00  0.00    -0.297 N 
ATOM     27  C   UNL     1       3.554   3.751   6.182  0.00  0.00    +0.309 C 
ATOM     28  O   UNL     1       2.348   3.898   6.164  0.00  0.00    -0.252 OA
ATOM     29  H   UNL     1       4.043   4.869   7.840  0.00  0.00    +0.150 HD
ENDBRANCH  19  21
ENDBRANCH  18  19
ENDBRANCH  10  18
TORSDOF 4
