REMARK  Name = ZINC34906815
REMARK  8 active torsions:
REMARK  status: ('A' for Active; 'I' for Inactive)
REMARK    1  A    between atoms: C_1  and  C_2
REMARK    2  A    between atoms: C_2  and  C_3
REMARK    3  A    between atoms: C_2  and  C_4
REMARK    4  A    between atoms: C_4  and  C_5
REMARK    5  A    between atoms: C_5  and  N_6
REMARK    6  A    between atoms: C_19  and  C_22
REMARK    7  A    between atoms: N_24  and  C_25
REMARK    8  A    between atoms: C_25  and  C_26
REMARK                            x       y       z     vdW  Elec       q    Type
REMARK                         _______ _______ _______ _____ _____    ______ ____
ROOT
ATOM      1  N   UNL     1      -3.545  -3.973  -0.619  0.00  0.00    -0.313 N 
ATOM      2  C   UNL     1      -4.066  -3.848   0.658  0.00  0.00    +0.068 A 
ATOM      3  C   UNL     1      -4.335  -4.746   1.679  0.00  0.00    +0.028 A 
ATOM      4  C   UNL     1      -4.870  -4.295   2.868  0.00  0.00    +0.002 A 
ATOM      5  C   UNL     1      -5.141  -2.946   3.050  0.00  0.00    +0.002 A 
ATOM      6  C   UNL     1      -4.879  -2.040   2.046  0.00  0.00    +0.028 A 
ATOM      7  C   UNL     1      -4.337  -2.481   0.837  0.00  0.00    +0.065 A 
ATOM      8  N   UNL     1      -3.979  -1.849  -0.312  0.00  0.00    -0.327 N 
ATOM      9  C   UNL     1      -3.507  -2.723  -1.166  0.00  0.00    +0.177 A 
ATOM     10  N   UNL     1      -3.046  -2.424  -2.431  0.00  0.00    -0.302 N 
ATOM     11  C   UNL     1      -1.642  -2.047  -2.646  0.00  0.00    +0.108 C 
ATOM     12  C   UNL     1      -1.599  -0.713  -3.397  0.00  0.00    +0.020 C 
ATOM     13  C   UNL     1      -2.422  -0.829  -4.682  0.00  0.00    +0.016 C 
ATOM     14  C   UNL     1      -3.879  -1.139  -4.330  0.00  0.00    +0.092 C 
ATOM     15  C   UNL     1      -3.947  -2.483  -3.590  0.00  0.00    +0.120 C 
ATOM     16  H   UNL     1      -4.056  -0.895  -0.472  0.00  0.00    +0.169 HD
ENDROOT
BRANCH  14  17
ATOM     17  C   UNL     1      -4.696  -1.220  -5.594  0.00  0.00    +0.218 C 
ATOM     18  O   UNL     1      -5.278  -2.246  -5.875  0.00  0.00    -0.275 OA
ATOM     19  N   UNL     1      -4.778  -0.152  -6.412  0.00  0.00    -0.311 N 
ATOM     20  H   UNL     1      -4.312   0.668  -6.188  0.00  0.00    +0.149 HD
BRANCH  19  21
ATOM     21  C   UNL     1      -5.572  -0.231  -7.641  0.00  0.00    +0.139 C 
BRANCH  21  22
ATOM     22  C   UNL     1      -5.501   1.086  -8.371  0.00  0.00    -0.030 A 
ATOM     23  C   UNL     1      -6.428   2.075  -8.103  0.00  0.00    +0.008 A 
ATOM     24  C   UNL     1      -6.364   3.283  -8.771  0.00  0.00    +0.038 A 
ATOM     25  C   UNL     1      -5.369   3.502  -9.709  0.00  0.00    +0.123 A 
ATOM     26  C   UNL     1      -4.440   2.511  -9.976  0.00  0.00    +0.038 A 
ATOM     27  C   UNL     1      -4.504   1.306  -9.303  0.00  0.00    +0.008 A 
ATOM     28  F   UNL     1      -5.305   4.683 -10.363  0.00  0.00    -0.205 F 
ENDBRANCH  21  22
ENDBRANCH  19  21
ENDBRANCH  14  17
BRANCH   1  29
ATOM     29  C   UNL     1      -3.109  -5.215  -1.262  0.00  0.00    +0.125 C 
BRANCH  29  30
ATOM     30  C   UNL     1      -1.665  -5.519  -0.858  0.00  0.00    +0.024 C 
BRANCH  30  32
ATOM     31  C   UNL     1       0.271  -7.055  -1.226  0.00  0.00    +0.007 C 
ATOM     32  C   UNL     1      -1.210  -6.817  -1.528  0.00  0.00    -0.016 C 
ATOM     33  C   UNL     1      -2.035  -7.987  -0.989  0.00  0.00    +0.007 C 
ENDBRANCH  30  32
ENDBRANCH  29  30
ENDBRANCH   1  29
TORSDOF 6
