REMARK  Name = ZINC21880749
REMARK  4 active torsions:
REMARK  status: ('A' for Active; 'I' for Inactive)
REMARK    1  A    between atoms: C_4  and  C_7
REMARK    2  A    between atoms: C_7  and  N_8
REMARK    3  A    between atoms: C_23  and  C_24
REMARK    4  A    between atoms: C_24  and  N_25
REMARK                            x       y       z     vdW  Elec       q    Type
REMARK                         _______ _______ _______ _____ _____    ______ ____
ROOT
ATOM      1  N   UNL     1       8.287   7.560  -5.791  0.00  0.00    -0.295 NA
ATOM      2  C   UNL     1       8.341   8.420  -4.601  0.00  0.00    +0.103 C 
ATOM      3  C   UNL     1       6.947   8.506  -3.974  0.00  0.00    +0.122 C 
ATOM      4  N   UNL     1       6.000   9.039  -4.963  0.00  0.00    -0.306 N 
ATOM      5  C   UNL     1       5.947   8.178  -6.153  0.00  0.00    +0.122 C 
ATOM      6  C   UNL     1       7.340   8.092  -6.780  0.00  0.00    +0.103 C 
ATOM      7  C   UNL     1       4.738   9.198  -4.407  0.00  0.00    +0.186 A 
ATOM      8  N   UNL     1       4.310   8.947  -3.178  0.00  0.00    -0.124 NA
ATOM      9  N   UNL     1       3.115   9.157  -2.833  0.00  0.00    -0.121 NA
ATOM     10  C   UNL     1       2.214   9.630  -3.676  0.00  0.00    +0.202 A 
ATOM     11  S   UNL     1       3.223   9.802  -5.146  0.00  0.00    -0.013 S 
ATOM     12  N   UNL     1       0.862   9.918  -3.477  0.00  0.00    -0.300 N 
ATOM     13  C   UNL     1       0.005  10.411  -4.420  0.00  0.00    +0.093 A 
ATOM     14  C   UNL     1      -1.207  10.562  -3.849  0.00  0.00    +0.020 A 
ATOM     15  C   UNL     1      -1.099  10.143  -2.508  0.00  0.00    +0.021 A 
ATOM     16  C   UNL     1       0.176   9.751  -2.308  0.00  0.00    +0.009 A 
ENDROOT
BRANCH   1  17
ATOM     17  C   UNL     1       9.623   7.391  -6.379  0.00  0.00    +0.119 C 
BRANCH  17  21
ATOM     18  C   UNL     1       9.485   4.353  -9.378  0.00  0.00    +0.000 A 
ATOM     19  C   UNL     1       9.248   5.671  -9.719  0.00  0.00    +0.000 A 
ATOM     20  C   UNL     1       9.293   6.654  -8.748  0.00  0.00    +0.005 A 
ATOM     21  C   UNL     1       9.574   6.319  -7.437  0.00  0.00    -0.033 A 
ATOM     22  C   UNL     1       9.816   5.001  -7.097  0.00  0.00    +0.005 A 
ATOM     23  C   UNL     1       9.767   4.017  -8.067  0.00  0.00    +0.000 A 
ENDBRANCH  17  21
ENDBRANCH   1  17
BRANCH  16  24
ATOM     24  C   UNL     1       0.746   9.225  -1.016  0.00  0.00    -0.024 C 
BRANCH  24  25
ATOM     25  N   UNL     1       0.704   7.756  -1.024  0.00  0.00    +0.385 N 
ATOM     26  C   UNL     1       1.462   7.202   0.107  0.00  0.00    -0.059 C 
ATOM     27  C   UNL     1       1.460   5.674   0.018  0.00  0.00    +0.088 C 
ATOM     28  N   UNL     1       0.073   5.187   0.028  0.00  0.00    -0.319 N 
ATOM     29  C   UNL     1      -0.685   5.742  -1.102  0.00  0.00    +0.088 C 
ATOM     30  C   UNL     1      -0.683   7.270  -1.014  0.00  0.00    -0.059 C 
ATOM     31  C   UNL     1       0.033   3.798   0.021  0.00  0.00    +0.121 A 
ATOM     32  C   UNL     1      -1.195   3.144   0.029  0.00  0.00    +0.043 A 
ATOM     33  C   UNL     1      -1.221   1.761   0.017  0.00  0.00    +0.005 A 
ATOM     34  C   UNL     1      -0.013   1.076   0.008  0.00  0.00    +0.020 A 
ATOM     35  C   UNL     1       1.169   1.789   0.001  0.00  0.00    +0.113 A 
ATOM     36  N   UNL     1       1.163   3.109   0.007  0.00  0.00    -0.240 NA
ATOM     37  H   UNL     1       1.179   7.410  -1.953  0.00  0.00    -0.081 HD
ENDBRANCH  24  25
ENDBRANCH  16  24
TORSDOF 4
