REMARK  Name = ZINC40059629
REMARK  8 active torsions:
REMARK  status: ('A' for Active; 'I' for Inactive)
REMARK    1  A    between atoms: C_1  and  C_2
REMARK    2  A    between atoms: C_2  and  C_3
REMARK    3  A    between atoms: C_2  and  C_4
REMARK    4  A    between atoms: C_2  and  C_5
REMARK    5  A    between atoms: N_13  and  C_14
REMARK    6  A    between atoms: C_14  and  C_15
REMARK    7  A    between atoms: C_15  and  C_17
REMARK    8  A    between atoms: C_15  and  O_24
REMARK                            x       y       z     vdW  Elec       q    Type
REMARK                         _______ _______ _______ _____ _____    ______ ____
ROOT
ATOM      1  C   UNL     1       0.707  -0.490  -1.238  0.00  0.00    +0.068 A 
ATOM      2  C   UNL     1       2.036  -0.472  -1.446  0.00  0.00    +0.139 A 
ATOM      3  N   UNL     1       2.274  -1.006  -2.706  0.00  0.00    -0.212 N 
ATOM      4  C   UNL     1       1.036  -1.321  -3.194  0.00  0.00    +0.197 A 
ATOM      5  N   UNL     1       0.118  -1.020  -2.320  0.00  0.00    -0.224 NA
ATOM      6  S   UNL     1       1.413  -1.993  -4.795  0.00  0.00    -0.013 S 
ATOM      7  C   UNL     1       3.188  -1.812  -4.716  0.00  0.00    +0.182 A 
ATOM      8  N   UNL     1       3.357  -1.280  -3.535  0.00  0.00    -0.142 NA
ATOM      9  N   UNL     1       4.141  -2.150  -5.663  0.00  0.00    -0.319 N 
ATOM     10  H   UNL     1       5.081  -1.994  -5.483  0.00  0.00    +0.148 HD
ENDROOT
BRANCH   1  12
ATOM     11  C   UNL     1      -0.019   1.526   0.010  0.00  0.00    +0.017 C 
ATOM     12  C   UNL     1       0.002  -0.004   0.002  0.00  0.00    +0.006 C 
ATOM     13  C   UNL     1       0.742  -0.511   1.242  0.00  0.00    +0.017 C 
ATOM     14  C   UNL     1      -1.433  -0.534   0.013  0.00  0.00    +0.017 C 
ENDBRANCH   1  12
BRANCH   9  15
ATOM     15  C   UNL     1       3.729  -2.743  -6.938  0.00  0.00    +0.139 C 
BRANCH  15  16
ATOM     16  C   UNL     1       4.966  -3.018  -7.796  0.00  0.00    +0.161 C 
BRANCH  16  17
ATOM     17  C   UNL     1       4.535  -3.513  -9.153  0.00  0.00    -0.018 A 
ATOM     18  C   UNL     1       4.161  -4.833  -9.320  0.00  0.00    +0.007 A 
ATOM     19  C   UNL     1       3.767  -5.288 -10.564  0.00  0.00    +0.020 A 
ATOM     20  C   UNL     1       3.746  -4.421 -11.643  0.00  0.00    +0.041 A 
ATOM     21  C   UNL     1       4.121  -3.100 -11.475  0.00  0.00    +0.020 A 
ATOM     22  C   UNL     1       4.510  -2.645 -10.229  0.00  0.00    +0.007 A 
ATOM     23 CL   UNL     1       3.251  -4.992 -13.206  0.00  0.00    -0.084 Cl
ENDBRANCH  16  17
BRANCH  16  24
ATOM     24  O   UNL     1       5.774  -4.011  -7.161  0.00  0.00    -0.386 OA
ATOM     25  H   UNL     1       5.326  -4.857  -7.027  0.00  0.00    +0.210 HD
ENDBRANCH  16  24
ENDBRANCH  15  16
ENDBRANCH   9  15
TORSDOF 5
