REMARK  Name = ZINC03338825
REMARK  8 active torsions:
REMARK  status: ('A' for Active; 'I' for Inactive)
REMARK    1  A    between atoms: C_1  and  O_2
REMARK    2  A    between atoms: O_2  and  C_3
REMARK    3  A    between atoms: C_6  and  C_9
REMARK    4  A    between atoms: N_10  and  N_11
REMARK    5  A    between atoms: C_12  and  C_25
REMARK    6  A    between atoms: N_16  and  C_17
REMARK    7  A    between atoms: C_28  and  O_31
REMARK    8  A    between atoms: O_31  and  C_32
REMARK                            x       y       z     vdW  Elec       q    Type
REMARK                         _______ _______ _______ _____ _____    ______ ____
ROOT
ATOM      1  N   UNL     1       3.792  -1.199   5.215  0.00  0.00    -0.209 N 
ATOM      2  C   UNL     1       5.003  -1.835   5.213  0.00  0.00    +0.082 A 
ATOM      3  C   UNL     1       5.584  -2.161   4.040  0.00  0.00    +0.077 A 
ATOM      4  S   UNL     1       4.396  -1.559   2.851  0.00  0.00    -0.058 S 
ATOM      5  C   UNL     1       3.195  -0.915   4.005  0.00  0.00    +0.173 A 
ATOM      6  N   UNL     1       2.042  -0.322   3.763  0.00  0.00    -0.332 N 
ATOM      7  H   UNL     1       1.455   0.097   4.594  0.00  0.00    +0.168 HD
ENDROOT
BRANCH   6   8
ATOM      8  C   UNL     1       1.577  -0.228   2.480  0.00  0.00    +0.077 A 
ATOM      9  C   UNL     1       1.983   0.829   1.662  0.00  0.00    +0.031 A 
ATOM     10  C   UNL     1       1.515   0.915   0.367  0.00  0.00    +0.040 A 
ATOM     11  C   UNL     1       0.634  -0.037  -0.120  0.00  0.00    +0.126 A 
ATOM     12  C   UNL     1       0.222  -1.086   0.687  0.00  0.00    +0.078 A 
ATOM     13  C   UNL     1       0.688  -1.187   1.983  0.00  0.00    +0.149 A 
ATOM     14  F   UNL     1       0.286  -2.209   2.769  0.00  0.00    -0.203 F 
ATOM     15  F   UNL     1       0.175   0.057  -1.387  0.00  0.00    -0.205 F 
ENDBRANCH   6   8
BRANCH   2  16
ATOM     16  C   UNL     1       5.673  -2.162   6.491  0.00  0.00    +0.001 A 
ATOM     17  C   UNL     1       4.912  -2.457   7.623  0.00  0.00    +0.013 A 
ATOM     18  C   UNL     1       5.540  -2.768   8.811  0.00  0.00    +0.046 A 
ATOM     19  C   UNL     1       6.926  -2.776   8.884  0.00  0.00    +0.127 A 
ATOM     20  C   UNL     1       7.686  -2.477   7.761  0.00  0.00    +0.046 A 
ATOM     21  C   UNL     1       7.066  -2.171   6.568  0.00  0.00    +0.013 A 
BRANCH  19  22
ATOM     22  O   UNL     1       7.542  -3.077  10.058  0.00  0.00    -0.434 OA
BRANCH  22  23
ATOM     23  C   UNL     1       6.700  -3.375  11.174  0.00  0.00    +0.541 C 
ATOM     24  F   UNL     1       5.884  -2.273  11.450  0.00  0.00    -0.166 F 
ATOM     25  F   UNL     1       5.901  -4.483  10.873  0.00  0.00    -0.166 F 
ENDBRANCH  22  23
ENDBRANCH  19  22
ENDBRANCH   2  16
BRANCH   1  27
ATOM     26  C   UNL     1       2.754   0.366   6.608  0.00  0.00    +0.141 C 
ATOM     27  N   UNL     1       3.168  -0.850   6.420  0.00  0.00    -0.172 NA
BRANCH  26  31
ATOM     28  C   UNL     1       4.384   3.543   4.312  0.00  0.00    +0.120 A 
ATOM     29  C   UNL     1       3.280   3.771   5.124  0.00  0.00    +0.046 A 
ATOM     30  C   UNL     1       2.744   2.742   5.867  0.00  0.00    +0.013 A 
ATOM     31  C   UNL     1       3.320   1.469   5.811  0.00  0.00    -0.005 A 
ATOM     32  C   UNL     1       4.433   1.246   4.996  0.00  0.00    +0.013 A 
ATOM     33  C   UNL     1       4.959   2.280   4.253  0.00  0.00    +0.046 A 
BRANCH  28  35
ATOM     34  C   UNL     1       4.332   5.856   3.763  0.00  0.00    +0.277 C 
ATOM     35  O   UNL     1       4.906   4.560   3.578  0.00  0.00    -0.495 OA
ENDBRANCH  28  35
ENDBRANCH  26  31
ENDBRANCH   1  27
TORSDOF 7
