REMARK  Name = ZINC12076300
REMARK  10 active torsions:
REMARK  status: ('A' for Active; 'I' for Inactive)
REMARK    1  A    between atoms: C_1  and  C_2
REMARK    2  A    between atoms: C_5  and  O_29
REMARK    3  A    between atoms: C_11  and  C_12
REMARK    4  A    between atoms: C_12  and  N_53
REMARK    5  A    between atoms: C_13  and  C_15
REMARK    6  A    between atoms: C_13  and  C_16
REMARK    7  A    between atoms: C_13  and  N_53
REMARK    8  A    between atoms: N_19  and  C_22
REMARK    9  A    between atoms: C_20  and  C_21
REMARK   10  A    between atoms: O_29  and  C_30
REMARK                            x       y       z     vdW  Elec       q    Type
REMARK                         _______ _______ _______ _____ _____    ______ ____
ROOT
ATOM      1  N   UNL     1       3.386   2.963   0.012  0.00  0.00    +0.387 N 
ATOM      2  H   UNL     1       3.494   3.611  -0.778  0.00  0.00    -0.085 HD
ATOM      3  H   UNL     1       2.991   3.466   0.815  0.00  0.00    -0.085 HD
ENDROOT
BRANCH   1   4
ATOM      4  C   UNL     1       2.473   1.872  -0.376  0.00  0.00    -0.040 C 
ATOM      5  C   UNL     1       2.677   1.536  -1.855  0.00  0.00    -0.009 C 
BRANCH   4   6
ATOM      6  C   UNL     1       1.050   2.315  -0.153  0.00  0.00    -0.021 A 
ATOM      7  C   UNL     1       0.593   3.637  -0.136  0.00  0.00    +0.137 A 
ATOM      8  N   UNL     1      -0.697   3.622   0.085  0.00  0.00    -0.174 NA
ATOM      9  N   UNL     1      -1.104   2.287   0.210  0.00  0.00    -0.237 N 
ATOM     10  C   UNL     1      -0.011   1.504   0.066  0.00  0.00    +0.043 A 
ATOM     11  C   UNL     1       0.019  -0.001   0.130  0.00  0.00    +0.066 C 
BRANCH   9  12
ATOM     12  C   UNL     1      -2.412   1.842   0.447  0.00  0.00    +0.068 A 
ATOM     13  C   UNL     1      -3.479   2.433  -0.217  0.00  0.00    +0.028 A 
ATOM     14  C   UNL     1      -4.766   1.990   0.013  0.00  0.00    +0.005 A 
ATOM     15  C   UNL     1      -4.997   0.965   0.912  0.00  0.00    +0.038 A 
ATOM     16  C   UNL     1      -3.936   0.377   1.581  0.00  0.00    +0.125 A 
ATOM     17  C   UNL     1      -2.644   0.813   1.349  0.00  0.00    +0.066 A 
ATOM     18  F   UNL     1      -4.164  -0.624   2.459  0.00  0.00    -0.205 F 
ENDBRANCH   9  12
ENDBRANCH   4   6
ENDBRANCH   1   4
BRANCH   1  19
ATOM     19  C   UNL     1       4.707   2.419   0.379  0.00  0.00    -0.027 C 
BRANCH  19  30
ATOM     20  C   UNL     1       4.723   3.846   3.135  0.00  0.00    +0.046 C 
ATOM     21  C   UNL     1       5.617   4.166   1.966  0.00  0.00    -0.024 A 
ATOM     22  C   UNL     1       6.651   5.203   1.917  0.00  0.00    +0.006 A 
ATOM     23  C   UNL     1       7.117   6.150   2.832  0.00  0.00    +0.056 A 
ATOM     24  C   UNL     1       8.134   7.008   2.466  0.00  0.00    +0.121 A 
ATOM     25  C   UNL     1       8.693   6.932   1.192  0.00  0.00    +0.047 A 
ATOM     26  C   UNL     1       8.242   6.002   0.283  0.00  0.00    +0.030 A 
ATOM     27  C   UNL     1       7.217   5.128   0.632  0.00  0.00    +0.047 A 
ATOM     28  N   UNL     1       6.570   4.111  -0.038  0.00  0.00    -0.359 N 
ATOM     29  H   UNL     1       6.761   3.834  -0.948  0.00  0.00    +0.166 HD
ATOM     30  C   UNL     1       5.617   3.555   0.770  0.00  0.00    +0.003 A 
BRANCH  24  31
ATOM     31  O   UNL     1       8.592   7.933   3.352  0.00  0.00    -0.495 OA
ATOM     32  C   UNL     1       9.646   8.790   2.909  0.00  0.00    +0.277 C 
ENDBRANCH  24  31
ENDBRANCH  19  30
ENDBRANCH   1  19
TORSDOF 6
