REMARK  Name = ZINC10067050
REMARK  10 active torsions:
REMARK  status: ('A' for Active; 'I' for Inactive)
REMARK    1  A    between atoms: C_1  and  C_2
REMARK    2  A    between atoms: C_2  and  N_63
REMARK    3  A    between atoms: C_3  and  C_4
REMARK    4  A    between atoms: C_3  and  N_63
REMARK    5  A    between atoms: C_5  and  C_6
REMARK    6  A    between atoms: C_5  and  N_63
REMARK    7  A    between atoms: C_6  and  N_7
REMARK    8  A    between atoms: C_12  and  O_17
REMARK    9  A    between atoms: O_17  and  C_18
REMARK   10  A    between atoms: C_19  and  C_21
REMARK                            x       y       z     vdW  Elec       q    Type
REMARK                         _______ _______ _______ _____ _____    ______ ____
ROOT
ATOM      1  N   UNL     1      -1.969  -1.582   0.247  0.00  0.00    -0.248 N 
ATOM      2  C   UNL     1      -1.937  -0.401  -0.474  0.00  0.00    +0.168 A 
ATOM      3  N   UNL     1      -0.920   0.396  -0.705  0.00  0.00    -0.224 NA
ATOM      4  C   UNL     1      -1.035   1.528  -1.433  0.00  0.00    +0.084 A 
ATOM      5  C   UNL     1      -0.026   2.466  -1.753  0.00  0.00    +0.074 A 
ATOM      6  C   UNL     1      -0.314   3.575  -2.512  0.00  0.00    +0.122 A 
ATOM      7  C   UNL     1      -1.600   3.813  -2.988  0.00  0.00    +0.047 A 
ATOM      8  C   UNL     1      -2.607   2.914  -2.692  0.00  0.00    +0.021 A 
ATOM      9  C   UNL     1      -2.327   1.804  -1.935  0.00  0.00    +0.041 A 
ATOM     10  S   UNL     1      -3.271   0.427  -1.328  0.00  0.00    -0.052 S 
ATOM     11  C   UNL     1      -0.844  -2.050   0.824  0.00  0.00    +0.259 C 
ATOM     12  O   UNL     1       0.227  -1.528   0.579  0.00  0.00    -0.269 OA
ENDROOT
BRANCH  11  13
ATOM     13  C   UNL     1      -0.912  -3.190   1.750  0.00  0.00    +0.122 A 
ATOM     14  C   UNL     1      -1.930  -4.131   1.644  0.00  0.00    +0.032 A 
ATOM     15  C   UNL     1      -1.951  -5.209   2.549  0.00  0.00    +0.026 A 
ATOM     16  C   UNL     1      -3.001  -6.228   2.470  0.00  0.00    -0.007 A 
ATOM     17  C   UNL     1      -4.005  -6.169   1.500  0.00  0.00    +0.009 A 
ATOM     18  C   UNL     1      -4.965  -7.139   1.463  0.00  0.00    +0.001 A 
ATOM     19  C   UNL     1      -4.957  -8.186   2.378  0.00  0.00    +0.001 A 
ATOM     20  C   UNL     1      -3.991  -8.272   3.336  0.00  0.00    +0.008 A 
ATOM     21  C   UNL     1      -2.989  -7.291   3.402  0.00  0.00    -0.017 A 
ATOM     22  C   UNL     1      -1.975  -7.346   4.379  0.00  0.00    +0.012 A 
ATOM     23  C   UNL     1      -1.009  -6.397   4.440  0.00  0.00    +0.047 A 
ATOM     24  C   UNL     1      -0.970  -5.322   3.544  0.00  0.00    +0.140 A 
ATOM     25  O   UNL     1       0.013  -4.403   3.647  0.00  0.00    -0.422 OA
ATOM     26  C   UNL     1       0.088  -3.356   2.809  0.00  0.00    +0.350 A 
ATOM     27  O   UNL     1       0.987  -2.544   2.928  0.00  0.00    -0.244 OA
ENDBRANCH  11  13
BRANCH   6  28
ATOM     28  O   UNL     1       0.678   4.458  -2.804  0.00  0.00    -0.495 OA
ATOM     29  C   UNL     1       0.324   5.593  -3.596  0.00  0.00    +0.277 C 
ENDBRANCH   6  28
BRANCH   1  30
ATOM     30  C   UNL     1      -3.225  -2.324   0.382  0.00  0.00    +0.097 C 
BRANCH  30  31
ATOM     31  C   UNL     1      -3.455  -3.171  -0.871  0.00  0.00    -0.059 C 
BRANCH  31  32
ATOM     32  N   UNL     1      -4.713  -3.929  -0.710  0.00  0.00    +0.380 N 
ATOM     33  H   UNL     1      -4.690  -4.428   0.187  0.00  0.00    -0.082 HD
BRANCH  32  35
ATOM     34  C   UNL     1      -6.075  -2.414  -2.110  0.00  0.00    -0.017 C 
ATOM     35  C   UNL     1      -5.865  -3.002  -0.714  0.00  0.00    -0.082 C 
ENDBRANCH  32  35
BRANCH  32  36
ATOM     36  C   UNL     1      -4.854  -4.913  -1.804  0.00  0.00    -0.082 C 
ATOM     37  C   UNL     1      -6.205  -5.619  -1.670  0.00  0.00    -0.017 C 
ENDBRANCH  32  36
ENDBRANCH  31  32
ENDBRANCH  30  31
ENDBRANCH   1  30
TORSDOF 7
