REMARK  Name = ZINC45561716
REMARK  5 active torsions:
REMARK  status: ('A' for Active; 'I' for Inactive)
REMARK    1  A    between atoms: C_7  and  N_25
REMARK    2  A    between atoms: C_9  and  C_11
REMARK    3  A    between atoms: C_11  and  O_12
REMARK    4  A    between atoms: O_12  and  C_13
REMARK    5  A    between atoms: C_13  and  C_15
REMARK                            x       y       z     vdW  Elec       q    Type
REMARK                         _______ _______ _______ _____ _____    ______ ____
ROOT
ATOM      1  C   UNL     1       4.952  -2.612  -0.057  0.00  0.00    +0.308 C 
ENDROOT
BRANCH   1  10
ATOM      2  C   UNL     1      -0.016   1.360   0.009  0.00  0.00    +0.001 A 
ATOM      3  C   UNL     1       1.168   2.091   0.002  0.00  0.00    +0.002 A 
ATOM      4  C   UNL     1       2.380   1.466  -0.013  0.00  0.00    +0.028 A 
ATOM      5  C   UNL     1       2.436   0.065  -0.021  0.00  0.00    +0.076 A 
ATOM      6  C   UNL     1       1.229  -0.676  -0.013  0.00  0.00    +0.040 A 
ATOM      7  C   UNL     1       0.002  -0.004   0.002  0.00  0.00    +0.013 A 
ATOM      8  C   UNL     1       1.313  -2.090  -0.021  0.00  0.00    +0.128 A 
ATOM      9  N   UNL     1       2.518  -2.646  -0.035  0.00  0.00    -0.214 NA
ATOM     10  C   UNL     1       3.618  -1.911  -0.042  0.00  0.00    +0.169 A 
ATOM     11  N   UNL     1       3.600  -0.599  -0.035  0.00  0.00    -0.228 NA
BRANCH   8  12
ATOM     12  N   UNL     1       0.175  -2.867  -0.014  0.00  0.00    -0.343 N 
ATOM     13  H   UNL     1      -0.699  -2.447  -0.003  0.00  0.00    +0.144 HD
ATOM     14  H   UNL     1       0.248  -3.834  -0.019  0.00  0.00    +0.144 HD
ENDBRANCH   8  12
ENDBRANCH   1  10
BRANCH   1  15
ATOM     15  O   UNL     1       5.361  -2.828  -1.409  0.00  0.00    -0.457 OA
BRANCH  15  16
ATOM     16  C   UNL     1       6.537  -3.447  -1.599  0.00  0.00    +0.311 C 
ATOM     17  O   UNL     1       7.197  -3.794  -0.648  0.00  0.00    -0.251 OA
BRANCH  16  18
ATOM     18  C   UNL     1       7.034  -3.708  -2.997  0.00  0.00    +0.104 C 
ATOM     19  C   UNL     1       6.028  -4.591  -3.739  0.00  0.00    +0.004 C 
ATOM     20  C   UNL     1       6.533  -4.857  -5.159  0.00  0.00    +0.008 C 
ATOM     21  C   UNL     1       7.886  -5.568  -5.094  0.00  0.00    -0.010 C 
ATOM     22  C   UNL     1       7.728  -6.897  -4.352  0.00  0.00    +0.007 C 
ATOM     23  C   UNL     1       7.223  -6.631  -2.932  0.00  0.00    -0.010 C 
ATOM     24  C   UNL     1       5.871  -5.920  -2.997  0.00  0.00    +0.008 C 
ATOM     25  C   UNL     1       8.229  -5.749  -2.190  0.00  0.00    +0.008 C 
ATOM     26  C   UNL     1       8.387  -4.420  -2.933  0.00  0.00    +0.004 C 
ATOM     27  C   UNL     1       8.891  -4.686  -4.352  0.00  0.00    +0.008 C 
ENDBRANCH  16  18
ENDBRANCH  15  16
ENDBRANCH   1  15
TORSDOF 5
