REMARK  Name = ZINC33058905
REMARK  7 active torsions:
REMARK  status: ('A' for Active; 'I' for Inactive)
REMARK    1  A    between atoms: C_1  and  C_2
REMARK    2  A    between atoms: C_3  and  S_16
REMARK    3  A    between atoms: C_4  and  C_7
REMARK    4  A    between atoms: C_8  and  C_9
REMARK    5  A    between atoms: S_16  and  N_19
REMARK    6  A    between atoms: C_22  and  C_25
REMARK    7  A    between atoms: N_27  and  C_28
REMARK                            x       y       z     vdW  Elec       q    Type
REMARK                         _______ _______ _______ _____ _____    ______ ____
ROOT
ATOM      1  N   UNL     1       5.768  -4.455   1.488  0.00  0.00    -0.176 NA
ATOM      2  C   UNL     1       5.646  -3.182   2.210  0.00  0.00    +0.110 C 
ATOM      3  C   UNL     1       4.874  -3.432   3.514  0.00  0.00    +0.030 C 
ATOM      4  C   UNL     1       5.571  -4.540   4.308  0.00  0.00    +0.077 C 
ATOM      5  C   UNL     1       5.568  -5.834   3.491  0.00  0.00    +0.030 C 
ATOM      6  C   UNL     1       6.342  -5.612   2.188  0.00  0.00    +0.110 C 
ENDROOT
BRANCH   4   7
ATOM      7  C   UNL     1       4.839  -4.763   5.606  0.00  0.00    +0.217 C 
ATOM      8  O   UNL     1       4.362  -5.851   5.854  0.00  0.00    -0.275 OA
ATOM      9  N   UNL     1       4.714  -3.755   6.492  0.00  0.00    -0.308 N 
ATOM     10  H   UNL     1       5.146  -2.769   6.267  0.00  0.00    +0.149 HD
BRANCH   9  11
ATOM     11  C   UNL     1       4.003  -3.973   7.754  0.00  0.00    +0.103 C 
ATOM     12  C   UNL     1       4.516  -2.984   8.799  0.00  0.00    +0.027 C 
ATOM     13  C   UNL     1       3.617  -3.079  10.037  0.00  0.00    +0.007 C 
ATOM     14  C   UNL     1       2.251  -2.493   9.686  0.00  0.00    +0.035 C 
ATOM     15  C   UNL     1       1.720  -3.110   8.419  0.00  0.00    -0.042 A 
ATOM     16  C   UNL     1       2.525  -3.785   7.530  0.00  0.00    -0.024 A 
ATOM     17  C   UNL     1       1.973  -4.326   6.375  0.00  0.00    +0.006 A 
ATOM     18  C   UNL     1       0.624  -4.193   6.114  0.00  0.00    +0.000 A 
ATOM     19  C   UNL     1      -0.184  -3.517   7.009  0.00  0.00    +0.000 A 
ATOM     20  C   UNL     1       0.363  -2.979   8.155  0.00  0.00    +0.004 A 
ENDBRANCH   9  11
ENDBRANCH   4   7
BRANCH   1  21
ATOM     21  S   UNL     1       5.275  -4.583  -0.088  0.00  0.00    +0.066 S 
ATOM     22  O   UNL     1       6.003  -5.663  -0.656  0.00  0.00    -0.153 OA
ATOM     23  O   UNL     1       5.311  -3.271  -0.632  0.00  0.00    -0.153 OA
BRANCH  21  26
ATOM     24  C   UNL     1       3.841  -7.665  -0.078  0.00  0.00    +0.071 C 
ATOM     25  C   UNL     1       3.056  -6.378  -0.064  0.00  0.00    +0.107 A 
ATOM     26  C   UNL     1       3.582  -5.072  -0.066  0.00  0.00    +0.174 A 
ATOM     27  C   UNL     1       2.468  -4.269  -0.045  0.00  0.00    +0.187 A 
ATOM     28  O   UNL     1       1.409  -5.101  -0.041  0.00  0.00    -0.353 OA
ATOM     29  N   UNL     1       1.758  -6.258  -0.051  0.00  0.00    -0.081 NA
BRANCH  27  30
ATOM     30  C   UNL     1       2.437  -2.804  -0.037  0.00  0.00    +0.052 C 
ATOM     31  C   UNL     1       1.257  -2.154  -0.022  0.00  0.00    +0.014 C 
BRANCH  31  32
ATOM     32  C   UNL     1       1.227  -0.683  -0.013  0.00  0.00    +0.010 A 
ATOM     33  C   UNL     1       2.420   0.045  -0.021  0.00  0.00    +0.011 A 
ATOM     34  C   UNL     1       2.384   1.423  -0.013  0.00  0.00    +0.001 A 
ATOM     35  C   UNL     1       1.170   2.088   0.002  0.00  0.00    +0.003 A 
ATOM     36  C   UNL     1      -0.017   1.378   0.010  0.00  0.00    +0.039 A 
ATOM     37  C   UNL     1       0.002  -0.004   0.002  0.00  0.00    +0.131 A 
ATOM     38  F   UNL     1      -1.157  -0.698   0.009  0.00  0.00    -0.205 F 
ENDBRANCH  31  32
ENDBRANCH  27  30
ENDBRANCH  21  26
ENDBRANCH   1  21
TORSDOF 6
