REMARK  Name = ZINC24202542
REMARK  12 active torsions:
REMARK  status: ('A' for Active; 'I' for Inactive)
REMARK    1  A    between atoms: C_1  and  C_2
REMARK    2  A    between atoms: C_6  and  C_14
REMARK    3  A    between atoms: C_12  and  C_13
REMARK    4  A    between atoms: C_14  and  O_15
REMARK    5  A    between atoms: O_15  and  C_16
REMARK    6  A    between atoms: C_16  and  C_18
REMARK    7  A    between atoms: C_21  and  S_24
REMARK    8  A    between atoms: S_24  and  N_27
REMARK    9  A    between atoms: N_27  and  C_28
REMARK   10  A    between atoms: C_28  and  C_29
REMARK   11  A    between atoms: C_28  and  C_30
REMARK   12  A    between atoms: C_28  and  C_31
REMARK                            x       y       z     vdW  Elec       q    Type
REMARK                         _______ _______ _______ _____ _____    ______ ____
ROOT
ATOM      1  C   UNL     1      -2.122   4.247   4.694  0.00  0.00    +0.339 C 
ATOM      2  O   UNL     1      -3.101   3.926   5.338  0.00  0.00    -0.245 OA
ENDROOT
BRANCH   1   3
ATOM      3  C   UNL     1      -1.706   3.439   3.530  0.00  0.00    +0.059 A 
ATOM      4  C   UNL     1      -2.436   2.306   3.166  0.00  0.00    +0.017 A 
ATOM      5  C   UNL     1      -2.042   1.556   2.077  0.00  0.00    +0.029 A 
ATOM      6  C   UNL     1      -0.927   1.925   1.345  0.00  0.00    +0.105 A 
ATOM      7  C   UNL     1      -0.196   3.044   1.704  0.00  0.00    +0.029 A 
ATOM      8  C   UNL     1      -0.582   3.806   2.788  0.00  0.00    +0.017 A 
BRANCH   6   9
ATOM      9  S   UNL     1      -0.431   0.962  -0.044  0.00  0.00    +0.059 S 
ATOM     10  O   UNL     1      -0.625  -0.399   0.316  0.00  0.00    -0.153 OA
ATOM     11  O   UNL     1       0.830   1.468  -0.459  0.00  0.00    -0.153 OA
BRANCH   9  12
ATOM     12  N   UNL     1      -1.497   1.284  -1.269  0.00  0.00    -0.185 NA
ATOM     13  H   UNL     1      -2.298   0.563  -1.488  0.00  0.00    +0.149 HD
BRANCH  12  14
ATOM     14  C   UNL     1      -1.508   2.605  -1.902  0.00  0.00    +0.032 C 
ATOM     15  C   UNL     1      -0.146   2.874  -2.545  0.00  0.00    +0.029 C 
ATOM     16  C   UNL     1      -2.596   2.647  -2.977  0.00  0.00    +0.029 C 
ATOM     17  C   UNL     1      -1.793   3.675  -0.846  0.00  0.00    +0.029 C 
ENDBRANCH  12  14
ENDBRANCH   9  12
ENDBRANCH   6   9
ENDBRANCH   1   3
BRANCH   1  18
ATOM     18  O   UNL     1      -1.416   5.340   5.043  0.00  0.00    -0.456 OA
BRANCH  18  19
ATOM     19  C   UNL     1      -1.883   6.085   6.198  0.00  0.00    +0.269 C 
BRANCH  19  25
ATOM     20  C   UNL     1      -1.880  10.923  10.761  0.00  0.00    +0.044 C 
ATOM     21  C   UNL     1      -1.640   9.963   9.624  0.00  0.00    -0.044 A 
ATOM     22  C   UNL     1      -2.499   8.889   9.440  0.00  0.00    +0.004 A 
ATOM     23  C   UNL     1      -2.298   8.008   8.414  0.00  0.00    +0.012 A 
ATOM     24  C   UNL     1      -1.219   8.192   7.544  0.00  0.00    +0.024 A 
ATOM     25  C   UNL     1      -0.976   7.265   6.434  0.00  0.00    +0.007 A 
ATOM     26  C   UNL     1       0.092   7.496   5.629  0.00  0.00    +0.099 A 
ATOM     27  C   UNL     1       0.924   8.611   5.870  0.00  0.00    +0.338 A 
ATOM     28  O   UNL     1       1.877   8.809   5.137  0.00  0.00    -0.245 OA
ATOM     29  O   UNL     1       0.695   9.455   6.887  0.00  0.00    -0.422 OA
ATOM     30  C   UNL     1      -0.346   9.279   7.728  0.00  0.00    +0.143 A 
ATOM     31  C   UNL     1      -0.570  10.162   8.777  0.00  0.00    -0.005 A 
ATOM     32  C   UNL     1       0.354  11.333   8.989  0.00  0.00    +0.048 C 
ENDBRANCH  19  25
ENDBRANCH  18  19
ENDBRANCH   1  18
TORSDOF 7
