REMARK  Name = ZINC40311636
REMARK  7 active torsions:
REMARK  status: ('A' for Active; 'I' for Inactive)
REMARK    1  A    between atoms: C_1  and  C_2
REMARK    2  A    between atoms: C_7  and  C_8
REMARK    3  A    between atoms: C_7  and  C_9
REMARK    4  A    between atoms: C_11  and  N_13
REMARK    5  A    between atoms: C_14  and  C_16
REMARK    6  A    between atoms: C_18  and  N_23
REMARK    7  A    between atoms: C_20  and  N_22
REMARK                            x       y       z     vdW  Elec       q    Type
REMARK                         _______ _______ _______ _____ _____    ______ ____
ROOT
ATOM      1  N   UNL     1      -2.268  -0.017   1.012  0.00  0.00    -0.308 N 
ATOM      2  C   UNL     1      -3.606  -0.100   0.874  0.00  0.00    +0.244 C 
ATOM      3  O   UNL     1      -4.084  -0.746  -0.037  0.00  0.00    -0.270 OA
ATOM      4  H   UNL     1      -1.886   0.499   1.739  0.00  0.00    +0.149 HD
ENDROOT
BRANCH   1  14
ATOM      5  C   UNL     1      -0.019   1.526   0.010  0.00  0.00    +0.013 C 
ATOM      6  C   UNL     1       0.002  -0.004   0.002  0.00  0.00    -0.008 C 
ATOM      7  C   UNL     1       0.744  -0.669  -1.197  0.00  0.00    +0.009 C 
ATOM      8  C   UNL     1       1.062  -2.103  -0.714  0.00  0.00    +0.005 C 
ATOM      9  C   UNL     1       0.481  -2.169   0.732  0.00  0.00    -0.003 C 
ATOM     10  C   UNL     1       0.727  -0.695   1.211  0.00  0.00    -0.025 C 
ATOM     11  C   UNL     1       2.216  -0.348   1.260  0.00  0.00    +0.012 C 
ATOM     12  C   UNL     1       0.031  -0.400   2.541  0.00  0.00    +0.012 C 
ATOM     13  C   UNL     1      -1.065  -2.175   0.532  0.00  0.00    +0.027 C 
ATOM     14  C   UNL     1      -1.389  -0.705   0.062  0.00  0.00    +0.080 C 
ENDBRANCH   1  14
BRANCH   2  15
ATOM     15  C   UNL     1      -4.492   0.595   1.833  0.00  0.00    +0.040 A 
ATOM     16  C   UNL     1      -3.945   1.342   2.876  0.00  0.00    +0.036 A 
ATOM     17  C   UNL     1      -4.779   1.992   3.773  0.00  0.00    +0.027 A 
ATOM     18  C   UNL     1      -6.157   1.901   3.633  0.00  0.00    +0.045 A 
ATOM     19  C   UNL     1      -6.706   1.158   2.596  0.00  0.00    +0.027 A 
ATOM     20  C   UNL     1      -5.877   0.510   1.692  0.00  0.00    +0.036 A 
BRANCH  19  21
ATOM     21  N   UNL     1      -8.093   1.069   2.459  0.00  0.00    -0.358 N 
ATOM     22  H   UNL     1      -8.673   1.526   3.089  0.00  0.00    +0.142 HD
ATOM     23  H   UNL     1      -8.477   0.550   1.735  0.00  0.00    +0.142 HD
ENDBRANCH  19  21
BRANCH  17  24
ATOM     24  N   UNL     1      -4.231   2.740   4.819  0.00  0.00    -0.358 N 
ATOM     25  H   UNL     1      -3.269   2.804   4.917  0.00  0.00    +0.142 HD
ATOM     26  H   UNL     1      -4.814   3.196   5.446  0.00  0.00    +0.142 HD
ENDBRANCH  17  24
ENDBRANCH   2  15
TORSDOF 4
