REMARK  Name = ZINC21336274
REMARK  9 active torsions:
REMARK  status: ('A' for Active; 'I' for Inactive)
REMARK    1  A    between atoms: C_1  and  C_2
REMARK    2  A    between atoms: N_4  and  C_5
REMARK    3  A    between atoms: C_14  and  C_17
REMARK    4  A    between atoms: C_18  and  C_19
REMARK    5  A    between atoms: N_21  and  C_22
REMARK    6  A    between atoms: C_27  and  C_28
REMARK    7  A    between atoms: C_28  and  C_29
REMARK    8  A    between atoms: C_28  and  C_30
REMARK    9  A    between atoms: C_28  and  C_31
REMARK                            x       y       z     vdW  Elec       q    Type
REMARK                         _______ _______ _______ _____ _____    ______ ____
ROOT
ATOM      1  C   UNL     1      -6.547  -0.608  -0.871  0.00  0.00    +0.110 C 
ATOM      2  C   UNL     1      -5.167  -0.002  -0.850  0.00  0.00    +0.223 C 
ATOM      3  O   UNL     1      -4.194  -0.714  -0.726  0.00  0.00    -0.275 OA
ATOM      4  N   UNL     1      -5.016   1.333  -0.968  0.00  0.00    -0.216 N 
ATOM      5  C   UNL     1      -3.743   1.891  -0.948  0.00  0.00    +0.172 A 
ATOM      6  N   UNL     1      -2.575   1.294  -0.829  0.00  0.00    -0.225 NA
ATOM      7  C   UNL     1      -1.438   1.992  -0.825  0.00  0.00    +0.073 A 
ATOM      8  C   UNL     1      -1.497   3.361  -0.959  0.00  0.00    +0.076 A 
ATOM      9  S   UNL     1      -3.264   3.607  -1.084  0.00  0.00    -0.059 S 
ENDROOT
BRANCH   4  10
ATOM     10  C   UNL     1      -6.141   2.156  -1.111  0.00  0.00    +0.078 A 
ATOM     11  C   UNL     1      -6.630   2.451  -2.376  0.00  0.00    +0.027 A 
ATOM     12  C   UNL     1      -7.740   3.263  -2.514  0.00  0.00    +0.002 A 
ATOM     13  C   UNL     1      -8.364   3.781  -1.395  0.00  0.00    +0.003 A 
ATOM     14  C   UNL     1      -7.880   3.490  -0.132  0.00  0.00    +0.040 A 
ATOM     15  C   UNL     1      -6.772   2.675   0.014  0.00  0.00    +0.145 A 
ATOM     16  F   UNL     1      -6.303   2.386   1.247  0.00  0.00    -0.204 F 
ENDBRANCH   4  10
BRANCH   7  17
ATOM     17  C   UNL     1      -0.147   1.312  -0.687  0.00  0.00    +0.033 C 
ATOM     18  C   UNL     1      -0.102  -0.034  -0.555  0.00  0.00    +0.069 C 
BRANCH  18  19
ATOM     19  C   UNL     1       1.146  -0.692  -0.427  0.00  0.00    +0.241 C 
ATOM     20  O   UNL     1       2.178  -0.046  -0.435  0.00  0.00    -0.270 OA
ATOM     21  N   UNL     1       1.190  -2.033  -0.297  0.00  0.00    -0.282 N 
ATOM     22  H   UNL     1       0.258  -2.606  -0.190  0.00  0.00    +0.155 HD
BRANCH  21  23
ATOM     23  C   UNL     1       2.422  -2.694  -0.297  0.00  0.00    +0.037 A 
ATOM     24  C   UNL     1       3.604  -1.965  -0.322  0.00  0.00    +0.023 A 
ATOM     25  C   UNL     1       4.819  -2.621  -0.318  0.00  0.00    +0.002 A 
ATOM     26  C   UNL     1       4.860  -4.003  -0.299  0.00  0.00    +0.000 A 
ATOM     27  C   UNL     1       3.685  -4.733  -0.279  0.00  0.00    +0.006 A 
ATOM     28  C   UNL     1       2.467  -4.082  -0.279  0.00  0.00    -0.021 A 
BRANCH  28  29
ATOM     29  C   UNL     1       1.187  -4.878  -0.258  0.00  0.00    -0.011 C 
ATOM     30  C   UNL     1       1.515  -6.372  -0.277  0.00  0.00    +0.015 C 
ATOM     31  C   UNL     1       0.400  -4.545   1.011  0.00  0.00    +0.015 C 
ATOM     32  C   UNL     1       0.347  -4.524  -1.486  0.00  0.00    +0.015 C 
ENDBRANCH  28  29
ENDBRANCH  21  23
ENDBRANCH  18  19
ENDBRANCH   7  17
TORSDOF 5
