REMARK  Name = ZINC39490891
REMARK  12 active torsions:
REMARK  status: ('A' for Active; 'I' for Inactive)
REMARK    1  A    between atoms: C_1  and  C_2
REMARK    2  A    between atoms: C_2  and  C_3
REMARK    3  A    between atoms: C_2  and  S_4
REMARK    4  A    between atoms: S_4  and  C_7
REMARK    5  A    between atoms: C_7  and  C_35
REMARK    6  A    between atoms: N_9  and  C_28
REMARK    7  A    between atoms: N_12  and  C_13
REMARK    8  A    between atoms: C_13  and  C_14
REMARK    9  A    between atoms: C_14  and  C_22
REMARK   10  A    between atoms: N_17  and  S_20
REMARK   11  A    between atoms: S_20  and  C_21
REMARK   12  A    between atoms: C_33  and  O_34
REMARK                            x       y       z     vdW  Elec       q    Type
REMARK                         _______ _______ _______ _____ _____    ______ ____
ROOT
ATOM      1  C   UNL     1      -2.077  -3.385   0.846  0.00  0.00    +0.169 C 
ATOM      2  C   UNL     1      -2.034  -4.693   0.031  0.00  0.00    +0.164 C 
ATOM      3  N   UNL     1      -3.422  -5.177   0.068  0.00  0.00    -0.248 N 
ATOM      4  C   UNL     1      -4.169  -4.319   0.775  0.00  0.00    +0.311 C 
ATOM      5  O   UNL     1      -5.359  -4.476   0.964  0.00  0.00    -0.252 OA
ATOM      6  N   UNL     1      -3.485  -3.271   1.254  0.00  0.00    -0.259 N 
ATOM      7  C   UNL     1      -1.168  -3.482   2.072  0.00  0.00    +0.059 C 
ENDROOT
BRANCH   3   8
ATOM      8  C   UNL     1      -3.889  -6.350  -0.541  0.00  0.00    +0.079 A 
ATOM      9  C   UNL     1      -4.011  -7.517   0.200  0.00  0.00    +0.027 A 
ATOM     10  C   UNL     1      -4.471  -8.672  -0.403  0.00  0.00    +0.002 A 
ATOM     11  C   UNL     1      -4.812  -8.669  -1.743  0.00  0.00    +0.004 A 
ATOM     12  C   UNL     1      -4.693  -7.510  -2.487  0.00  0.00    +0.047 A 
ATOM     13  C   UNL     1      -4.237  -6.346  -1.889  0.00  0.00    +0.138 A 
BRANCH  13  14
ATOM     14  O   UNL     1      -4.126  -5.204  -2.619  0.00  0.00    -0.505 OA
ATOM     15  H   UNL     1      -3.294  -5.128  -3.106  0.00  0.00    +0.292 HD
ENDBRANCH  13  14
ENDBRANCH   3   8
BRANCH   1  16
ATOM     16  S   UNL     1      -1.599  -1.974  -0.190  0.00  0.00    -0.006 S 
ATOM     17  O   UNL     1      -1.318  -0.869   0.659  0.00  0.00    -0.172 OA
ATOM     18  O   UNL     1      -2.564  -1.826  -1.222  0.00  0.00    -0.172 OA
BRANCH  16  20
ATOM     19  C   UNL     1       0.689  -1.338  -1.547  0.00  0.00    +0.031 C 
ATOM     20  C   UNL     1      -0.043  -2.534  -0.935  0.00  0.00    +0.127 C 
ATOM     21  C   UNL     1       0.837  -3.175   0.140  0.00  0.00    +0.031 C 
ENDBRANCH  16  20
ENDBRANCH   1  16
BRANCH   6  22
ATOM     22  C   UNL     1      -4.051  -2.185   2.058  0.00  0.00    +0.118 C 
BRANCH  22  23
ATOM     23  C   UNL     1      -4.653  -1.126   1.132  0.00  0.00    -0.008 C 
ATOM     24  C   UNL     1      -3.531  -0.412   0.373  0.00  0.00    +0.025 C 
ATOM     25  C   UNL     1      -2.622   0.306   1.373  0.00  0.00    +0.097 C 
ATOM     26  N   UNL     1      -3.410   1.277   2.143  0.00  0.00    -0.250 NA
ATOM     27  C   UNL     1      -4.464   0.610   2.917  0.00  0.00    +0.097 C 
ATOM     28  C   UNL     1      -5.428  -0.100   1.964  0.00  0.00    +0.025 C 
BRANCH  23  29
ATOM     29  C   UNL     1      -5.600  -1.797   0.135  0.00  0.00    -0.003 C 
ATOM     30  C   UNL     1      -4.784  -2.485  -0.960  0.00  0.00    +0.004 C 
ATOM     31  C   UNL     1      -5.731  -3.156  -1.957  0.00  0.00    +0.000 C 
ATOM     32  C   UNL     1      -6.640  -2.099  -2.587  0.00  0.00    +0.000 C 
ATOM     33  C   UNL     1      -7.457  -1.411  -1.491  0.00  0.00    +0.000 C 
ATOM     34  C   UNL     1      -6.510  -0.740  -0.494  0.00  0.00    +0.004 C 
ENDBRANCH  23  29
BRANCH  26  35
ATOM     35  S   UNL     1      -2.371   2.245   3.191  0.00  0.00    -0.081 S 
ATOM     36  C   UNL     1      -3.534   3.256   4.149  0.00  0.00    +0.103 C 
ENDBRANCH  26  35
ENDBRANCH  22  23
ENDBRANCH   6  22
TORSDOF 8
