REMARK  Name = ZINC03841348
REMARK  4 active torsions:
REMARK  status: ('A' for Active; 'I' for Inactive)
REMARK    1  A    between atoms: C_4  and  S_7
REMARK    2  A    between atoms: S_7  and  N_10
REMARK    3  A    between atoms: N_10  and  C_11
REMARK    4  A    between atoms: N_29  and  C_30
REMARK                            x       y       z     vdW  Elec       q    Type
REMARK                         _______ _______ _______ _____ _____    ______ ____
ROOT
ATOM      1  C   UNL     1      -1.274   1.815   0.167  0.00  0.00    +0.112 A 
ATOM      2  C   UNL     1      -1.230   3.180   0.091  0.00  0.00    +0.031 A 
ATOM      3  C   UNL     1      -0.001   3.827   0.261  0.00  0.00    +0.024 A 
ATOM      4  C   UNL     1       1.132   3.113   0.493  0.00  0.00    +0.027 A 
ATOM      5  N   UNL     1       1.104   1.758   0.495  0.00  0.00    -0.310 N 
ATOM      6  C   UNL     1      -0.080   1.105   0.399  0.00  0.00    +0.274 A 
ATOM      7  O   UNL     1      -0.111  -0.110   0.510  0.00  0.00    -0.266 OA
ATOM      8  C   UNL     1       2.312   0.933   0.559  0.00  0.00    +0.130 C 
ATOM      9  C   UNL     1       3.507   1.696   1.099  0.00  0.00    +0.027 C 
ATOM     10  C   UNL     1       3.617   3.052   0.401  0.00  0.00    +0.018 C 
ATOM     11  C   UNL     1       2.395   3.892   0.781  0.00  0.00    +0.054 C 
ATOM     12  C   UNL     1       2.444   4.160   2.295  0.00  0.00    +0.119 C 
ATOM     13  N   UNL     1       2.425   2.853   2.972  0.00  0.00    -0.285 N 
ATOM     14  C   UNL     1       3.445   1.862   2.611  0.00  0.00    +0.114 C 
ATOM     15  C   UNL     1       1.492   2.574   3.904  0.00  0.00    +0.302 C 
ATOM     16  O   UNL     1       0.711   3.435   4.259  0.00  0.00    -0.253 OA
ATOM     17  N   UNL     1       1.426   1.340   4.442  0.00  0.00    -0.296 N 
ATOM     18  H   UNL     1       2.094   0.675   4.215  0.00  0.00    +0.151 HD
ENDROOT
BRANCH  17  19
ATOM     19  C   UNL     1       0.345   1.003   5.372  0.00  0.00    +0.074 C 
ATOM     20  C   UNL     1       0.733   1.440   6.786  0.00  0.00    +0.022 C 
ATOM     21  C   UNL     1      -0.396   1.088   7.756  0.00  0.00    +0.002 C 
ATOM     22  C   UNL     1      -0.634  -0.423   7.736  0.00  0.00    +0.000 C 
ATOM     23  C   UNL     1      -1.022  -0.860   6.322  0.00  0.00    +0.002 C 
ATOM     24  C   UNL     1       0.107  -0.508   5.351  0.00  0.00    +0.022 C 
ENDBRANCH  17  19
BRANCH   1  25
ATOM     25  N   UNL     1      -2.489   1.133   0.022  0.00  0.00    -0.211 N 
ATOM     26  H   UNL     1      -2.502   0.164  -0.002  0.00  0.00    +0.174 HD
BRANCH  25  27
ATOM     27  S   UNL     1      -3.905   1.983  -0.108  0.00  0.00    +0.072 S 
ATOM     28  O   UNL     1      -3.685   2.991  -1.085  0.00  0.00    -0.150 OA
ATOM     29  O   UNL     1      -4.946   1.023  -0.225  0.00  0.00    -0.150 OA
BRANCH  27  33
ATOM     30  C   UNL     1      -4.552   4.118   3.831  0.00  0.00    +0.000 A 
ATOM     31  C   UNL     1      -3.969   4.786   2.770  0.00  0.00    +0.002 A 
ATOM     32  C   UNL     1      -3.771   4.134   1.567  0.00  0.00    +0.029 A 
ATOM     33  C   UNL     1      -4.157   2.814   1.425  0.00  0.00    +0.108 A 
ATOM     34  C   UNL     1      -4.744   2.147   2.484  0.00  0.00    +0.029 A 
ATOM     35  C   UNL     1      -4.937   2.798   3.689  0.00  0.00    +0.002 A 
ENDBRANCH  27  33
ENDBRANCH  25  27
ENDBRANCH   1  25
TORSDOF 4
