REMARK  Name = ZINC64143681
REMARK  8 active torsions:
REMARK  status: ('A' for Active; 'I' for Inactive)
REMARK    1  A    between atoms: C_1  and  O_2
REMARK    2  A    between atoms: O_2  and  C_3
REMARK    3  A    between atoms: C_3  and  C_5
REMARK    4  A    between atoms: C_8  and  N_20
REMARK    5  A    between atoms: N_11  and  C_12
REMARK    6  A    between atoms: C_12  and  C_13
REMARK    7  A    between atoms: C_21  and  C_23
REMARK    8  A    between atoms: C_25  and  C_34
REMARK                            x       y       z     vdW  Elec       q    Type
REMARK                         _______ _______ _______ _____ _____    ______ ____
ROOT
ATOM      1  N   UNL     1      -1.462  -4.414  -3.060  0.00  0.00    -0.309 N 
ATOM      2  C   UNL     1      -1.534  -5.711  -3.419  0.00  0.00    +0.240 C 
ATOM      3  O   UNL     1      -1.754  -6.561  -2.583  0.00  0.00    -0.273 OA
ATOM      4  H   UNL     1      -1.361  -3.728  -3.737  0.00  0.00    +0.149 HD
ENDROOT
BRANCH   2   5
ATOM      5  C   UNL     1      -1.343  -6.105  -4.861  0.00  0.00    +0.198 C 
ATOM      6  C   UNL     1       0.132  -6.229  -5.176  0.00  0.00    -0.000 C 
ATOM      7  C   UNL     1       0.323  -7.544  -5.563  0.00  0.00    +0.006 A 
ATOM      8  C   UNL     1       1.472  -8.263  -5.974  0.00  0.00    +0.030 A 
ATOM      9  C   UNL     1       1.363  -9.574  -6.303  0.00  0.00    +0.042 A 
ATOM     10  C   UNL     1       0.134 -10.245  -6.247  0.00  0.00    +0.022 A 
ATOM     11  C   UNL     1      -1.004  -9.623  -5.864  0.00  0.00    +0.027 A 
ATOM     12  C   UNL     1      -0.972  -8.248  -5.503  0.00  0.00    +0.044 A 
ATOM     13  N   UNL     1      -1.922  -7.430  -5.104  0.00  0.00    -0.370 N 
ATOM     14 CL   UNL     1       2.780 -10.441  -6.805  0.00  0.00    -0.084 Cl
ATOM     15  H   UNL     1      -2.856  -7.665  -4.989  0.00  0.00    +0.161 HD
BRANCH   6  16
ATOM     16  C   UNL     1       1.146  -5.176  -5.090  0.00  0.00    -0.019 A 
ATOM     17  C   UNL     1       2.491  -5.508  -4.871  0.00  0.00    +0.008 A 
ATOM     18  C   UNL     1       3.438  -4.510  -4.792  0.00  0.00    +0.001 A 
ATOM     19  C   UNL     1       3.065  -3.183  -4.928  0.00  0.00    +0.000 A 
ATOM     20  C   UNL     1       1.739  -2.846  -5.144  0.00  0.00    +0.001 A 
ATOM     21  C   UNL     1       0.779  -3.830  -5.231  0.00  0.00    +0.008 A 
ENDBRANCH   6  16
ENDBRANCH   2   5
BRANCH   1  24
ATOM     22  C   UNL     1      -1.558  -2.146  -0.137  0.00  0.00    +0.168 C 
ATOM     23  C   UNL     1      -0.835  -2.680  -1.392  0.00  0.00    +0.054 C 
ATOM     24  C   UNL     1      -1.536  -4.042  -1.645  0.00  0.00    +0.089 C 
ATOM     25  C   UNL     1      -2.994  -3.725  -1.229  0.00  0.00    +0.107 C 
ATOM     26  N   UNL     1      -2.867  -2.820  -0.062  0.00  0.00    -0.284 NA
BRANCH  22  27
ATOM     27  C   UNL     1      -1.754  -0.656  -0.255  0.00  0.00    +0.324 C 
ATOM     28  O   UNL     1      -2.522  -0.211  -1.075  0.00  0.00    -0.249 OA
BRANCH  27  30
ATOM     29  C   UNL     1      -1.312   1.575   0.385  0.00  0.00    +0.280 C 
ATOM     30  O   UNL     1      -1.077   0.176   0.552  0.00  0.00    -0.467 OA
ENDBRANCH  27  30
ENDBRANCH  22  27
BRANCH  26  31
ATOM     31  C   UNL     1      -3.962  -1.841  -0.032  0.00  0.00    +0.123 C 
BRANCH  31  32
ATOM     32  C   UNL     1      -5.225  -2.515   0.438  0.00  0.00    +0.002 A 
ATOM     33  C   UNL     1      -6.176  -2.919  -0.480  0.00  0.00    +0.008 A 
ATOM     34  C   UNL     1      -7.335  -3.538  -0.049  0.00  0.00    +0.000 A 
ATOM     35  C   UNL     1      -7.544  -3.753   1.300  0.00  0.00    +0.003 A 
ATOM     36  C   UNL     1      -6.595  -3.351   2.220  0.00  0.00    +0.038 A 
ATOM     37  C   UNL     1      -5.431  -2.736   1.789  0.00  0.00    +0.128 A 
ATOM     38  F   UNL     1      -4.500  -2.346   2.687  0.00  0.00    -0.205 F 
ENDBRANCH  31  32
ENDBRANCH  26  31
ENDBRANCH   1  24
TORSDOF 7
