REMARK  Name = ZINC13065274
REMARK  14 active torsions:
REMARK  status: ('A' for Active; 'I' for Inactive)
REMARK    1  A    between atoms: C_1  and  C_2
REMARK    2  A    between atoms: C_2  and  C_3
REMARK    3  A    between atoms: C_3  and  C_5
REMARK    4  A    between atoms: C_3  and  N_70
REMARK    5  A    between atoms: N_9  and  C_10
REMARK    6  A    between atoms: C_10  and  C_11
REMARK    7  A    between atoms: C_16  and  C_17
REMARK    8  A    between atoms: C_16  and  N_70
REMARK    9  A    between atoms: C_20  and  O_23
REMARK   10  A    between atoms: O_23  and  C_24
REMARK   11  A    between atoms: C_25  and  C_26
REMARK   12  A    between atoms: C_25  and  N_70
REMARK   13  A    between atoms: C_29  and  C_39
REMARK   14  A    between atoms: C_32  and  C_38
REMARK                            x       y       z     vdW  Elec       q    Type
REMARK                         _______ _______ _______ _____ _____    ______ ____
ROOT
ATOM      1  N   UNL     1      -0.848   0.632  -0.131  0.00  0.00    +0.392 N 
ATOM      2  H   UNL     1      -1.614   0.751   0.543  0.00  0.00    -0.080 HD
ENDROOT
BRANCH   1   3
ATOM      3  C   UNL     1      -0.106  -0.603   0.199  0.00  0.00    +0.003 C 
BRANCH   3   4
ATOM      4  C   UNL     1       1.222  -0.627  -0.513  0.00  0.00    +0.139 A 
ATOM      5  N   UNL     1       2.214   0.212  -0.347  0.00  0.00    -0.115 NA
ATOM      6  N   UNL     1       3.172  -0.143  -1.132  0.00  0.00    -0.023 NA
ATOM      7  N   UNL     1       2.813  -1.183  -1.800  0.00  0.00    -0.044 NA
ATOM      8  N   UNL     1       1.617  -1.512  -1.447  0.00  0.00    -0.223 N 
BRANCH   8   9
ATOM      9  C   UNL     1       0.835  -2.637  -1.966  0.00  0.00    +0.221 C 
BRANCH   9  10
ATOM     10  C   UNL     1       0.298  -2.289  -3.330  0.00  0.00    +0.126 A 
ATOM     11  C   UNL     1       0.869  -2.610  -4.505  0.00  0.00    +0.046 A 
ATOM     12  C   UNL     1       0.033  -2.092  -5.521  0.00  0.00    +0.041 A 
ATOM     13  C   UNL     1      -0.994  -1.479  -4.906  0.00  0.00    +0.195 A 
ATOM     14  O   UNL     1      -0.828  -1.601  -3.579  0.00  0.00    -0.466 OA
ENDBRANCH   9  10
ENDBRANCH   8   9
ENDBRANCH   3   4
BRANCH   3  16
ATOM     15  C   UNL     1      -1.220  -0.551   2.435  0.00  0.00    +0.002 C 
ATOM     16  C   UNL     1       0.124  -0.649   1.711  0.00  0.00    -0.011 C 
ENDBRANCH   3  16
ENDBRANCH   1   3
BRANCH   1  17
ATOM     17  C   UNL     1       0.054   1.801  -0.043  0.00  0.00    -0.042 C 
BRANCH  17  18
ATOM     18  C   UNL     1       0.472   1.986   1.393  0.00  0.00    -0.064 A 
ATOM     19  C   UNL     1      -0.478   2.270   2.357  0.00  0.00    +0.005 A 
ATOM     20  C   UNL     1      -0.098   2.435   3.675  0.00  0.00    +0.046 A 
ATOM     21  C   UNL     1       1.239   2.327   4.029  0.00  0.00    +0.120 A 
ATOM     22  C   UNL     1       2.191   2.049   3.058  0.00  0.00    +0.046 A 
ATOM     23  C   UNL     1       1.805   1.879   1.743  0.00  0.00    +0.005 A 
BRANCH  21  24
ATOM     24  O   UNL     1       1.616   2.494   5.324  0.00  0.00    -0.495 OA
ATOM     25  C   UNL     1       0.583   2.779   6.269  0.00  0.00    +0.277 C 
ENDBRANCH  21  24
ENDBRANCH  17  18
ENDBRANCH   1  17
BRANCH   1  26
ATOM     26  C   UNL     1      -1.415   0.533  -1.492  0.00  0.00    -0.036 C 
BRANCH  26  27
ATOM     27  C   UNL     1      -2.797  -0.059  -1.392  0.00  0.00    +0.001 A 
ATOM     28  C   UNL     1      -3.882   0.754  -1.376  0.00  0.00    +0.017 A 
ATOM     29  C   UNL     1      -5.211   0.147  -1.284  0.00  0.00    +0.002 A 
ATOM     30  C   UNL     1      -6.367   0.934  -1.269  0.00  0.00    -0.041 A 
ATOM     31  C   UNL     1      -7.592   0.337  -1.177  0.00  0.00    +0.004 A 
ATOM     32  C   UNL     1      -7.700  -1.046  -1.100  0.00  0.00    +0.005 A 
ATOM     33  C   UNL     1      -6.574  -1.841  -1.112  0.00  0.00    -0.026 A 
ATOM     34  C   UNL     1      -5.316  -1.255  -1.205  0.00  0.00    +0.052 A 
ATOM     35  N   UNL     1      -4.174  -2.026  -1.221  0.00  0.00    -0.322 N 
ATOM     36  H   UNL     1      -4.248  -2.992  -1.167  0.00  0.00    +0.169 HD
ATOM     37  C   UNL     1      -2.958  -1.459  -1.311  0.00  0.00    +0.251 A 
ATOM     38  O   UNL     1      -1.969  -2.172  -1.322  0.00  0.00    -0.268 OA
ATOM     39  C   UNL     1      -6.707  -3.340  -1.027  0.00  0.00    +0.046 C 
ATOM     40  C   UNL     1      -6.262   2.435  -1.353  0.00  0.00    +0.044 C 
ENDBRANCH  26  27
ENDBRANCH   1  26
TORSDOF 10
