REMARK  Name = ZINC20418650
REMARK  12 active torsions:
REMARK  status: ('A' for Active; 'I' for Inactive)
REMARK    1  A    between atoms: C_1  and  C_2
REMARK    2  A    between atoms: C_7  and  C_8
REMARK    3  A    between atoms: C_8  and  O_9
REMARK    4  A    between atoms: O_9  and  C_10
REMARK    5  A    between atoms: C_14  and  C_16
REMARK    6  A    between atoms: C_19  and  C_30
REMARK    7  A    between atoms: C_25  and  N_29
REMARK    8  A    between atoms: C_26  and  C_27
REMARK    9  A    between atoms: C_33  and  O_36
REMARK   10  A    between atoms: O_36  and  C_37
REMARK   11  A    between atoms: C_37  and  C_38
REMARK   12  A    between atoms: C_37  and  C_39
REMARK                            x       y       z     vdW  Elec       q    Type
REMARK                         _______ _______ _______ _____ _____    ______ ____
ROOT
ATOM      1  C   UNL     1       0.111  -2.043   8.644  0.00  0.00    +0.102 C 
ATOM      2  C   UNL     1       1.341  -1.529   9.345  0.00  0.00    +0.054 A 
ATOM      3  C   UNL     1       2.684  -1.639   8.972  0.00  0.00    +0.100 A 
ATOM      4  N   UNL     1       3.412  -1.035   9.892  0.00  0.00    -0.171 NA
ATOM      5  N   UNL     1       2.549  -0.525  10.874  0.00  0.00    -0.246 N 
ATOM      6  H   UNL     1       2.815  -0.033  11.667  0.00  0.00    +0.192 HD
ATOM      7  C   UNL     1       1.285  -0.839  10.521  0.00  0.00    +0.223 A 
ATOM      8  O   UNL     1       0.117  -0.564  11.154  0.00  0.00    -0.423 OA
ATOM      9  C   UNL     1      -0.986  -1.222  10.743  0.00  0.00    +0.200 C 
ATOM     10  C   UNL     1      -1.056  -1.928   9.592  0.00  0.00    +0.098 C 
ENDROOT
BRANCH   1  15
ATOM     11  C   UNL     1      -0.422  -1.065   5.033  0.00  0.00    +0.121 A 
ATOM     12  C   UNL     1      -0.638   0.300   5.148  0.00  0.00    +0.045 A 
ATOM     13  C   UNL     1      -0.610   0.901   6.391  0.00  0.00    +0.004 A 
ATOM     14  C   UNL     1      -0.368   0.142   7.522  0.00  0.00    +0.005 A 
ATOM     15  C   UNL     1      -0.153  -1.219   7.410  0.00  0.00    -0.031 A 
ATOM     16  C   UNL     1      -0.185  -1.826   6.169  0.00  0.00    +0.050 A 
BRANCH  11  17
ATOM     17  O   UNL     1      -0.449  -1.659   3.811  0.00  0.00    -0.487 OA
BRANCH  17  18
ATOM     18  C   UNL     1      -0.699  -0.814   2.685  0.00  0.00    +0.264 C 
BRANCH  18  25
ATOM     19  C   UNL     1      -1.161   0.447   0.127  0.00  0.00    +0.044 C 
ATOM     20  C   UNL     1      -0.913  -1.038   0.202  0.00  0.00    -0.044 A 
ATOM     21  C   UNL     1      -0.901  -1.795  -0.955  0.00  0.00    +0.004 A 
ATOM     22  C   UNL     1      -0.673  -3.157  -0.887  0.00  0.00    +0.000 A 
ATOM     23  C   UNL     1      -0.457  -3.761   0.338  0.00  0.00    +0.000 A 
ATOM     24  C   UNL     1      -0.469  -3.003   1.494  0.00  0.00    +0.007 A 
ATOM     25  C   UNL     1      -0.692  -1.641   1.425  0.00  0.00    -0.007 A 
ENDBRANCH  18  25
ENDBRANCH  17  18
ENDBRANCH  11  17
ENDBRANCH   1  15
BRANCH   3  26
ATOM     26  C   UNL     1       3.200  -2.317   7.756  0.00  0.00    +0.003 A 
ATOM     27  C   UNL     1       2.564  -3.458   7.271  0.00  0.00    +0.013 A 
ATOM     28  C   UNL     1       3.045  -4.085   6.141  0.00  0.00    +0.046 A 
ATOM     29  C   UNL     1       4.162  -3.581   5.487  0.00  0.00    +0.121 A 
ATOM     30  C   UNL     1       4.797  -2.445   5.970  0.00  0.00    +0.046 A 
ATOM     31  C   UNL     1       4.317  -1.810   7.095  0.00  0.00    +0.013 A 
BRANCH  29  32
ATOM     32  O   UNL     1       4.634  -4.202   4.375  0.00  0.00    -0.489 OA
BRANCH  32  33
ATOM     33  C   UNL     1       3.865  -5.293   3.865  0.00  0.00    +0.167 C 
ATOM     34  C   UNL     1       4.144  -5.458   2.369  0.00  0.00    +0.051 C 
ATOM     35  C   UNL     1       4.251  -6.577   4.601  0.00  0.00    +0.051 C 
ENDBRANCH  32  33
ENDBRANCH  29  32
ENDBRANCH   3  26
BRANCH   9  36
ATOM     36  N   UNL     1      -2.103  -1.171  11.540  0.00  0.00    -0.328 N 
ATOM     37  H   UNL     1      -2.083  -0.673  12.371  0.00  0.00    +0.145 HD
ATOM     38  H   UNL     1      -2.911  -1.635  11.271  0.00  0.00    +0.145 HD
ENDBRANCH   9  36
BRANCH  10  39
ATOM     39  C   UNL     1      -2.282  -2.591   9.261  0.00  0.00    +0.101 C 
ATOM     40  N   UNL     1      -3.254  -3.116   8.999  0.00  0.00    -0.191 NA
ENDBRANCH  10  39
TORSDOF 9
