REMARK  Name = ZINC04955998
REMARK  5 active torsions:
REMARK  status: ('A' for Active; 'I' for Inactive)
REMARK    1  A    between atoms: C_1  and  C_2
REMARK    2  A    between atoms: C_6  and  N_8
REMARK    3  A    between atoms: C_13  and  C_27
REMARK    4  A    between atoms: N_15  and  C_21
REMARK    5  A    between atoms: C_32  and  O_33
REMARK                            x       y       z     vdW  Elec       q    Type
REMARK                         _______ _______ _______ _____ _____    ______ ____
ROOT
ATOM      1  N   UNL     1      -0.550  -2.811   2.041  0.00  0.00    -0.208 N 
ATOM      2  C   UNL     1      -0.473  -4.143   2.142  0.00  0.00    +0.235 C 
ATOM      3  O   UNL     1      -0.729  -4.928   1.254  0.00  0.00    -0.274 OA
ATOM      4  C   UNL     1      -0.018  -4.515   3.533  0.00  0.00    +0.146 C 
ATOM      5  C   UNL     1      -1.177  -5.212   4.282  0.00  0.00    +0.160 C 
ATOM      6  N   UNL     1      -1.197  -4.503   5.585  0.00  0.00    -0.244 N 
ATOM      7  O   UNL     1      -0.928  -3.139   5.255  0.00  0.00    -0.257 OA
ATOM      8  C   UNL     1       0.124  -3.143   4.246  0.00  0.00    +0.249 C 
ATOM      9  C   UNL     1      -0.224  -2.150   3.158  0.00  0.00    +0.259 C 
ATOM     10  O   UNL     1      -0.211  -0.944   3.280  0.00  0.00    -0.272 OA
ENDROOT
BRANCH   1  16
ATOM     11  C   UNL     1      -3.834  -0.102  -0.422  0.00  0.00    +0.044 C 
ATOM     12  C   UNL     1      -2.522  -0.840  -0.360  0.00  0.00    -0.049 A 
ATOM     13  C   UNL     1      -1.696  -0.877  -1.469  0.00  0.00    +0.003 A 
ATOM     14  C   UNL     1      -0.492  -1.554  -1.416  0.00  0.00    +0.002 A 
ATOM     15  C   UNL     1      -0.110  -2.196  -0.254  0.00  0.00    +0.024 A 
ATOM     16  C   UNL     1      -0.936  -2.160   0.861  0.00  0.00    +0.044 A 
ATOM     17  C   UNL     1      -2.142  -1.475   0.806  0.00  0.00    +0.027 A 
ENDBRANCH   1  16
BRANCH   6  18
ATOM     18  C   UNL     1      -1.428  -5.046   6.851  0.00  0.00    +0.065 A 
ATOM     19  C   UNL     1      -0.481  -4.897   7.856  0.00  0.00    +0.028 A 
ATOM     20  C   UNL     1      -0.713  -5.435   9.106  0.00  0.00    +0.002 A 
ATOM     21  C   UNL     1      -1.886  -6.122   9.358  0.00  0.00    +0.000 A 
ATOM     22  C   UNL     1      -2.831  -6.272   8.360  0.00  0.00    +0.002 A 
ATOM     23  C   UNL     1      -2.608  -5.732   7.109  0.00  0.00    +0.028 A 
ENDBRANCH   6  18
BRANCH   5  24
ATOM     24  C   UNL     1      -0.885  -6.678   4.473  0.00  0.00    +0.020 A 
ATOM     25  C   UNL     1      -0.072  -7.092   5.510  0.00  0.00    +0.009 A 
ATOM     26  C   UNL     1       0.197  -8.437   5.685  0.00  0.00    +0.001 A 
ATOM     27  C   UNL     1      -0.347  -9.371   4.823  0.00  0.00    +0.004 A 
ATOM     28  C   UNL     1      -1.161  -8.963   3.785  0.00  0.00    +0.046 A 
ATOM     29  C   UNL     1      -1.437  -7.614   3.610  0.00  0.00    +0.122 A 
BRANCH  29  30
ATOM     30  O   UNL     1      -2.242  -7.210   2.592  0.00  0.00    -0.506 OA
ATOM     31  H   UNL     1      -1.771  -7.021   1.770  0.00  0.00    +0.292 HD
ENDBRANCH  29  30
ENDBRANCH   5  24
TORSDOF 4
