REMARK  Name = ZINC54647066
REMARK  10 active torsions:
REMARK  status: ('A' for Active; 'I' for Inactive)
REMARK    1  A    between atoms: C_1  and  C_2
REMARK    2  A    between atoms: C_5  and  C_9
REMARK    3  A    between atoms: C_7  and  C_8
REMARK    4  A    between atoms: C_15  and  C_17
REMARK    5  A    between atoms: C_17  and  C_18
REMARK    6  A    between atoms: C_18  and  C_19
REMARK    7  A    between atoms: C_19  and  N_20
REMARK    8  A    between atoms: C_27  and  C_33
REMARK    9  A    between atoms: C_30  and  C_31
REMARK   10  A    between atoms: C_30  and  C_32
REMARK                            x       y       z     vdW  Elec       q    Type
REMARK                         _______ _______ _______ _____ _____    ______ ____
ROOT
ATOM      1  C   UNL     1       0.059  -4.255  -0.021  0.00  0.00    +0.080 A 
ATOM      2  C   UNL     1       0.171  -4.938  -1.201  0.00  0.00    +0.076 A 
ATOM      3  S   UNL     1       0.141  -6.625  -0.612  0.00  0.00    -0.060 S 
ATOM      4  C   UNL     1      -0.015  -6.251   1.129  0.00  0.00    +0.165 A 
ATOM      5  N   UNL     1      -0.025  -4.931   1.115  0.00  0.00    -0.225 NA
ATOM      6  N   UNL     1      -0.099  -7.119   2.211  0.00  0.00    -0.265 N 
ATOM      7  C   UNL     1      -0.064  -8.451   2.010  0.00  0.00    +0.219 C 
ATOM      8  O   UNL     1       0.040  -8.893   0.885  0.00  0.00    -0.275 OA
ATOM      9  H   UNL     1      -0.182  -6.766   3.111  0.00  0.00    +0.157 HD
ENDROOT
BRANCH   1  14
ATOM     10  C   UNL     1      -0.018   1.503   0.010  0.00  0.00    +0.044 C 
ATOM     11  C   UNL     1       0.002  -0.004   0.002  0.00  0.00    -0.047 A 
ATOM     12  C   UNL     1       0.006  -0.687  -1.201  0.00  0.00    +0.004 A 
ATOM     13  C   UNL     1       0.024  -2.066  -1.215  0.00  0.00    +0.010 A 
ATOM     14  C   UNL     1       0.040  -2.772  -0.013  0.00  0.00    +0.001 A 
ATOM     15  C   UNL     1       0.036  -2.080   1.196  0.00  0.00    +0.013 A 
ATOM     16  C   UNL     1       0.023  -0.699   1.198  0.00  0.00    -0.047 A 
ATOM     17  C   UNL     1       0.025   0.051   2.504  0.00  0.00    +0.044 C 
ENDBRANCH   1  14
BRANCH   7  18
ATOM     18  C   UNL     1      -0.154  -9.393   3.184  0.00  0.00    +0.098 C 
BRANCH  18  19
ATOM     19  C   UNL     1      -0.091 -10.838   2.684  0.00  0.00    +0.029 C 
BRANCH  19  20
ATOM     20  C   UNL     1      -0.183 -11.793   3.876  0.00  0.00    +0.117 C 
BRANCH  20  21
ATOM     21  N   UNL     1      -0.123 -13.177   3.397  0.00  0.00    -0.241 N 
ATOM     22  C   UNL     1      -1.270 -13.805   3.078  0.00  0.00    +0.225 C 
ATOM     23  O   UNL     1      -2.334 -13.244   3.226  0.00  0.00    -0.275 OA
ATOM     24  C   UNL     1      -1.222 -15.219   2.529  0.00  0.00    +0.082 C 
ATOM     25  C   UNL     1      -0.915 -16.155   3.724  0.00  0.00    +0.014 C 
ATOM     26  C   UNL     1       0.617 -16.146   3.887  0.00  0.00    +0.017 C 
ATOM     27  C   UNL     1       1.158 -15.206   2.783  0.00  0.00    +0.051 C 
ATOM     28  C   UNL     1       1.077 -13.776   3.288  0.00  0.00    +0.228 C 
ATOM     29  O   UNL     1       2.084 -13.190   3.622  0.00  0.00    -0.275 OA
ATOM     30  C   UNL     1       0.061 -15.295   1.655  0.00  0.00    -0.010 C 
ATOM     31  C   UNL     1       0.145 -16.629   0.910  0.00  0.00    +0.012 C 
ATOM     32  C   UNL     1       0.137 -14.117   0.681  0.00  0.00    +0.012 C 
ATOM     33  C   UNL     1       2.564 -15.581   2.309  0.00  0.00    +0.021 C 
ENDBRANCH  20  21
ENDBRANCH  19  20
ENDBRANCH  18  19
ENDBRANCH   7  18
TORSDOF 5
