REMARK  Name = ZINC19776284
REMARK  5 active torsions:
REMARK  status: ('A' for Active; 'I' for Inactive)
REMARK    1  A    between atoms: C_1  and  C_2
REMARK    2  A    between atoms: C_9  and  N_22
REMARK    3  A    between atoms: C_10  and  C_11
REMARK    4  A    between atoms: C_11  and  C_13
REMARK    5  A    between atoms: C_16  and  N_19
REMARK                            x       y       z     vdW  Elec       q    Type
REMARK                         _______ _______ _______ _____ _____    ______ ____
ROOT
ATOM      1  C   UNL     1      -1.901   5.033   0.624  0.00  0.00    +0.008 C 
ATOM      2  C   UNL     1      -0.769   4.014   0.772  0.00  0.00    -0.009 C 
ATOM      3  C   UNL     1       0.444   4.472  -0.043  0.00  0.00    +0.008 C 
ATOM      4  C   UNL     1       1.655   3.600   0.294  0.00  0.00    +0.037 C 
ATOM      5  C   UNL     1       1.265   2.136   0.137  0.00  0.00    -0.024 A 
ATOM      6  C   UNL     1      -0.031   1.760   0.121  0.00  0.00    -0.004 A 
ATOM      7  S   UNL     1       0.008   0.001  -0.079  0.00  0.00    -0.078 S 
ATOM      8  C   UNL     1       1.723  -0.237  -0.140  0.00  0.00    +0.074 A 
ATOM      9  C   UNL     1       2.227   1.054  -0.005  0.00  0.00    +0.054 A 
ATOM     10  C   UNL     1      -1.231   2.647   0.252  0.00  0.00    +0.046 C 
ENDROOT
BRANCH   8  11
ATOM     11  N   UNL     1       2.421  -1.419  -0.289  0.00  0.00    -0.352 N 
ATOM     12  H   UNL     1       3.521  -1.409  -0.310  0.00  0.00    +0.143 HD
ATOM     13  H   UNL     1       1.877  -2.370  -0.386  0.00  0.00    +0.143 HD
ENDBRANCH   8  11
BRANCH   9  14
ATOM     14  C   UNL     1       3.667   1.312  -0.004  0.00  0.00    +0.196 C 
ATOM     15  O   UNL     1       4.249   1.516  -1.054  0.00  0.00    -0.287 OA
BRANCH  14  16
ATOM     16  C   UNL     1       4.415   1.327   1.272  0.00  0.00    +0.022 A 
ATOM     17  C   UNL     1       3.773   0.992   2.465  0.00  0.00    +0.014 A 
ATOM     18  C   UNL     1       4.478   1.003   3.651  0.00  0.00    +0.033 A 
ATOM     19  C   UNL     1       5.816   1.355   3.660  0.00  0.00    +0.126 A 
ATOM     20  C   UNL     1       6.457   1.693   2.482  0.00  0.00    +0.033 A 
ATOM     21  C   UNL     1       5.765   1.681   1.288  0.00  0.00    +0.014 A 
BRANCH  19  22
ATOM     22  N   UNL     1       6.564   1.370   4.937  0.00  0.00    +0.056 N 
ATOM     23  O   UNL     1       7.742   1.680   4.949  0.00  0.00    -0.126 OA
ATOM     24  O   UNL     1       6.003   1.073   5.976  0.00  0.00    -0.126 OA
ENDBRANCH  19  22
ENDBRANCH  14  16
ENDBRANCH   9  14
TORSDOF 4
