REMARK  Name = ZINC38597787
REMARK  10 active torsions:
REMARK  status: ('A' for Active; 'I' for Inactive)
REMARK    1  A    between atoms: C_1  and  C_2
REMARK    2  A    between atoms: C_2  and  C_3
REMARK    3  A    between atoms: C_2  and  C_4
REMARK    4  A    between atoms: C_7  and  S_10
REMARK    5  A    between atoms: S_10  and  N_13
REMARK    6  A    between atoms: N_13  and  C_14
REMARK    7  A    between atoms: C_14  and  C_15
REMARK    8  A    between atoms: C_15  and  C_17
REMARK    9  A    between atoms: C_15  and  N_22
REMARK   10  A    between atoms: N_25  and  C_28
REMARK                            x       y       z     vdW  Elec       q    Type
REMARK                         _______ _______ _______ _____ _____    ______ ____
ROOT
ATOM      1  C   UNL     1      -7.648  -0.047  -2.748  0.00  0.00    +0.015 C 
ENDROOT
BRANCH   1   2
ATOM      2  N   UNL     1      -8.979  -0.555  -2.390  0.00  0.00    +0.389 N 
ATOM      3  C   UNL     1      -9.201  -1.848  -3.051  0.00  0.00    -0.059 C 
ATOM      4  C   UNL     1     -10.540  -2.433  -2.589  0.00  0.00    +0.086 C 
ATOM      5  N   UNL     1     -11.594  -1.436  -2.835  0.00  0.00    -0.333 N 
ATOM      6  C   UNL     1     -11.379  -0.065  -2.347  0.00  0.00    +0.086 C 
ATOM      7  C   UNL     1     -10.000   0.408  -2.820  0.00  0.00    -0.059 C 
ATOM      8  H   UNL     1      -9.034  -0.678  -1.390  0.00  0.00    -0.081 HD
BRANCH   5   9
ATOM      9  C   UNL     1     -12.767  -1.782  -3.513  0.00  0.00    +0.030 A 
ATOM     10  C   UNL     1     -13.005  -3.106  -3.860  0.00  0.00    +0.026 A 
ATOM     11  C   UNL     1     -14.164  -3.446  -4.528  0.00  0.00    +0.040 A 
ATOM     12  C   UNL     1     -15.089  -2.468  -4.853  0.00  0.00    +0.124 A 
ATOM     13  C   UNL     1     -14.854  -1.148  -4.508  0.00  0.00    +0.040 A 
ATOM     14  C   UNL     1     -13.699  -0.804  -3.835  0.00  0.00    +0.026 A 
ATOM     15  F   UNL     1     -16.223  -2.803  -5.508  0.00  0.00    -0.205 F 
ENDBRANCH   5   9
ENDBRANCH   1   2
BRANCH   1  16
ATOM     16  C   UNL     1      -7.595   0.224  -4.229  0.00  0.00    +0.093 A 
ATOM     17  C   UNL     1      -7.132   1.347  -4.807  0.00  0.00    +0.043 A 
ATOM     18  C   UNL     1      -7.268   1.175  -6.204  0.00  0.00    +0.041 A 
ATOM     19  C   UNL     1      -7.805  -0.043  -6.396  0.00  0.00    +0.195 A 
ATOM     20  O   UNL     1      -7.996  -0.617  -5.197  0.00  0.00    -0.469 OA
ENDBRANCH   1  16
BRANCH   1  21
ATOM     21  C   UNL     1      -6.589  -1.089  -2.382  0.00  0.00    +0.098 C 
BRANCH  21  22
ATOM     22  N   UNL     1      -6.690  -1.408  -0.955  0.00  0.00    -0.191 NA
ATOM     23  H   UNL     1      -7.214  -0.841  -0.368  0.00  0.00    +0.148 HD
BRANCH  22  24
ATOM     24  S   UNL     1      -5.910  -2.736  -0.346  0.00  0.00    +0.058 S 
ATOM     25  O   UNL     1      -6.233  -3.824  -1.200  0.00  0.00    -0.153 OA
ATOM     26  O   UNL     1      -6.175  -2.757   1.050  0.00  0.00    -0.153 OA
BRANCH  24  30
ATOM     27  C   UNL     1      -1.466  -2.007  -0.806  0.00  0.00    -0.045 A 
ATOM     28  C   UNL     1      -2.116  -1.605   0.345  0.00  0.00    +0.006 A 
ATOM     29  C   UNL     1      -3.474  -1.827   0.485  0.00  0.00    +0.029 A 
ATOM     30  C   UNL     1      -4.180  -2.451  -0.526  0.00  0.00    +0.105 A 
ATOM     31  C   UNL     1      -3.529  -2.853  -1.677  0.00  0.00    +0.029 A 
ATOM     32  C   UNL     1      -2.173  -2.627  -1.820  0.00  0.00    +0.006 A 
BRANCH  27  34
ATOM     33  C   UNL     1       0.296  -0.264  -0.875  0.00  0.00    +0.012 C 
ATOM     34  C   UNL     1       0.014  -1.765  -0.960  0.00  0.00    +0.013 C 
ATOM     35  C   UNL     1       0.767  -2.490   0.157  0.00  0.00    +0.012 C 
ENDBRANCH  27  34
ENDBRANCH  24  30
ENDBRANCH  22  24
ENDBRANCH  21  22
ENDBRANCH   1  21
TORSDOF 8
