REMARK  Name = ZINC64900808
REMARK  5 active torsions:
REMARK  status: ('A' for Active; 'I' for Inactive)
REMARK    1  A    between atoms: C_4  and  C_7
REMARK    2  A    between atoms: C_8  and  C_18
REMARK    3  A    between atoms: C_10  and  C_12
REMARK    4  A    between atoms: N_20  and  N_21
REMARK    5  A    between atoms: N_24  and  C_25
REMARK                            x       y       z     vdW  Elec       q    Type
REMARK                         _______ _______ _______ _____ _____    ______ ____
ROOT
ATOM      1  C   UNL     1       3.705  -0.674  -0.020  0.00  0.00    +0.091 A 
ATOM      2  C   UNL     1       3.911  -1.850   0.713  0.00  0.00    +0.103 A 
ATOM      3  S   UNL     1       5.593  -2.234   0.254  0.00  0.00    -0.062 S 
ATOM      4  C   UNL     1       5.862  -0.929  -0.774  0.00  0.00    +0.110 A 
ATOM      5  N   UNL     1       4.720  -0.267  -0.750  0.00  0.00    -0.238 NA
ENDROOT
BRANCH   1   9
ATOM      6  C   UNL     1       0.018   1.438   0.094  0.00  0.00    +0.000 A 
ATOM      7  C   UNL     1       0.647   1.215  -1.118  0.00  0.00    +0.001 A 
ATOM      8  C   UNL     1       1.845   0.530  -1.161  0.00  0.00    +0.010 A 
ATOM      9  C   UNL     1       2.420   0.062   0.020  0.00  0.00    +0.002 A 
ATOM     10  C   UNL     1       1.781   0.290   1.238  0.00  0.00    +0.010 A 
ATOM     11  C   UNL     1       0.584   0.976   1.269  0.00  0.00    +0.001 A 
ENDBRANCH   1   9
BRANCH   4  12
ATOM     12  C   UNL     1       7.089  -0.603  -1.531  0.00  0.00    +0.007 A 
ATOM     13  C   UNL     1       7.133   0.535  -2.338  0.00  0.00    +0.010 A 
ATOM     14  C   UNL     1       8.282   0.833  -3.041  0.00  0.00    +0.001 A 
ATOM     15  C   UNL     1       9.388   0.008  -2.949  0.00  0.00    +0.000 A 
ATOM     16  C   UNL     1       9.351  -1.122  -2.151  0.00  0.00    +0.001 A 
ATOM     17  C   UNL     1       8.210  -1.429  -1.438  0.00  0.00    +0.010 A 
ENDBRANCH   4  12
BRANCH   2  18
ATOM     18  C   UNL     1       3.000  -2.566   1.608  0.00  0.00    +0.269 C 
ATOM     19  O   UNL     1       1.841  -2.207   1.710  0.00  0.00    -0.268 OA
ATOM     20  N   UNL     1       3.443  -3.622   2.318  0.00  0.00    -0.229 N 
ATOM     21  H   UNL     1       4.367  -3.908   2.236  0.00  0.00    +0.173 HD
BRANCH  20  22
ATOM     22  N   UNL     1       2.571  -4.307   3.174  0.00  0.00    -0.218 N 
ATOM     23  C   UNL     1       3.015  -5.363   3.884  0.00  0.00    +0.316 C 
ATOM     24  O   UNL     1       2.258  -5.957   4.627  0.00  0.00    -0.251 OA
ATOM     25  N   UNL     1       4.298  -5.760   3.770  0.00  0.00    -0.295 N 
ATOM     26  H   UNL     1       1.648  -4.021   3.256  0.00  0.00    +0.174 HD
ATOM     27  H   UNL     1       4.902  -5.286   3.177  0.00  0.00    +0.151 HD
BRANCH  25  28
ATOM     28  C   UNL     1       4.780  -6.908   4.542  0.00  0.00    +0.075 C 
ATOM     29  C   UNL     1       6.145  -6.780   5.221  0.00  0.00    +0.024 C 
ATOM     30  C   UNL     1       5.984  -7.675   3.990  0.00  0.00    +0.024 C 
ENDBRANCH  25  28
ENDBRANCH  20  22
ENDBRANCH   2  18
TORSDOF 5
