REMARK  Name = ZINC32447086
REMARK  11 active torsions:
REMARK  status: ('A' for Active; 'I' for Inactive)
REMARK    1  A    between atoms: C_1  and  C_2
REMARK    2  A    between atoms: C_2  and  C_3
REMARK    3  A    between atoms: C_3  and  C_5
REMARK    4  A    between atoms: C_3  and  N_24
REMARK    5  A    between atoms: C_5  and  N_6
REMARK    6  A    between atoms: C_7  and  C_9
REMARK    7  A    between atoms: C_11  and  O_22
REMARK    8  A    between atoms: C_12  and  O_18
REMARK    9  A    between atoms: C_14  and  N_15
REMARK   10  A    between atoms: O_18  and  C_19
REMARK   11  A    between atoms: O_22  and  C_23
REMARK                            x       y       z     vdW  Elec       q    Type
REMARK                         _______ _______ _______ _____ _____    ______ ____
ROOT
ATOM      1  N   UNL     1       0.942  -0.651  -1.480  0.00  0.00    -0.313 N 
ATOM      2  C   UNL     1       1.142  -1.282  -2.654  0.00  0.00    +0.246 C 
ATOM      3  O   UNL     1       1.627  -0.679  -3.593  0.00  0.00    -0.270 OA
ATOM      4  H   UNL     1       0.503  -1.196  -0.631  0.00  0.00    +0.149 HD
ENDROOT
BRANCH   2   5
ATOM      5  C   UNL     1       0.772  -2.703  -2.802  0.00  0.00    +0.070 A 
ATOM      6  C   UNL     1       0.087  -3.358  -1.774  0.00  0.00    +0.064 A 
ATOM      7  C   UNL     1      -0.263  -4.686  -1.920  0.00  0.00    +0.163 A 
ATOM      8  C   UNL     1       0.077  -5.373  -3.084  0.00  0.00    +0.170 A 
ATOM      9  C   UNL     1       0.762  -4.724  -4.102  0.00  0.00    +0.083 A 
ATOM     10  C   UNL     1       1.109  -3.397  -3.966  0.00  0.00    +0.142 A 
BRANCH  10  11
ATOM     11  N   UNL     1       1.839  -2.708  -5.053  0.00  0.00    +0.057 N 
ATOM     12  O   UNL     1       1.443  -2.792  -6.202  0.00  0.00    -0.126 OA
ATOM     13  O   UNL     1       2.836  -2.055  -4.799  0.00  0.00    -0.126 OA
ENDBRANCH  10  11
BRANCH   7  14
ATOM     14  O   UNL     1      -0.935  -5.325  -0.924  0.00  0.00    -0.491 OA
ATOM     15  C   UNL     1      -1.250  -4.560   0.240  0.00  0.00    +0.277 C 
ENDBRANCH   7  14
BRANCH   8  16
ATOM     16  O   UNL     1      -0.263  -6.681  -3.224  0.00  0.00    -0.430 OA
BRANCH  16  17
ATOM     17  C   UNL     1       0.116  -7.323  -4.442  0.00  0.00    +0.541 C 
ATOM     18  F   UNL     1      -0.479  -6.663  -5.522  0.00  0.00    -0.166 F 
ATOM     19  F   UNL     1       1.508  -7.280  -4.579  0.00  0.00    -0.166 F 
ENDBRANCH  16  17
ENDBRANCH   8  16
ENDBRANCH   2   5
BRANCH   1  20
ATOM     20  C   UNL     1       1.310   0.759  -1.334  0.00  0.00    +0.089 C 
BRANCH  20  21
ATOM     21  C   UNL     1       1.105   1.192   0.119  0.00  0.00    -0.051 C 
BRANCH  21  22
ATOM     22  N   UNL     1       1.402   2.624   0.251  0.00  0.00    +0.385 N 
ATOM     23  C   UNL     1       0.376   3.439  -0.419  0.00  0.00    -0.073 C 
ATOM     24  C   UNL     1       0.523   4.887   0.051  0.00  0.00    +0.017 C 
ATOM     25  C   UNL     1       1.957   5.329  -0.086  0.00  0.00    -0.048 A 
ATOM     26  C   UNL     1       2.236   6.687  -0.054  0.00  0.00    +0.004 A 
ATOM     27  C   UNL     1       3.537   7.135  -0.172  0.00  0.00    +0.000 A 
ATOM     28  C   UNL     1       4.566   6.224  -0.322  0.00  0.00    +0.000 A 
ATOM     29  C   UNL     1       4.289   4.872  -0.354  0.00  0.00    +0.002 A 
ATOM     30  C   UNL     1       2.983   4.421  -0.238  0.00  0.00    -0.061 A 
ATOM     31  C   UNL     1       2.730   2.937  -0.288  0.00  0.00    -0.042 C 
ATOM     32  H   UNL     1       1.399   2.869   1.323  0.00  0.00    -0.081 HD
ENDBRANCH  21  22
BRANCH  21  34
ATOM     33  C   UNL     1       1.750   0.733   2.489  0.00  0.00    +0.002 C 
ATOM     34  C   UNL     1       2.042   0.392   1.027  0.00  0.00    -0.017 C 
ENDBRANCH  21  34
ENDBRANCH  20  21
ENDBRANCH   1  20
TORSDOF 9
