REMARK  Name = ZINC09276727
REMARK  9 active torsions:
REMARK  status: ('A' for Active; 'I' for Inactive)
REMARK    1  A    between atoms: C_1  and  C_2
REMARK    2  A    between atoms: C_5  and  N_8
REMARK    3  A    between atoms: C_14  and  S_15
REMARK    4  A    between atoms: S_15  and  C_16
REMARK    5  A    between atoms: C_16  and  C_17
REMARK    6  A    between atoms: N_19  and  C_20
REMARK    7  A    between atoms: C_24  and  C_27
REMARK    8  A    between atoms: C_25  and  C_26
REMARK    9  A    between atoms: C_29  and  C_32
REMARK                            x       y       z     vdW  Elec       q    Type
REMARK                         _______ _______ _______ _____ _____    ______ ____
ROOT
ATOM      1  N   UNL     1      -2.327  -0.150  -0.023  0.00  0.00    -0.255 N 
ATOM      2  C   UNL     1      -1.222  -0.928  -0.056  0.00  0.00    +0.273 A 
ATOM      3  O   UNL     1      -1.315  -2.145  -0.059  0.00  0.00    -0.266 OA
ATOM      4  C   UNL     1       0.034  -0.306  -0.087  0.00  0.00    +0.094 A 
ATOM      5  C   UNL     1       0.150   1.069  -0.096  0.00  0.00    +0.064 A 
ATOM      6  N   UNL     1      -0.999   1.777  -0.057  0.00  0.00    -0.227 NA
ATOM      7  C   UNL     1      -2.177   1.206  -0.019  0.00  0.00    +0.177 A 
ATOM      8  C   UNL     1       1.551   1.627  -0.154  0.00  0.00    +0.071 C 
ATOM      9  C   UNL     1       2.603   0.584   0.287  0.00  0.00    +0.054 C 
ATOM     10  S   UNL     1       1.687  -0.961  -0.119  0.00  0.00    -0.115 S 
ATOM     11  C   UNL     1       3.888   0.703  -0.536  0.00  0.00    +0.020 C 
ENDROOT
BRANCH   1  16
ATOM     12  C   UNL     1      -7.499  -2.482   0.095  0.00  0.00    +0.044 C 
ATOM     13  C   UNL     1      -6.126  -1.863   0.064  0.00  0.00    -0.050 A 
ATOM     14  C   UNL     1      -5.673  -1.133   1.148  0.00  0.00    +0.005 A 
ATOM     15  C   UNL     1      -4.415  -0.565   1.122  0.00  0.00    +0.026 A 
ATOM     16  C   UNL     1      -3.604  -0.726   0.006  0.00  0.00    +0.052 A 
ATOM     17  C   UNL     1      -4.064  -1.455  -1.083  0.00  0.00    +0.026 A 
ATOM     18  C   UNL     1      -5.321  -2.025  -1.049  0.00  0.00    +0.005 A 
ENDBRANCH   1  16
BRANCH   7  19
ATOM     19  S   UNL     1      -3.615   2.223   0.035  0.00  0.00    -0.078 S 
BRANCH  19  20
ATOM     20  C   UNL     1      -2.843   3.860   0.020  0.00  0.00    +0.173 C 
BRANCH  20  21
ATOM     21  C   UNL     1      -3.914   4.920   0.062  0.00  0.00    +0.227 C 
ATOM     22  O   UNL     1      -5.083   4.600   0.099  0.00  0.00    -0.275 OA
ATOM     23  N   UNL     1      -3.571   6.224   0.060  0.00  0.00    -0.285 N 
ATOM     24  H   UNL     1      -2.640   6.480  -0.026  0.00  0.00    +0.155 HD
BRANCH  23  25
ATOM     25  C   UNL     1      -4.560   7.207   0.180  0.00  0.00    +0.037 A 
ATOM     26  C   UNL     1      -5.862   6.937  -0.219  0.00  0.00    +0.023 A 
ATOM     27  C   UNL     1      -6.837   7.907  -0.093  0.00  0.00    +0.002 A 
ATOM     28  C   UNL     1      -6.514   9.150   0.420  0.00  0.00    +0.004 A 
ATOM     29  C   UNL     1      -5.217   9.424   0.813  0.00  0.00    -0.046 A 
ATOM     30  C   UNL     1      -4.239   8.456   0.695  0.00  0.00    -0.026 A 
ATOM     31  C   UNL     1      -2.826   8.755   1.124  0.00  0.00    +0.046 C 
ATOM     32  C   UNL     1      -4.870  10.780   1.371  0.00  0.00    +0.044 C 
ENDBRANCH  23  25
ENDBRANCH  20  21
ENDBRANCH  19  20
ENDBRANCH   7  19
TORSDOF 5
