REMARK  Name = ZINC13916006
REMARK  10 active torsions:
REMARK  status: ('A' for Active; 'I' for Inactive)
REMARK    1  A    between atoms: C_1  and  C_2
REMARK    2  A    between atoms: C_4  and  C_35
REMARK    3  A    between atoms: C_5  and  C_18
REMARK    4  A    between atoms: C_7  and  C_8
REMARK    5  A    between atoms: C_8  and  S_9
REMARK    6  A    between atoms: S_9  and  C_10
REMARK    7  A    between atoms: C_28  and  C_34
REMARK    8  A    between atoms: C_29  and  C_30
REMARK    9  A    between atoms: C_30  and  O_32
REMARK   10  A    between atoms: O_32  and  C_33
REMARK                            x       y       z     vdW  Elec       q    Type
REMARK                         _______ _______ _______ _____ _____    ______ ____
ROOT
ATOM      1  C   UNL     1      -0.252  -4.603  -2.609  0.00  0.00    +0.044 C 
ATOM      2  C   UNL     1      -0.505  -5.222  -1.258  0.00  0.00    -0.046 A 
ATOM      3  C   UNL     1      -0.742  -6.580  -1.154  0.00  0.00    +0.007 A 
ATOM      4  C   UNL     1      -0.979  -7.147   0.084  0.00  0.00    -0.046 A 
ATOM      5  C   UNL     1      -0.975  -6.357   1.218  0.00  0.00    -0.032 A 
ATOM      6  C   UNL     1      -0.734  -5.000   1.115  0.00  0.00    +0.009 A 
ATOM      7  C   UNL     1      -0.496  -4.433  -0.123  0.00  0.00    -0.034 A 
ATOM      8  C   UNL     1      -1.241  -8.627   0.197  0.00  0.00    +0.044 C 
ENDROOT
BRANCH   5   9
ATOM      9  C   UNL     1      -1.233  -6.976   2.568  0.00  0.00    +0.092 C 
ATOM     10  C   UNL     1      -2.473  -6.360   3.166  0.00  0.00    +0.024 C 
ATOM     11  C   UNL     1      -2.380  -5.427   4.138  0.00  0.00    +0.015 C 
ATOM     12  C   UNL     1      -3.616  -4.809   4.742  0.00  0.00    +0.051 C 
ATOM     13  C   UNL     1      -4.734  -4.766   3.698  0.00  0.00    +0.014 C 
ATOM     14  C   UNL     1      -5.003  -6.196   3.217  0.00  0.00    +0.080 C 
ATOM     15  C   UNL     1      -3.724  -6.781   2.682  0.00  0.00    +0.162 C 
ATOM     16  O   UNL     1      -3.774  -7.633   1.817  0.00  0.00    -0.292 OA
ATOM     17  N   UNL     1      -1.156  -5.025   4.599  0.00  0.00    -0.321 N 
ATOM     18  C   UNL     1      -0.049  -5.803   4.405  0.00  0.00    +0.016 C 
ATOM     19  C   UNL     1      -0.041  -6.749   3.450  0.00  0.00    +0.065 C 
ATOM     20  C   UNL     1       1.171  -5.598   5.266  0.00  0.00    +0.061 C 
ATOM     21  H   UNL     1      -1.056  -4.068   5.132  0.00  0.00    +0.152 HD
BRANCH  19  22
ATOM     22  C   UNL     1       1.114  -7.547   3.274  0.00  0.00    +0.337 C 
ATOM     23  O   UNL     1       2.087  -7.373   3.983  0.00  0.00    -0.245 OA
BRANCH  22  24
ATOM     24  O   UNL     1       1.135  -8.502   2.320  0.00  0.00    -0.465 OA
ATOM     25  C   UNL     1       2.334  -9.270   2.199  0.00  0.00    +0.280 C 
ENDBRANCH  22  24
ENDBRANCH  19  22
ENDBRANCH   5   9
BRANCH   7  26
ATOM     26  C   UNL     1      -0.233  -2.953  -0.237  0.00  0.00    +0.109 C 
BRANCH  26  27
ATOM     27  S   UNL     1       1.548  -2.643  -0.090  0.00  0.00    -0.119 S 
BRANCH  27  28
ATOM     28  C   UNL     1       1.689  -0.893  -0.240  0.00  0.00    +0.028 A 
ATOM     29  C   UNL     1       0.553  -0.116  -0.425  0.00  0.00    +0.036 A 
ATOM     30  C   UNL     1       0.667   1.256  -0.543  0.00  0.00    +0.042 A 
ATOM     31  C   UNL     1       1.913   1.857  -0.475  0.00  0.00    +0.021 A 
ATOM     32  C   UNL     1       3.046   1.086  -0.291  0.00  0.00    +0.022 A 
ATOM     33  C   UNL     1       2.939  -0.286  -0.173  0.00  0.00    +0.054 A 
ATOM     34 CL   UNL     1       4.362  -1.252   0.059  0.00  0.00    -0.082 Cl
ATOM     35 CL   UNL     1      -0.752   2.228  -0.782  0.00  0.00    -0.084 Cl
ENDBRANCH  27  28
ENDBRANCH  26  27
ENDBRANCH   7  26
TORSDOF 6
