REMARK  Name = ZINC22921932
REMARK  10 active torsions:
REMARK  status: ('A' for Active; 'I' for Inactive)
REMARK    1  A    between atoms: C_1  and  C_2
REMARK    2  A    between atoms: C_2  and  C_3
REMARK    3  A    between atoms: C_3  and  C_5
REMARK    4  A    between atoms: C_3  and  C_6
REMARK    5  A    between atoms: C_6  and  C_7
REMARK    6  A    between atoms: C_8  and  C_35
REMARK    7  A    between atoms: C_16  and  C_18
REMARK    8  A    between atoms: C_18  and  N_19
REMARK    9  A    between atoms: N_22  and  C_25
REMARK   10  A    between atoms: C_25  and  C_26
REMARK                            x       y       z     vdW  Elec       q    Type
REMARK                         _______ _______ _______ _____ _____    ______ ____
ROOT
ATOM      1  C   UNL     1      -1.300  -0.762   0.010  0.00  0.00    +0.158 C 
ENDROOT
BRANCH   1  11
ATOM      2  C   UNL     1       3.508   2.287  -0.019  0.00  0.00    -0.023 A 
ATOM      3  C   UNL     1       3.287   3.611  -0.009  0.00  0.00    -0.007 A 
ATOM      4  S   UNL     1       1.508   3.732   0.009  0.00  0.00    -0.073 S 
ATOM      5  C   UNL     1       1.115   2.002   0.002  0.00  0.00    +0.116 A 
ATOM      6  C   UNL     1       2.376   1.380  -0.013  0.00  0.00    +0.075 A 
ATOM      7  C   UNL     1       2.359  -0.053  -0.021  0.00  0.00    +0.260 A 
ATOM      8  O   UNL     1       3.401  -0.685  -0.035  0.00  0.00    -0.267 OA
ATOM      9  N   UNL     1       1.173  -0.691  -0.013  0.00  0.00    -0.309 N 
ATOM     10  H   UNL     1       1.140  -1.790  -0.019  0.00  0.00    +0.170 HD
ATOM     11  C   UNL     1       0.002  -0.004   0.002  0.00  0.00    +0.125 A 
ATOM     12  N   UNL     1      -0.016   1.302   0.009  0.00  0.00    -0.225 NA
ATOM     13  C   UNL     1       4.299   4.727  -0.011  0.00  0.00    +0.052 C 
BRANCH   2  14
ATOM     14  C   UNL     1       4.916   1.749  -0.035  0.00  0.00    +0.040 C 
BRANCH  14  15
ATOM     15  C   UNL     1       5.379   1.575  -1.483  0.00  0.00    -0.010 C 
ATOM     16  C   UNL     1       5.461   2.945  -2.160  0.00  0.00    +0.008 C 
BRANCH  15  18
ATOM     17  C   UNL     1       7.167   0.627  -2.947  0.00  0.00    +0.004 C 
ATOM     18  C   UNL     1       6.758   0.914  -1.501  0.00  0.00    +0.000 C 
ENDBRANCH  15  18
ENDBRANCH  14  15
ENDBRANCH   2  14
ENDBRANCH   1  11
BRANCH   1  19
ATOM     19  N   UNL     1      -2.420   0.189   0.026  0.00  0.00    -0.293 NA
ATOM     20  C   UNL     1      -2.451   0.945   1.286  0.00  0.00    +0.100 C 
ATOM     21  C   UNL     1      -3.580   1.977   1.231  0.00  0.00    +0.100 C 
ATOM     22  N   UNL     1      -4.858   1.289   1.001  0.00  0.00    -0.294 NA
ATOM     23  C   UNL     1      -4.827   0.533  -0.259  0.00  0.00    +0.100 C 
ATOM     24  C   UNL     1      -3.698  -0.499  -0.204  0.00  0.00    +0.100 C 
BRANCH  22  25
ATOM     25  C   UNL     1      -5.978   2.240   1.017  0.00  0.00    +0.139 C 
BRANCH  25  26
ATOM     26  C   UNL     1      -5.838   3.161   2.201  0.00  0.00    +0.048 A 
ATOM     27  C   UNL     1      -5.258   4.381   2.186  0.00  0.00    +0.115 A 
ATOM     28  N   UNL     1      -5.341   4.883   3.456  0.00  0.00    -0.308 N 
ATOM     29  C   UNL     1      -4.928   6.059   4.013  0.00  0.00    +0.092 A 
ATOM     30  C   UNL     1      -5.132   6.308   5.324  0.00  0.00    +0.018 A 
ATOM     31  C   UNL     1      -5.775   5.357   6.134  0.00  0.00    +0.005 A 
ATOM     32  C   UNL     1      -6.191   4.181   5.592  0.00  0.00    +0.045 A 
ATOM     33  C   UNL     1      -5.971   3.936   4.222  0.00  0.00    +0.115 A 
ATOM     34  N   UNL     1      -6.261   2.905   3.441  0.00  0.00    -0.342 N 
ATOM     35  H   UNL     1      -6.761   1.951   3.666  0.00  0.00    +0.167 HD
ENDBRANCH  25  26
ENDBRANCH  22  25
ENDBRANCH   1  19
TORSDOF 7
