REMARK  Name = ZINC35872237
REMARK  9 active torsions:
REMARK  status: ('A' for Active; 'I' for Inactive)
REMARK    1  A    between atoms: C_1  and  C_2
REMARK    2  A    between atoms: C_2  and  N_3
REMARK    3  A    between atoms: C_5  and  C_12
REMARK    4  A    between atoms: C_12  and  C_14
REMARK    5  A    between atoms: C_12  and  C_31
REMARK    6  A    between atoms: C_14  and  C_15
REMARK    7  A    between atoms: N_17  and  C_18
REMARK    8  A    between atoms: N_21  and  C_24
REMARK    9  A    between atoms: C_24  and  C_25
REMARK                            x       y       z     vdW  Elec       q    Type
REMARK                         _______ _______ _______ _____ _____    ______ ____
ROOT
ATOM      1  C   UNL     1       3.731  -1.678   2.928  0.00  0.00    +0.060 C 
ENDROOT
BRANCH   1   4
ATOM      2  N   UNL     1       0.711  -0.489   1.189  0.00  0.00    -0.347 N 
ATOM      3  C   UNL     1       2.038  -0.820   1.232  0.00  0.00    +0.091 A 
ATOM      4  C   UNL     1       2.368  -1.227   2.467  0.00  0.00    -0.014 A 
ATOM      5  C   UNL     1       1.154  -1.151   3.283  0.00  0.00    +0.004 A 
ATOM      6  C   UNL     1       0.142  -0.675   2.429  0.00  0.00    +0.049 A 
ATOM      7  C   UNL     1      -1.143  -0.492   2.931  0.00  0.00    +0.026 A 
ATOM      8  C   UNL     1      -1.407  -0.774   4.253  0.00  0.00    +0.002 A 
ATOM      9  C   UNL     1      -0.405  -1.240   5.092  0.00  0.00    +0.001 A 
ATOM     10  C   UNL     1       0.862  -1.436   4.618  0.00  0.00    +0.010 A 
BRANCH   2  12
ATOM     11  C   UNL     1      -0.019   1.526   0.010  0.00  0.00    +0.027 C 
ATOM     12  C   UNL     1       0.002  -0.004   0.002  0.00  0.00    +0.118 C 
ENDBRANCH   2  12
ENDBRANCH   1   4
BRANCH   1  13
ATOM     13  C   UNL     1       4.721  -0.559   2.737  0.00  0.00    -0.036 A 
ATOM     14  C   UNL     1       4.944  -0.043   1.473  0.00  0.00    +0.008 A 
ATOM     15  C   UNL     1       5.851   0.984   1.293  0.00  0.00    +0.050 A 
ATOM     16  C   UNL     1       6.541   1.499   2.378  0.00  0.00    +0.166 A 
ATOM     17  C   UNL     1       6.317   0.979   3.651  0.00  0.00    +0.167 A 
ATOM     18  C   UNL     1       5.402  -0.046   3.825  0.00  0.00    +0.053 A 
ATOM     19  O   UNL     1       7.108   1.647   4.540  0.00  0.00    -0.453 OA
ATOM     20  C   UNL     1       8.115   2.300   3.744  0.00  0.00    +0.466 C 
ATOM     21  O   UNL     1       7.472   2.493   2.470  0.00  0.00    -0.453 OA
ENDBRANCH   1  13
BRANCH   1  22
ATOM     22  C   UNL     1       4.170  -2.893   2.109  0.00  0.00    +0.108 C 
BRANCH  22  23
ATOM     23  C   UNL     1       3.249  -4.051   2.396  0.00  0.00    +0.214 C 
ATOM     24  O   UNL     1       2.332  -3.918   3.178  0.00  0.00    -0.276 OA
ATOM     25  N   UNL     1       3.445  -5.236   1.782  0.00  0.00    -0.313 N 
ATOM     26  H   UNL     1       4.178  -5.343   1.157  0.00  0.00    +0.149 HD
BRANCH  25  27
ATOM     27  C   UNL     1       2.549  -6.361   2.061  0.00  0.00    +0.069 C 
ATOM     28  C   UNL     1       3.034  -7.105   3.309  0.00  0.00    +0.003 C 
ATOM     29  C   UNL     1       2.142  -8.325   3.548  0.00  0.00    -0.077 C 
ATOM     30  N   UNL     1       2.210  -9.220   2.387  0.00  0.00    +0.382 N 
ATOM     31  C   UNL     1       1.679  -8.537   1.200  0.00  0.00    -0.077 C 
ATOM     32  C   UNL     1       2.554  -7.325   0.871  0.00  0.00    +0.003 C 
ATOM     33  H   UNL     1       3.170  -9.482   2.221  0.00  0.00    -0.081 HD
BRANCH  30  34
ATOM     34  C   UNL     1       1.414 -10.426   2.653  0.00  0.00    -0.043 C 
BRANCH  34  35
ATOM     35  C   UNL     1       1.581 -11.399   1.514  0.00  0.00    -0.064 A 
ATOM     36  C   UNL     1       0.725 -11.348   0.430  0.00  0.00    +0.002 A 
ATOM     37  C   UNL     1       0.878 -12.240  -0.615  0.00  0.00    +0.000 A 
ATOM     38  C   UNL     1       1.887 -13.184  -0.575  0.00  0.00    +0.000 A 
ATOM     39  C   UNL     1       2.744 -13.235   0.509  0.00  0.00    +0.000 A 
ATOM     40  C   UNL     1       2.593 -12.339   1.552  0.00  0.00    +0.002 A 
ENDBRANCH  34  35
ENDBRANCH  30  34
ENDBRANCH  25  27
ENDBRANCH  22  23
ENDBRANCH   1  22
TORSDOF 8
