REMARK  Name = ZINC36301874
REMARK  17 active torsions:
REMARK  status: ('A' for Active; 'I' for Inactive)
REMARK    1  A    between atoms: C_1  and  C_2
REMARK    2  A    between atoms: C_2  and  C_3
REMARK    3  A    between atoms: C_3  and  N_4
REMARK    4  A    between atoms: N_4  and  C_5
REMARK    5  A    between atoms: N_4  and  C_28
REMARK    6  A    between atoms: C_5  and  C_6
REMARK    7  A    between atoms: C_7  and  C_27
REMARK    8  A    between atoms: N_9  and  C_20
REMARK    9  A    between atoms: C_10  and  O_11
REMARK   10  A    between atoms: O_11  and  C_12
REMARK   11  A    between atoms: C_17  and  O_18
REMARK   12  A    between atoms: O_18  and  C_19
REMARK   13  A    between atoms: C_28  and  C_29
REMARK   14  A    between atoms: C_29  and  C_31
REMARK   15  A    between atoms: C_29  and  O_35
REMARK   16  A    between atoms: C_31  and  C_32
REMARK   17  A    between atoms: C_32  and  C_33
REMARK                            x       y       z     vdW  Elec       q    Type
REMARK                         _______ _______ _______ _____ _____    ______ ____
ROOT
ATOM      1  C   UNL     1      -3.346  -1.803  -1.422  0.00  0.00    +0.021 A 
ATOM      2  C   UNL     1      -3.706  -0.455  -1.506  0.00  0.00    +0.065 A 
ATOM      3  N   UNL     1      -3.758  -0.118  -2.769  0.00  0.00    -0.168 NA
ATOM      4  N   UNL     1      -3.433  -1.241  -3.540  0.00  0.00    -0.200 N 
ATOM      5  C   UNL     1      -3.176  -2.270  -2.688  0.00  0.00    +0.225 A 
ATOM      6  C   UNL     1      -3.987   0.456  -0.339  0.00  0.00    +0.068 C 
ENDROOT
BRANCH   4   7
ATOM      7  C   UNL     1      -3.376  -1.294  -4.940  0.00  0.00    +0.069 A 
ATOM      8  C   UNL     1      -2.368  -2.012  -5.569  0.00  0.00    +0.029 A 
ATOM      9  C   UNL     1      -2.314  -2.063  -6.948  0.00  0.00    +0.022 A 
ATOM     10  C   UNL     1      -3.265  -1.399  -7.703  0.00  0.00    +0.041 A 
ATOM     11  C   UNL     1      -4.271  -0.683  -7.079  0.00  0.00    +0.022 A 
ATOM     12  C   UNL     1      -4.332  -0.634  -5.700  0.00  0.00    +0.029 A 
ATOM     13 CL   UNL     1      -3.194  -1.463  -9.437  0.00  0.00    -0.084 Cl
ENDBRANCH   4   7
BRANCH   1  14
ATOM     14  C   UNL     1      -3.172  -2.598  -0.153  0.00  0.00    -0.036 C 
BRANCH  14  15
ATOM     15  N   UNL     1      -1.745  -2.661   0.192  0.00  0.00    +0.384 N 
ATOM     16  H   UNL     1      -1.225  -3.024  -0.593  0.00  0.00    -0.081 HD
BRANCH  15  17
ATOM     17  C   UNL     1      -1.260  -1.314   0.520  0.00  0.00    -0.079 C 
BRANCH  17  19
ATOM     18  C   UNL     1      -1.518   0.619   2.081  0.00  0.00    +0.002 C 
ATOM     19  C   UNL     1      -1.946  -0.822   1.796  0.00  0.00    -0.022 C 
ENDBRANCH  17  19
ENDBRANCH  15  17
BRANCH  15  20
ATOM     20  C   UNL     1      -1.561  -3.544   1.352  0.00  0.00    -0.047 C 
BRANCH  20  21
ATOM     21  C   UNL     1      -0.067  -3.699   1.643  0.00  0.00    +0.098 C 
BRANCH  21  22
ATOM     22  O   UNL     1       0.583  -4.272   0.506  0.00  0.00    -0.394 OA
ATOM     23  H   UNL     1       0.248  -5.145   0.261  0.00  0.00    +0.210 HD
ENDBRANCH  21  22
BRANCH  21  24
ATOM     24  C   UNL     1       0.124  -4.613   2.855  0.00  0.00    +0.033 C 
BRANCH  24  25
ATOM     25  C   UNL     1       1.608  -4.668   3.222  0.00  0.00    +0.029 C 
BRANCH  25  26
ATOM     26  C   UNL     1       1.797  -5.569   4.416  0.00  0.00    -0.034 C 
ATOM     27  C   UNL     1       2.633  -6.575   4.351  0.00  0.00    +0.004 C 
ENDBRANCH  25  26
ENDBRANCH  24  25
ENDBRANCH  21  24
ENDBRANCH  20  21
ENDBRANCH  15  20
ENDBRANCH  14  15
ENDBRANCH   1  14
BRANCH   5  28
ATOM     28  O   UNL     1      -2.819  -3.532  -3.038  0.00  0.00    -0.434 OA
BRANCH  28  29
ATOM     29  C   UNL     1      -3.808  -4.416  -3.334  0.00  0.00    +0.172 A 
ATOM     30  C   UNL     1      -5.128  -3.993  -3.380  0.00  0.00    +0.050 A 
ATOM     31  C   UNL     1      -6.132  -4.893  -3.682  0.00  0.00    +0.004 A 
ATOM     32  C   UNL     1      -5.824  -6.216  -3.940  0.00  0.00    +0.004 A 
ATOM     33  C   UNL     1      -4.511  -6.645  -3.896  0.00  0.00    +0.049 A 
ATOM     34  C   UNL     1      -3.498  -5.747  -3.599  0.00  0.00    +0.162 A 
BRANCH  34  35
ATOM     35  O   UNL     1      -2.205  -6.165  -3.562  0.00  0.00    -0.491 OA
ATOM     36  C   UNL     1      -1.961  -7.545  -3.844  0.00  0.00    +0.277 C 
ENDBRANCH  34  35
ENDBRANCH  28  29
ENDBRANCH   5  28
TORSDOF 14
