REMARK  Name = ZINC67185211
REMARK  8 active torsions:
REMARK  status: ('A' for Active; 'I' for Inactive)
REMARK    1  A    between atoms: C_1  and  N_2
REMARK    2  A    between atoms: C_4  and  C_16
REMARK    3  A    between atoms: C_5  and  C_7
REMARK    4  A    between atoms: C_16  and  N_17
REMARK    5  A    between atoms: N_17  and  C_18
REMARK    6  A    between atoms: C_18  and  C_19
REMARK    7  A    between atoms: C_19  and  C_20
REMARK    8  A    between atoms: C_20  and  C_21
REMARK                            x       y       z     vdW  Elec       q    Type
REMARK                         _______ _______ _______ _____ _____    ______ ____
ROOT
ATOM      1  C   UNL     1       0.040  -3.291  -1.582  0.00  0.00    -0.043 C 
ENDROOT
BRANCH   1   5
ATOM      2  C   UNL     1      -0.018   1.461   0.010  0.00  0.00    +0.172 C 
ATOM      3  N   UNL     1       0.002  -0.004   0.002  0.00  0.00    -0.274 N 
ATOM      4  C   UNL     1       0.008  -0.790  -1.096  0.00  0.00    +0.110 A 
ATOM      5  C   UNL     1       0.028  -2.077  -0.689  0.00  0.00    -0.016 A 
ATOM      6  C   UNL     1       0.034  -2.084   0.721  0.00  0.00    +0.129 A 
ATOM      7  N   UNL     1       0.025  -0.832   1.132  0.00  0.00    -0.168 NA
BRANCH   6   8
ATOM      8  C   UNL     1       0.055  -3.283   1.586  0.00  0.00    +0.156 A 
ATOM      9  C   UNL     1       0.693  -3.373   2.777  0.00  0.00    +0.060 A 
ATOM     10  C   UNL     1       0.443  -4.729   3.271  0.00  0.00    +0.021 A 
ATOM     11  C   UNL     1       0.817  -5.433   4.417  0.00  0.00    +0.011 A 
ATOM     12  C   UNL     1       0.406  -6.726   4.583  0.00  0.00    +0.001 A 
ATOM     13  C   UNL     1      -0.379  -7.342   3.619  0.00  0.00    +0.004 A 
ATOM     14  C   UNL     1      -0.758  -6.664   2.479  0.00  0.00    +0.047 A 
ATOM     15  C   UNL     1      -0.353  -5.349   2.291  0.00  0.00    +0.136 A 
ATOM     16  O   UNL     1      -0.563  -4.448   1.309  0.00  0.00    -0.453 OA
ENDBRANCH   6   8
ENDBRANCH   1   5
BRANCH   1  17
ATOM     17  N   UNL     1      -1.317  -3.846  -1.673  0.00  0.00    +0.382 N 
ATOM     18  H   UNL     1      -1.634  -4.110  -0.752  0.00  0.00    -0.085 HD
ATOM     19  H   UNL     1      -1.939  -3.152  -2.058  0.00  0.00    -0.085 HD
BRANCH  17  20
ATOM     20  C   UNL     1      -1.304  -5.029  -2.544  0.00  0.00    -0.082 C 
BRANCH  20  21
ATOM     21  C   UNL     1      -2.717  -5.608  -2.638  0.00  0.00    -0.011 C 
BRANCH  21  22
ATOM     22  C   UNL     1      -2.705  -6.840  -3.545  0.00  0.00    +0.072 C 
BRANCH  22  23
ATOM     23  C   UNL     1      -4.097  -7.410  -3.638  0.00  0.00    +0.108 A 
ATOM     24  N   UNL     1      -4.769  -7.639  -4.798  0.00  0.00    -0.342 N 
ATOM     25  H   UNL     1      -4.442  -7.468  -5.696  0.00  0.00    +0.167 HD
ATOM     26  C   UNL     1      -6.002  -8.161  -4.462  0.00  0.00    +0.066 A 
ATOM     27  C   UNL     1      -7.104  -8.585  -5.192  0.00  0.00    +0.028 A 
ATOM     28  C   UNL     1      -8.214  -9.070  -4.534  0.00  0.00    +0.002 A 
ATOM     29  C   UNL     1      -8.236  -9.136  -3.148  0.00  0.00    +0.002 A 
ATOM     30  C   UNL     1      -7.162  -8.723  -2.413  0.00  0.00    +0.030 A 
ATOM     31  C   UNL     1      -6.025  -8.228  -3.059  0.00  0.00    +0.089 A 
ATOM     32  N   UNL     1      -4.829  -7.759  -2.621  0.00  0.00    -0.232 NA
ENDBRANCH  22  23
ENDBRANCH  21  22
ENDBRANCH  20  21
ENDBRANCH  17  20
ENDBRANCH   1  17
TORSDOF 7
