REMARK  Name = ZINC55189260
REMARK  3 active torsions:
REMARK  status: ('A' for Active; 'I' for Inactive)
REMARK    1  A    between atoms: C_1  and  C_2
REMARK    2  A    between atoms: C_7  and  C_10
REMARK    3  A    between atoms: C_11  and  C_13
REMARK                            x       y       z     vdW  Elec       q    Type
REMARK                         _______ _______ _______ _____ _____    ______ ____
ROOT
ATOM      1  C   UNL     1      -0.041   1.869   1.437  0.00  0.00    +0.007 C 
ATOM      2  C   UNL     1      -0.101   0.412   0.975  0.00  0.00    -0.011 C 
ATOM      3  C   UNL     1      -1.547  -0.085   1.039  0.00  0.00    +0.022 C 
ATOM      4  C   UNL     1      -1.607  -1.533   0.543  0.00  0.00    +0.108 C 
ATOM      5  N   UNL     1      -0.657  -2.340   1.320  0.00  0.00    -0.293 N 
ATOM      6  C   UNL     1       0.743  -1.901   1.399  0.00  0.00    +0.074 C 
ATOM      7  C   UNL     1       0.777  -0.449   1.886  0.00  0.00    +0.025 C 
ATOM      8  C   UNL     1       1.389  -1.996   0.016  0.00  0.00    +0.028 C 
ATOM      9  C   UNL     1      -1.061  -3.461   1.949  0.00  0.00    +0.266 C 
ATOM     10  O   UNL     1      -0.263  -4.123   2.585  0.00  0.00    -0.268 OA
ENDROOT
BRANCH   9  11
ATOM     11  C   UNL     1      -2.468  -3.884   1.867  0.00  0.00    +0.135 A 
ATOM     12  C   UNL     1      -3.000  -4.722   2.814  0.00  0.00    +0.081 A 
ATOM     13  S   UNL     1      -4.677  -4.880   2.216  0.00  0.00    -0.060 S 
ATOM     14  C   UNL     1      -4.508  -3.829   0.781  0.00  0.00    +0.156 A 
ATOM     15  N   UNL     1      -3.248  -3.454   0.872  0.00  0.00    -0.221 NA
ATOM     16  N   UNL     1      -5.454  -3.492  -0.172  0.00  0.00    -0.338 N 
ATOM     17  H   UNL     1      -6.355  -3.844  -0.107  0.00  0.00    +0.144 HD
ATOM     18  H   UNL     1      -5.215  -2.903  -0.905  0.00  0.00    +0.144 HD
ENDBRANCH   9  11
TORSDOF 1
