REMARK  Name = ZINC44327251
REMARK  6 active torsions:
REMARK  status: ('A' for Active; 'I' for Inactive)
REMARK    1  A    between atoms: C_1  and  S_2
REMARK    2  A    between atoms: S_2  and  C_5
REMARK    3  A    between atoms: C_9  and  S_11
REMARK    4  A    between atoms: S_11  and  N_14
REMARK    5  A    between atoms: N_14  and  C_15
REMARK    6  A    between atoms: C_20  and  C_23
REMARK                            x       y       z     vdW  Elec       q    Type
REMARK                         _______ _______ _______ _____ _____    ______ ____
ROOT
ATOM      1  S   UNL     1       4.629  -1.150  -2.632  0.00  0.00    +0.059 S 
ATOM      2  O   UNL     1       4.993  -1.464  -1.295  0.00  0.00    -0.153 OA
ATOM      3  O   UNL     1       4.942  -2.001  -3.726  0.00  0.00    -0.153 OA
ENDROOT
BRANCH   1   8
ATOM      4  C   UNL     1       0.845  -0.437  -1.483  0.00  0.00    +0.090 A 
ATOM      5  C   UNL     1       0.135  -0.613  -2.656  0.00  0.00    +0.027 A 
ATOM      6  C   UNL     1       0.796  -0.953  -3.821  0.00  0.00    +0.004 A 
ATOM      7  C   UNL     1       2.169  -1.117  -3.813  0.00  0.00    +0.028 A 
ATOM      8  C   UNL     1       2.880  -0.941  -2.641  0.00  0.00    +0.107 A 
ATOM      9  C   UNL     1       2.218  -0.596  -1.477  0.00  0.00    +0.055 A 
BRANCH   4  11
ATOM     10  C   UNL     1      -0.022   1.810   0.012  0.00  0.00    +0.200 C 
ATOM     11  S   UNL     1       0.002  -0.004   0.002  0.00  0.00    -0.006 S 
ATOM     12  O   UNL     1       0.835  -0.488   1.046  0.00  0.00    -0.170 OA
ATOM     13  O   UNL     1      -1.315  -0.510  -0.168  0.00  0.00    -0.170 OA
ENDBRANCH   4  11
ENDBRANCH   1   8
BRANCH   1  14
ATOM     14  N   UNL     1       5.301   0.325  -2.972  0.00  0.00    -0.187 NA
ATOM     15  H   UNL     1       5.806   0.450  -3.791  0.00  0.00    +0.148 HD
BRANCH  14  16
ATOM     16  C   UNL     1       5.132   1.440  -2.038  0.00  0.00    +0.077 C 
ATOM     17  C   UNL     1       3.938   2.292  -2.471  0.00  0.00    +0.020 C 
ATOM     18  C   UNL     1       3.761   3.457  -1.495  0.00  0.00    +0.002 C 
ATOM     19  C   UNL     1       5.027   4.316  -1.492  0.00  0.00    +0.012 C 
ATOM     20  C   UNL     1       6.221   3.464  -1.058  0.00  0.00    +0.095 C 
ATOM     21  C   UNL     1       6.398   2.299  -2.035  0.00  0.00    +0.032 C 
BRANCH  20  22
ATOM     22  C   UNL     1       7.487   4.323  -1.056  0.00  0.00    +0.393 C 
ATOM     23  F   UNL     1       7.325   5.388  -0.163  0.00  0.00    -0.170 F 
ATOM     24  F   UNL     1       8.579   3.544  -0.659  0.00  0.00    -0.170 F 
ATOM     25  F   UNL     1       7.714   4.824  -2.342  0.00  0.00    -0.170 F 
ENDBRANCH  20  22
ENDBRANCH  14  16
ENDBRANCH   1  14
TORSDOF 5
