REMARK  Name = ZINC06321021
REMARK  8 active torsions:
REMARK  status: ('A' for Active; 'I' for Inactive)
REMARK    1  A    between atoms: C_1  and  C_2
REMARK    2  A    between atoms: C_6  and  C_15
REMARK    3  A    between atoms: C_13  and  C_14
REMARK    4  A    between atoms: C_15  and  C_17
REMARK    5  A    between atoms: C_15  and  N_76
REMARK    6  A    between atoms: N_21  and  C_22
REMARK    7  A    between atoms: C_30  and  C_33
REMARK    8  A    between atoms: C_33  and  C_34
REMARK                            x       y       z     vdW  Elec       q    Type
REMARK                         _______ _______ _______ _____ _____    ______ ____
ROOT
ATOM      1  C   UNL     1      -4.986   3.843   0.044  0.00  0.00    +0.039 C 
ENDROOT
BRANCH   1   7
ATOM      2  C   UNL     1       2.429   4.511   0.472  0.00  0.00    +0.044 C 
ATOM      3  C   UNL     1       1.188   3.659   0.410  0.00  0.00    -0.047 A 
ATOM      4  C   UNL     1      -0.040   4.255   0.339  0.00  0.00    +0.013 A 
ATOM      5  C   UNL     1      -1.191   3.464   0.280  0.00  0.00    -0.001 A 
ATOM      6  C   UNL     1      -2.522   4.069   0.203  0.00  0.00    +0.017 A 
ATOM      7  C   UNL     1      -3.602   3.252   0.130  0.00  0.00    +0.011 A 
ATOM      8  C   UNL     1      -3.436   1.851   0.148  0.00  0.00    +0.251 A 
ATOM      9  O   UNL     1      -4.421   1.135   0.092  0.00  0.00    -0.268 OA
ATOM     10  N   UNL     1      -2.218   1.286   0.224  0.00  0.00    -0.322 N 
ATOM     11  H   UNL     1      -2.140   0.319   0.234  0.00  0.00    +0.169 HD
ATOM     12  C   UNL     1      -1.080   2.061   0.288  0.00  0.00    +0.049 A 
ATOM     13  C   UNL     1       0.180   1.477   0.367  0.00  0.00    +0.030 A 
ATOM     14  C   UNL     1       1.302   2.276   0.424  0.00  0.00    -0.046 A 
ATOM     15  C   UNL     1       2.666   1.641   0.503  0.00  0.00    +0.044 C 
ENDBRANCH   1   7
BRANCH   1  21
ATOM     16  C   UNL     1      -7.206   3.774   1.007  0.00  0.00    -0.077 C 
ATOM     17  C   UNL     1      -8.084   3.055   2.034  0.00  0.00    -0.015 C 
ATOM     18  C   UNL     1      -7.529   3.306   3.438  0.00  0.00    -0.010 C 
ATOM     19  C   UNL     1      -6.078   2.823   3.500  0.00  0.00    -0.015 C 
ATOM     20  C   UNL     1      -5.258   3.549   2.431  0.00  0.00    -0.077 C 
ATOM     21  N   UNL     1      -5.828   3.246   1.101  0.00  0.00    +0.389 N 
ATOM     22  H   UNL     1      -5.852   2.228   0.973  0.00  0.00    -0.080 HD
BRANCH  18  23
ATOM     23  C   UNL     1      -8.367   2.541   4.465  0.00  0.00    +0.038 C 
BRANCH  23  24
ATOM     24  C   UNL     1      -9.766   3.102   4.490  0.00  0.00    -0.047 A 
ATOM     25  C   UNL     1     -10.081   4.134   5.354  0.00  0.00    +0.003 A 
ATOM     26  C   UNL     1     -11.363   4.651   5.373  0.00  0.00    +0.000 A 
ATOM     27  C   UNL     1     -12.332   4.130   4.537  0.00  0.00    +0.000 A 
ATOM     28  C   UNL     1     -12.018   3.094   3.676  0.00  0.00    +0.000 A 
ATOM     29  C   UNL     1     -10.735   2.580   3.653  0.00  0.00    +0.003 A 
ENDBRANCH  23  24
ENDBRANCH  18  23
ENDBRANCH   1  21
BRANCH   1  30
ATOM     30  C   UNL     1      -5.587   3.520  -1.300  0.00  0.00    +0.143 A 
ATOM     31  N   UNL     1      -6.057   2.360  -1.689  0.00  0.00    -0.115 NA
ATOM     32  N   UNL     1      -6.484   2.488  -2.898  0.00  0.00    -0.023 NA
ATOM     33  N   UNL     1      -6.291   3.698  -3.293  0.00  0.00    -0.044 NA
ATOM     34  N   UNL     1      -5.740   4.366  -2.336  0.00  0.00    -0.227 N 
BRANCH  34  35
ATOM     35  C   UNL     1      -5.354   5.778  -2.371  0.00  0.00    +0.111 C 
ATOM     36  C   UNL     1      -6.591   6.639  -2.633  0.00  0.00    +0.027 C 
ATOM     37  C   UNL     1      -6.188   8.115  -2.669  0.00  0.00    +0.002 C 
ATOM     38  C   UNL     1      -5.166   8.337  -3.786  0.00  0.00    +0.000 C 
ATOM     39  C   UNL     1      -3.929   7.476  -3.524  0.00  0.00    +0.002 C 
ATOM     40  C   UNL     1      -4.332   6.001  -3.488  0.00  0.00    +0.027 C 
ENDBRANCH  34  35
ENDBRANCH   1  30
TORSDOF 6
