REMARK  Name = ZINC20990359
REMARK  10 active torsions:
REMARK  status: ('A' for Active; 'I' for Inactive)
REMARK    1  A    between atoms: C_1  and  C_2
REMARK    2  A    between atoms: C_2  and  C_3
REMARK    3  A    between atoms: C_8  and  S_9
REMARK    4  A    between atoms: S_9  and  N_12
REMARK    5  A    between atoms: C_15  and  C_18
REMARK    6  A    between atoms: C_18  and  O_20
REMARK    7  A    between atoms: O_20  and  C_21
REMARK    8  A    between atoms: C_21  and  C_22
REMARK    9  A    between atoms: C_30  and  C_32
REMARK   10  A    between atoms: C_30  and  C_33
REMARK                            x       y       z     vdW  Elec       q    Type
REMARK                         _______ _______ _______ _____ _____    ______ ____
ROOT
ATOM      1  C   UNL     1       2.526   1.406  -0.444  0.00  0.00    -0.021 A 
ATOM      2  C   UNL     1       2.627   0.037  -0.562  0.00  0.00    +0.016 A 
ATOM      3  C   UNL     1       1.473  -0.736  -0.662  0.00  0.00    +0.011 A 
ATOM      4  C   UNL     1       0.210  -0.117  -0.641  0.00  0.00    +0.049 A 
ATOM      5  C   UNL     1       0.130   1.266  -0.520  0.00  0.00    +0.055 A 
ATOM      6  C   UNL     1       1.281   2.017  -0.421  0.00  0.00    +0.111 A 
ATOM      7  N   UNL     1      -0.749  -1.107  -0.755  0.00  0.00    -0.357 N 
ATOM      8  H   UNL     1      -1.817  -0.842  -0.756  0.00  0.00    +0.166 HD
ATOM      9  C   UNL     1      -0.175  -2.313  -0.853  0.00  0.00    +0.028 A 
ATOM     10  C   UNL     1       1.204  -2.170  -0.797  0.00  0.00    +0.046 A 
ATOM     11  C   UNL     1       2.090  -3.272  -0.866  0.00  0.00    +0.166 C 
ATOM     12  O   UNL     1       3.293  -3.113  -0.848  0.00  0.00    -0.292 OA
ATOM     13  C   UNL     1       1.483  -4.655  -0.963  0.00  0.00    +0.086 C 
ATOM     14  C   UNL     1       0.159  -4.593  -1.725  0.00  0.00    -0.023 C 
ATOM     15  C   UNL     1      -0.830  -3.665  -1.009  0.00  0.00    +0.060 C 
ATOM     16  C   UNL     1       0.414  -4.064  -3.138  0.00  0.00    +0.011 C 
ATOM     17  C   UNL     1      -0.439  -5.998  -1.812  0.00  0.00    +0.011 C 
ENDROOT
BRANCH   6  18
ATOM     18  S   UNL     1       1.171   3.769  -0.268  0.00  0.00    +0.061 S 
ATOM     19  O   UNL     1       1.351   4.069   1.109  0.00  0.00    -0.153 OA
ATOM     20  O   UNL     1       2.001   4.319  -1.282  0.00  0.00    -0.153 OA
BRANCH  18  21
ATOM     21  N   UNL     1      -0.384   4.196  -0.646  0.00  0.00    -0.177 NA
ATOM     22  C   UNL     1      -0.784   4.408  -2.044  0.00  0.00    +0.110 C 
ATOM     23  C   UNL     1      -1.429   5.786  -2.174  0.00  0.00    +0.032 C 
ATOM     24  C   UNL     1      -2.576   5.907  -1.167  0.00  0.00    +0.100 C 
ATOM     25  C   UNL     1      -2.026   5.761   0.254  0.00  0.00    +0.032 C 
ATOM     26  C   UNL     1      -1.389   4.377   0.411  0.00  0.00    +0.110 C 
BRANCH  24  27
ATOM     27  C   UNL     1      -3.234   7.255  -1.315  0.00  0.00    +0.310 C 
ATOM     28  O   UNL     1      -3.261   8.019  -0.380  0.00  0.00    -0.251 OA
BRANCH  27  29
ATOM     29  O   UNL     1      -3.790   7.605  -2.485  0.00  0.00    -0.465 OA
BRANCH  29  30
ATOM     30  C   UNL     1      -4.406   8.918  -2.555  0.00  0.00    +0.229 C 
ATOM     31  C   UNL     1      -4.981   9.137  -3.956  0.00  0.00    +0.048 C 
ENDBRANCH  29  30
ENDBRANCH  27  29
ENDBRANCH  24  27
ENDBRANCH  18  21
ENDBRANCH   6  18
BRANCH   1  33
ATOM     32  C   UNL     1       4.101   2.486   1.139  0.00  0.00    +0.009 C 
ATOM     33  C   UNL     1       3.775   2.244  -0.336  0.00  0.00    +0.034 C 
ENDBRANCH   1  33
TORSDOF 6
