REMARK  Name = ZINC39656884
REMARK  9 active torsions:
REMARK  status: ('A' for Active; 'I' for Inactive)
REMARK    1  A    between atoms: C_1  and  C_2
REMARK    2  A    between atoms: C_2  and  C_4
REMARK    3  A    between atoms: C_2  and  N_11
REMARK    4  A    between atoms: C_12  and  C_14
REMARK    5  A    between atoms: C_25  and  C_27
REMARK    6  A    between atoms: C_30  and  O_35
REMARK    7  A    between atoms: C_32  and  O_33
REMARK    8  A    between atoms: O_33  and  C_34
REMARK    9  A    between atoms: O_35  and  C_36
REMARK                            x       y       z     vdW  Elec       q    Type
REMARK                         _______ _______ _______ _____ _____    ______ ____
ROOT
ATOM      1  C   UNL     1       2.777  -1.094   2.396  0.00  0.00    +0.100 C 
ATOM      2  C   UNL     1       2.678  -0.062   3.542  0.00  0.00    +0.121 C 
ATOM      3  N   UNL     1       3.999  -0.120   4.212  0.00  0.00    -0.296 N 
ATOM      4  C   UNL     1       4.970  -0.266   3.102  0.00  0.00    +0.115 C 
ATOM      5  C   UNL     1       4.282  -1.224   2.109  0.00  0.00    -0.004 C 
ATOM      6  C   UNL     1       4.585  -0.804   0.674  0.00  0.00    -0.010 C 
ATOM      7  C   UNL     1       6.078  -0.997   0.395  0.00  0.00    -0.082 C 
ATOM      8  N   UNL     1       6.438  -2.406   0.600  0.00  0.00    +0.379 N 
ATOM      9  C   UNL     1       6.231  -2.776   2.006  0.00  0.00    -0.082 C 
ATOM     10  C   UNL     1       4.744  -2.658   2.353  0.00  0.00    -0.010 C 
ATOM     11  C   UNL     1       4.258  -0.057   5.533  0.00  0.00    +0.250 C 
ATOM     12  O   UNL     1       3.341  -0.035   6.332  0.00  0.00    -0.270 OA
ATOM     13  H   UNL     1       5.861  -2.988   0.012  0.00  0.00    -0.086 HD
ATOM     14  H   UNL     1       7.408  -2.543   0.357  0.00  0.00    -0.086 HD
ENDROOT
BRANCH  11  15
ATOM     15  C   UNL     1       5.651  -0.013   6.009  0.00  0.00    +0.079 A 
ATOM     16  C   UNL     1       6.625   0.665   5.268  0.00  0.00    +0.020 A 
ATOM     17  C   UNL     1       7.925   0.704   5.716  0.00  0.00    +0.046 A 
ATOM     18  C   UNL     1       8.276   0.071   6.905  0.00  0.00    +0.124 A 
ATOM     19  C   UNL     1       7.318  -0.603   7.648  0.00  0.00    +0.092 A 
ATOM     20  C   UNL     1       6.005  -0.645   7.211  0.00  0.00    +0.136 A 
BRANCH  20  21
ATOM     21  O   UNL     1       5.066  -1.299   7.938  0.00  0.00    -0.494 OA
ATOM     22  C   UNL     1       5.500  -1.919   9.150  0.00  0.00    +0.277 C 
ENDBRANCH  20  21
BRANCH  18  23
ATOM     23  O   UNL     1       9.561   0.115   7.340  0.00  0.00    -0.495 OA
ATOM     24  C   UNL     1      10.497   0.826   6.528  0.00  0.00    +0.277 C 
ENDBRANCH  18  23
ENDBRANCH  11  15
BRANCH   1  26
ATOM     25  N   UNL     1       1.651  -1.459   0.224  0.00  0.00    -0.308 N 
ATOM     26  C   UNL     1       2.052  -0.592   1.174  0.00  0.00    +0.219 C 
ATOM     27  O   UNL     1       1.829   0.594   1.045  0.00  0.00    -0.275 OA
ATOM     28  H   UNL     1       1.829  -2.407   0.327  0.00  0.00    +0.149 HD
BRANCH  25  30
ATOM     29  C   UNL     1      -0.547  -0.846  -0.656  0.00  0.00    +0.033 C 
ATOM     30  C   UNL     1       0.946  -0.971  -0.964  0.00  0.00    +0.100 C 
BRANCH  30  31
ATOM     31  C   UNL     1       1.145  -1.941  -2.100  0.00  0.00    -0.027 A 
ATOM     32  C   UNL     1       1.110  -3.302  -1.861  0.00  0.00    +0.006 A 
ATOM     33  C   UNL     1       1.291  -4.192  -2.903  0.00  0.00    +0.015 A 
ATOM     34  C   UNL     1       1.508  -3.721  -4.185  0.00  0.00    +0.018 A 
ATOM     35  C   UNL     1       1.543  -2.359  -4.424  0.00  0.00    +0.015 A 
ATOM     36  C   UNL     1       1.356  -1.469  -3.382  0.00  0.00    +0.006 A 
ATOM     37 BR   UNL     1       1.758  -4.938  -5.611  0.00  0.00    -0.050 Br
ENDBRANCH  30  31
ENDBRANCH  25  30
ENDBRANCH   1  26
TORSDOF 6
