REMARK  Name = ZINC16309433
REMARK  10 active torsions:
REMARK  status: ('A' for Active; 'I' for Inactive)
REMARK    1  A    between atoms: C_1  and  C_2
REMARK    2  A    between atoms: C_5  and  S_8
REMARK    3  A    between atoms: S_8  and  N_11
REMARK    4  A    between atoms: N_11  and  C_12
REMARK    5  A    between atoms: N_11  and  C_30
REMARK    6  A    between atoms: C_12  and  C_13
REMARK    7  A    between atoms: N_15  and  N_16
REMARK    8  A    between atoms: C_17  and  C_18
REMARK    9  A    between atoms: C_32  and  C_37
REMARK   10  A    between atoms: C_35  and  C_36
REMARK                            x       y       z     vdW  Elec       q    Type
REMARK                         _______ _______ _______ _____ _____    ______ ____
ROOT
ATOM      1  N   UNL     1      -3.810   6.139   0.029  0.00  0.00    -0.194 N 
ENDROOT
BRANCH   1   2
ATOM      2  C   UNL     1      -4.611   6.358   1.152  0.00  0.00    +0.055 A 
ATOM      3  C   UNL     1      -5.238   5.289   1.779  0.00  0.00    +0.028 A 
ATOM      4  C   UNL     1      -6.029   5.509   2.890  0.00  0.00    -0.049 A 
ATOM      5  C   UNL     1      -6.195   6.792   3.379  0.00  0.00    +0.004 A 
ATOM      6  C   UNL     1      -5.572   7.858   2.757  0.00  0.00    +0.005 A 
ATOM      7  C   UNL     1      -4.776   7.645   1.649  0.00  0.00    -0.028 A 
ATOM      8  C   UNL     1      -4.092   8.807   0.976  0.00  0.00    +0.046 C 
ATOM      9  C   UNL     1      -6.710   4.350   3.571  0.00  0.00    +0.044 C 
ENDBRANCH   1   2
BRANCH   1  10
ATOM     10  S   UNL     1      -4.457   6.280  -1.489  0.00  0.00    +0.075 S 
ATOM     11  O   UNL     1      -5.658   7.028  -1.351  0.00  0.00    -0.150 OA
ATOM     12  O   UNL     1      -3.400   6.689  -2.345  0.00  0.00    -0.150 OA
BRANCH  10  17
ATOM     13  C   UNL     1      -6.069   0.743  -3.264  0.00  0.00    +0.044 C 
ATOM     14  C   UNL     1      -5.667   2.126  -2.821  0.00  0.00    -0.050 A 
ATOM     15  C   UNL     1      -6.591   2.953  -2.210  0.00  0.00    +0.005 A 
ATOM     16  C   UNL     1      -6.222   4.221  -1.803  0.00  0.00    +0.029 A 
ATOM     17  C   UNL     1      -4.928   4.663  -2.007  0.00  0.00    +0.109 A 
ATOM     18  C   UNL     1      -4.005   3.839  -2.623  0.00  0.00    +0.029 A 
ATOM     19  C   UNL     1      -4.373   2.568  -3.026  0.00  0.00    +0.005 A 
ENDBRANCH  10  17
ENDBRANCH   1  10
BRANCH   1  20
ATOM     20  C   UNL     1      -2.398   5.784   0.193  0.00  0.00    +0.228 C 
BRANCH  20  21
ATOM     21  C   UNL     1      -2.272   4.292   0.362  0.00  0.00    +0.251 C 
ATOM     22  O   UNL     1      -3.268   3.601   0.418  0.00  0.00    -0.272 OA
ATOM     23  N   UNL     1      -1.052   3.725   0.450  0.00  0.00    -0.206 N 
ATOM     24  H   UNL     1      -0.256   4.277   0.405  0.00  0.00    +0.177 HD
BRANCH  23  25
ATOM     25  N   UNL     1      -0.935   2.338   0.606  0.00  0.00    -0.188 NA
ATOM     26  C   UNL     1       0.241   1.791   0.691  0.00  0.00    +0.139 C 
BRANCH  26  27
ATOM     27  C   UNL     1       0.364   0.334   0.856  0.00  0.00    +0.002 A 
ATOM     28  C   UNL     1       1.613  -0.278   0.938  0.00  0.00    +0.010 A 
ATOM     29  C   UNL     1       1.748  -1.653   1.098  0.00  0.00    +0.005 A 
ATOM     30  C   UNL     1       0.658  -2.469   1.172  0.00  0.00    -0.039 A 
ATOM     31  C   UNL     1      -0.609  -1.901   1.089  0.00  0.00    -0.011 A 
ATOM     32  C   UNL     1      -0.818  -0.520   0.932  0.00  0.00    -0.009 A 
ATOM     33  C   UNL     1      -2.135  -0.055   0.862  0.00  0.00    +0.009 A 
ATOM     34  C   UNL     1      -3.158  -0.959   0.944  0.00  0.00    +0.001 A 
ATOM     35  C   UNL     1      -2.930  -2.328   1.100  0.00  0.00    +0.004 A 
ATOM     36  C   UNL     1      -1.659  -2.811   1.173  0.00  0.00    -0.039 A 
ATOM     37  C   UNL     1      -1.054  -4.184   1.334  0.00  0.00    +0.040 C 
ATOM     38  C   UNL     1       0.473  -3.959   1.334  0.00  0.00    +0.040 C 
ENDBRANCH  26  27
ENDBRANCH  23  25
ENDBRANCH  20  21
ENDBRANCH   1  20
TORSDOF 7
