REMARK  Name = ZINC08328081
REMARK  5 active torsions:
REMARK  status: ('A' for Active; 'I' for Inactive)
REMARK    1  A    between atoms: C_1  and  C_2
REMARK    2  A    between atoms: C_2  and  C_29
REMARK    3  A    between atoms: N_5  and  C_9
REMARK    4  A    between atoms: C_9  and  C_10
REMARK    5  A    between atoms: C_21  and  C_23
REMARK                            x       y       z     vdW  Elec       q    Type
REMARK                         _______ _______ _______ _____ _____    ______ ____
ROOT
ATOM      1  C   UNL     1      -2.843   5.226  -0.139  0.00  0.00    +0.238 C 
ATOM      2  O   UNL     1      -2.771   4.816   1.001  0.00  0.00    -0.273 OA
ATOM      3  N   UNL     1      -3.234   6.494  -0.375  0.00  0.00    -0.256 N 
ATOM      4  C   UNL     1      -3.484   7.387   0.681  0.00  0.00    +0.079 A 
ATOM      5  C   UNL     1      -3.611   6.912   1.977  0.00  0.00    +0.027 A 
ATOM      6  C   UNL     1      -3.854   7.795   3.013  0.00  0.00    +0.002 A 
ATOM      7  C   UNL     1      -3.971   9.149   2.756  0.00  0.00    +0.004 A 
ATOM      8  C   UNL     1      -3.836   9.630   1.464  0.00  0.00    +0.047 A 
ATOM      9  C   UNL     1      -3.598   8.751   0.418  0.00  0.00    +0.142 A 
ATOM     10  O   UNL     1      -3.487   9.227  -0.849  0.00  0.00    -0.488 OA
ATOM     11  C   UNL     1      -2.826   8.406  -1.814  0.00  0.00    +0.256 C 
ATOM     12  C   UNL     1      -3.419   6.991  -1.750  0.00  0.00    +0.149 C 
ENDROOT
BRANCH  12  13
ATOM     13  C   UNL     1      -4.887   7.035  -2.084  0.00  0.00    -0.023 A 
ATOM     14  C   UNL     1      -5.801   7.451  -1.134  0.00  0.00    +0.005 A 
ATOM     15  C   UNL     1      -7.147   7.496  -1.442  0.00  0.00    +0.000 A 
ATOM     16  C   UNL     1      -7.582   7.114  -2.698  0.00  0.00    +0.000 A 
ATOM     17  C   UNL     1      -6.669   6.693  -3.647  0.00  0.00    +0.000 A 
ATOM     18  C   UNL     1      -5.322   6.653  -3.340  0.00  0.00    +0.005 A 
ENDBRANCH  12  13
BRANCH   1  19
ATOM     19  C   UNL     1      -2.497   4.317  -1.290  0.00  0.00    +0.214 C 
BRANCH  19  24
ATOM     20  C   UNL     1      -2.176   0.513   1.447  0.00  0.00    +0.041 C 
ATOM     21  C   UNL     1      -1.828   0.902   0.009  0.00  0.00    +0.107 C 
ATOM     22  C   UNL     1      -2.770   1.978  -0.495  0.00  0.00    +0.246 C 
ATOM     23  O   UNL     1      -3.973   1.896  -0.622  0.00  0.00    -0.273 OA
ATOM     24  N   UNL     1      -1.993   3.043  -0.771  0.00  0.00    -0.215 N 
ATOM     25  C   UNL     1      -0.704   2.793  -0.515  0.00  0.00    +0.310 C 
ATOM     26  O   UNL     1       0.188   3.601  -0.685  0.00  0.00    -0.252 OA
ATOM     27  N   UNL     1      -0.503   1.544  -0.048  0.00  0.00    -0.285 N 
ATOM     28  C   UNL     1      -1.872  -0.324  -0.905  0.00  0.00    +0.041 C 
ATOM     29  H   UNL     1       0.345   1.145   0.203  0.00  0.00    +0.151 HD
ENDBRANCH  19  24
ENDBRANCH   1  19
TORSDOF 3
