REMARK  Name = ZINC02918607
REMARK  4 active torsions:
REMARK  status: ('A' for Active; 'I' for Inactive)
REMARK    1  A    between atoms: C_4  and  O_25
REMARK    2  A    between atoms: C_5  and  C_7
REMARK    3  A    between atoms: C_10  and  C_18
REMARK    4  A    between atoms: O_25  and  C_26
REMARK                            x       y       z     vdW  Elec       q    Type
REMARK                         _______ _______ _______ _____ _____    ______ ____
ROOT
ATOM      1  C   UNL     1       1.227  -2.187  -0.022  0.00  0.00    +0.146 C 
ATOM      2  C   UNL     1       0.518  -2.717   1.231  0.00  0.00    +0.059 C 
ATOM      3  C   UNL     1       0.291  -4.227   1.096  0.00  0.00    +0.106 C 
ATOM      4  N   UNL     1      -0.595  -4.470  -0.059  0.00  0.00    -0.307 N 
ATOM      5  C   UNL     1      -0.320  -3.739  -1.207  0.00  0.00    +0.215 A 
ATOM      6  N   UNL     1       0.527  -2.679  -1.208  0.00  0.00    -0.226 N 
ATOM      7  N   UNL     1       0.566  -2.200  -2.518  0.00  0.00    -0.156 NA
ATOM      8  C   UNL     1      -0.229  -2.965  -3.224  0.00  0.00    +0.247 A 
ATOM      9  N   UNL     1      -0.769  -3.897  -2.423  0.00  0.00    -0.202 NA
ATOM     10  H   UNL     1      -1.328  -5.104  -0.018  0.00  0.00    +0.149 HD
ENDROOT
BRANCH   3  11
ATOM     11  C   UNL     1       1.612  -4.920   0.880  0.00  0.00    -0.027 A 
ATOM     12  C   UNL     1       2.191  -4.927  -0.376  0.00  0.00    +0.006 A 
ATOM     13  C   UNL     1       3.402  -5.562  -0.575  0.00  0.00    +0.015 A 
ATOM     14  C   UNL     1       4.035  -6.191   0.482  0.00  0.00    +0.013 A 
ATOM     15  C   UNL     1       3.455  -6.184   1.737  0.00  0.00    +0.015 A 
ATOM     16  C   UNL     1       2.247  -5.544   1.937  0.00  0.00    +0.006 A 
ATOM     17  I   UNL     1       5.870  -7.154   0.180  0.00  0.00    -0.044 I 
ENDBRANCH   3  11
BRANCH   1  22
ATOM     18  C   UNL     1      -0.017   1.378   0.010  0.00  0.00    +0.001 A 
ATOM     19  C   UNL     1       1.170   2.088   0.002  0.00  0.00    +0.004 A 
ATOM     20  C   UNL     1       2.377   1.417  -0.013  0.00  0.00    +0.046 A 
ATOM     21  C   UNL     1       2.399   0.030  -0.021  0.00  0.00    +0.132 A 
ATOM     22  C   UNL     1       1.207  -0.680  -0.013  0.00  0.00    +0.019 A 
ATOM     23  C   UNL     1       0.002  -0.004   0.002  0.00  0.00    +0.009 A 
BRANCH  21  24
ATOM     24  O   UNL     1       3.586  -0.632  -0.037  0.00  0.00    -0.434 OA
BRANCH  24  25
ATOM     25  C   UNL     1       4.772   0.164  -0.045  0.00  0.00    +0.541 C 
ATOM     26  F   UNL     1       4.781   0.977  -1.183  0.00  0.00    -0.166 F 
ATOM     27  F   UNL     1       4.804   0.965   1.101  0.00  0.00    -0.166 F 
ENDBRANCH  24  25
ENDBRANCH  21  24
ENDBRANCH   1  22
TORSDOF 4
