REMARK  Name = ZINC39738101
REMARK  6 active torsions:
REMARK  status: ('A' for Active; 'I' for Inactive)
REMARK    1  A    between atoms: C_7  and  S_31
REMARK    2  A    between atoms: C_9  and  N_12
REMARK    3  A    between atoms: C_10  and  O_11
REMARK    4  A    between atoms: N_13  and  C_14
REMARK    5  A    between atoms: C_17  and  C_20
REMARK    6  A    between atoms: C_21  and  C_22
REMARK                            x       y       z     vdW  Elec       q    Type
REMARK                         _______ _______ _______ _____ _____    ______ ____
ROOT
ATOM      1  C   UNL     1       6.078  -4.631   0.093  0.00  0.00    +0.086 A 
ATOM      2  C   UNL     1       7.281  -3.917   0.093  0.00  0.00    +0.030 A 
ATOM      3  C   UNL     1       8.472  -4.585   0.123  0.00  0.00    +0.010 A 
ATOM      4  C   UNL     1       8.489  -5.982   0.154  0.00  0.00    -0.025 A 
ATOM      5  C   UNL     1       7.288  -6.697   0.154  0.00  0.00    +0.010 A 
ATOM      6  C   UNL     1       6.096  -6.030   0.130  0.00  0.00    +0.030 A 
ENDROOT
BRANCH   1   8
ATOM      7  N   UNL     1       4.872  -2.675   0.030  0.00  0.00    -0.146 NA
ATOM      8  N   UNL     1       4.888  -3.964   0.064  0.00  0.00    -0.149 NA
BRANCH   7  17
ATOM      9  C   UNL     1      -0.016   1.356  -0.123  0.00  0.00    +0.001 A 
ATOM     10  C   UNL     1       1.168   2.090  -0.131  0.00  0.00    +0.001 A 
ATOM     11  C   UNL     1       2.378   1.465  -0.103  0.00  0.00    +0.012 A 
ATOM     12  C   UNL     1       2.436   0.062  -0.066  0.00  0.00    +0.028 A 
ATOM     13  C   UNL     1       1.231  -0.684  -0.058  0.00  0.00    +0.013 A 
ATOM     14  C   UNL     1       0.002  -0.005  -0.088  0.00  0.00    +0.010 A 
ATOM     15  C   UNL     1       1.280  -2.091  -0.022  0.00  0.00    +0.130 A 
ATOM     16  C   UNL     1       2.475  -2.732   0.007  0.00  0.00    +0.063 A 
ATOM     17  C   UNL     1       3.684  -2.009   0.001  0.00  0.00    +0.130 A 
ATOM     18  C   UNL     1       3.670  -0.614  -0.035  0.00  0.00    +0.152 A 
BRANCH  15  19
ATOM     19  S   UNL     1      -0.215  -3.022  -0.012  0.00  0.00    +0.140 S 
ATOM     20  O   UNL     1      -0.652  -3.135  -1.395  0.00  0.00    -0.140 OA
ATOM     21  O   UNL     1       0.099  -4.320   0.566  0.00  0.00    -0.140 OA
ATOM     22  O   UNL     1      -1.169  -2.282   0.799  0.00  0.00    -0.043 OA
ENDBRANCH  15  19
BRANCH  18  23
ATOM     23  O   UNL     1       4.834   0.082  -0.043  0.00  0.00    -0.504 OA
ATOM     24  H   UNL     1       5.162   0.307   0.838  0.00  0.00    +0.292 HD
ENDBRANCH  18  23
ENDBRANCH   7  17
ENDBRANCH   1   8
BRANCH   4  25
ATOM     25  C   UNL     1       9.777  -6.704   0.186  0.00  0.00    +0.007 C 
ATOM     26  C   UNL     1       9.793  -8.030   0.216  0.00  0.00    +0.020 C 
BRANCH  26  27
ATOM     27  C   UNL     1      11.108  -8.767   0.249  0.00  0.00    +0.198 C 
ATOM     28  N   UNL     1      11.194  -9.695  -0.886  0.00  0.00    -0.360 N 
ATOM     29  C   UNL     1      11.315 -10.896  -0.399  0.00  0.00    +0.060 A 
ATOM     30  C   UNL     1      11.444 -12.219  -1.026  0.00  0.00    +0.027 A 
ATOM     31  C   UNL     1      11.556 -13.315  -0.249  0.00  0.00    +0.002 A 
ATOM     32  C   UNL     1      11.555 -13.252   1.156  0.00  0.00    +0.002 A 
ATOM     33  C   UNL     1      11.443 -12.090   1.831  0.00  0.00    +0.027 A 
ATOM     34  C   UNL     1      11.316 -10.829   1.088  0.00  0.00    +0.060 A 
ATOM     35  N   UNL     1      11.195  -9.588   1.463  0.00  0.00    -0.360 N 
ATOM     36  H   UNL     1      11.166  -9.456  -1.825  0.00  0.00    +0.162 HD
ATOM     37  H   UNL     1      11.167  -9.266   2.377  0.00  0.00    +0.162 HD
ENDBRANCH  26  27
ENDBRANCH   4  25
TORSDOF 6
