REMARK  Name = ZINC34683274
REMARK  12 active torsions:
REMARK  status: ('A' for Active; 'I' for Inactive)
REMARK    1  A    between atoms: C_1  and  C_2
REMARK    2  A    between atoms: C_5  and  N_8
REMARK    3  A    between atoms: N_8  and  C_9
REMARK    4  A    between atoms: N_12  and  C_15
REMARK    5  A    between atoms: C_15  and  C_16
REMARK    6  A    between atoms: C_19  and  O_26
REMARK    7  A    between atoms: C_20  and  O_24
REMARK    8  A    between atoms: C_21  and  O_22
REMARK    9  A    between atoms: O_22  and  C_23
REMARK   10  A    between atoms: O_24  and  C_25
REMARK   11  A    between atoms: O_26  and  C_27
REMARK   12  A    between atoms: C_28  and  C_30
REMARK                            x       y       z     vdW  Elec       q    Type
REMARK                         _______ _______ _______ _____ _____    ______ ____
ROOT
ATOM      1  C   UNL     1      -0.350  -4.971   1.206  0.00  0.00    +0.078 C 
ATOM      2  C   UNL     1      -0.989  -6.359   1.103  0.00  0.00    +0.004 C 
ATOM      3  C   UNL     1      -0.782  -7.109   2.421  0.00  0.00    -0.077 C 
ATOM      4  N   UNL     1       0.655  -7.249   2.687  0.00  0.00    +0.383 N 
ATOM      5  C   UNL     1       1.261  -5.923   2.858  0.00  0.00    -0.077 C 
ATOM      6  C   UNL     1       1.132  -5.127   1.558  0.00  0.00    +0.004 C 
ATOM      7  H   UNL     1       1.095  -7.721   1.912  0.00  0.00    -0.081 HD
ENDROOT
BRANCH   1   8
ATOM      8  N   UNL     1      -0.478  -4.276  -0.077  0.00  0.00    -0.265 N 
ATOM      9  C   UNL     1       0.112  -4.780  -1.179  0.00  0.00    +0.251 C 
ATOM     10  O   UNL     1       0.664  -5.863  -1.131  0.00  0.00    -0.270 OA
BRANCH   8  15
ATOM     11  C   UNL     1      -3.461   0.537  -0.411  0.00  0.00    +0.044 C 
ATOM     12  C   UNL     1      -2.669  -0.742  -0.323  0.00  0.00    -0.050 A 
ATOM     13  C   UNL     1      -1.649  -0.858   0.604  0.00  0.00    +0.005 A 
ATOM     14  C   UNL     1      -0.921  -2.029   0.688  0.00  0.00    +0.024 A 
ATOM     15  C   UNL     1      -1.214  -3.090  -0.159  0.00  0.00    +0.037 A 
ATOM     16  C   UNL     1      -2.239  -2.969  -1.089  0.00  0.00    +0.024 A 
ATOM     17  C   UNL     1      -2.967  -1.798  -1.164  0.00  0.00    +0.005 A 
ENDBRANCH   8  15
BRANCH   9  18
ATOM     18  C   UNL     1       0.090  -4.018  -2.443  0.00  0.00    +0.037 A 
ATOM     19  C   UNL     1      -0.089  -2.633  -2.424  0.00  0.00    +0.016 A 
ATOM     20  C   UNL     1      -0.108  -1.926  -3.607  0.00  0.00    +0.039 A 
ATOM     21  C   UNL     1       0.049  -2.588  -4.815  0.00  0.00    +0.123 A 
ATOM     22  C   UNL     1       0.226  -3.963  -4.841  0.00  0.00    +0.039 A 
ATOM     23  C   UNL     1       0.253  -4.679  -3.663  0.00  0.00    +0.016 A 
ATOM     24  F   UNL     1       0.028  -1.890  -5.972  0.00  0.00    -0.205 F 
ENDBRANCH   9  18
ENDBRANCH   1   8
BRANCH   4  25
ATOM     25  C   UNL     1       0.850  -8.036   3.912  0.00  0.00    -0.039 C 
BRANCH  25  26
ATOM     26  C   UNL     1       2.321  -8.285   4.120  0.00  0.00    -0.018 A 
ATOM     27  C   UNL     1       2.875  -9.499   3.756  0.00  0.00    +0.009 A 
ATOM     28  C   UNL     1       4.224  -9.732   3.946  0.00  0.00    +0.050 A 
ATOM     29  C   UNL     1       5.028  -8.748   4.501  0.00  0.00    +0.165 A 
ATOM     30  C   UNL     1       4.476  -7.527   4.868  0.00  0.00    +0.204 A 
ATOM     31  C   UNL     1       3.120  -7.295   4.671  0.00  0.00    +0.167 A 
BRANCH  31  32
ATOM     32  O   UNL     1       2.576  -6.099   5.024  0.00  0.00    -0.491 OA
ATOM     33  C   UNL     1       2.074  -5.982   6.357  0.00  0.00    +0.277 C 
ENDBRANCH  31  32
BRANCH  30  34
ATOM     34  O   UNL     1       5.262  -6.559   5.414  0.00  0.00    -0.488 OA
ATOM     35  C   UNL     1       5.879  -5.639   4.511  0.00  0.00    +0.277 C 
ENDBRANCH  30  34
BRANCH  29  36
ATOM     36  O   UNL     1       6.355  -8.979   4.688  0.00  0.00    -0.491 OA
ATOM     37  C   UNL     1       6.854 -10.257   4.288  0.00  0.00    +0.277 C 
ENDBRANCH  29  36
ENDBRANCH  25  26
ENDBRANCH   4  25
TORSDOF 8
