REMARK  Name = ZINC21854820
REMARK  12 active torsions:
REMARK  status: ('A' for Active; 'I' for Inactive)
REMARK    1  A    between atoms: C_1  and  C_2
REMARK    2  A    between atoms: C_5  and  C_7
REMARK    3  A    between atoms: C_7  and  N_8
REMARK    4  A    between atoms: C_13  and  C_31
REMARK    5  A    between atoms: C_17  and  C_18
REMARK    6  A    between atoms: C_17  and  C_19
REMARK    7  A    between atoms: N_21  and  C_22
REMARK    8  A    between atoms: C_22  and  C_23
REMARK    9  A    between atoms: C_28  and  O_29
REMARK   10  A    between atoms: O_29  and  C_30
REMARK   11  A    between atoms: C_34  and  O_37
REMARK   12  A    between atoms: O_37  and  C_38
REMARK                            x       y       z     vdW  Elec       q    Type
REMARK                         _______ _______ _______ _____ _____    ______ ____
ROOT
ATOM      1  N   UNL     1      -2.482   1.260  -2.942  0.00  0.00    -0.273 N 
ATOM      2  C   UNL     1      -3.212   2.044  -2.112  0.00  0.00    +0.266 C 
ATOM      3  O   UNL     1      -4.325   1.723  -1.741  0.00  0.00    -0.268 OA
ATOM      4  C   UNL     1      -2.583   3.304  -1.683  0.00  0.00    +0.124 A 
ATOM      5  C   UNL     1      -2.947   4.216  -0.736  0.00  0.00    +0.062 A 
ATOM      6  C   UNL     1      -1.939   5.203  -0.775  0.00  0.00    +0.093 A 
ATOM      7  N   UNL     1      -1.069   4.851  -1.703  0.00  0.00    -0.170 NA
ATOM      8  N   UNL     1      -1.417   3.757  -2.260  0.00  0.00    -0.256 N 
ATOM      9  C   UNL     1      -0.771   3.016  -3.351  0.00  0.00    +0.179 C 
ATOM     10  C   UNL     1      -1.070   1.526  -3.196  0.00  0.00    +0.131 C 
ATOM     11  C   UNL     1      -0.654   0.805  -4.480  0.00  0.00    +0.044 C 
ENDROOT
BRANCH   6  12
ATOM     12  C   UNL     1      -1.871   6.419   0.074  0.00  0.00    +0.002 A 
ATOM     13  C   UNL     1      -2.867   6.670   1.015  0.00  0.00    +0.013 A 
ATOM     14  C   UNL     1      -2.797   7.797   1.807  0.00  0.00    +0.046 A 
ATOM     15  C   UNL     1      -1.742   8.687   1.659  0.00  0.00    +0.120 A 
ATOM     16  C   UNL     1      -0.751   8.442   0.719  0.00  0.00    +0.046 A 
ATOM     17  C   UNL     1      -0.812   7.313  -0.072  0.00  0.00    +0.013 A 
BRANCH  15  18
ATOM     18  O   UNL     1      -1.679   9.800   2.437  0.00  0.00    -0.495 OA
ATOM     19  C   UNL     1      -2.732   9.989   3.384  0.00  0.00    +0.277 C 
ENDBRANCH  15  18
ENDBRANCH   6  12
BRANCH  10  20
ATOM     20  C   UNL     1      -0.258   0.984  -2.048  0.00  0.00    +0.239 C 
ATOM     21  O   UNL     1       0.818   0.466  -2.259  0.00  0.00    -0.273 OA
ATOM     22  N   UNL     1      -0.728   1.073  -0.788  0.00  0.00    -0.309 N 
ATOM     23  H   UNL     1      -1.738   1.468  -0.605  0.00  0.00    +0.149 HD
BRANCH  22  24
ATOM     24  C   UNL     1       0.106   0.644   0.337  0.00  0.00    +0.143 C 
BRANCH  24  25
ATOM     25  C   UNL     1      -0.587   0.980   1.632  0.00  0.00    +0.011 A 
ATOM     26  C   UNL     1      -0.219   2.107   2.341  0.00  0.00    +0.009 A 
ATOM     27  C   UNL     1      -0.854   2.416   3.529  0.00  0.00    +0.001 A 
ATOM     28  C   UNL     1      -1.860   1.599   4.011  0.00  0.00    +0.004 A 
ATOM     29  C   UNL     1      -2.232   0.471   3.306  0.00  0.00    +0.046 A 
ATOM     30  C   UNL     1      -1.599   0.161   2.111  0.00  0.00    +0.125 A 
BRANCH  30  31
ATOM     31  O   UNL     1      -1.967  -0.945   1.412  0.00  0.00    -0.495 OA
ATOM     32  C   UNL     1      -3.084  -1.685   1.910  0.00  0.00    +0.277 C 
ENDBRANCH  30  31
ENDBRANCH  24  25
ENDBRANCH  22  24
ENDBRANCH  10  20
BRANCH   1  33
ATOM     33  C   UNL     1      -3.125   0.120  -3.600  0.00  0.00    +0.183 C 
BRANCH  33  38
ATOM     34  C   UNL     1      -1.427  -4.030  -1.291  0.00  0.00    +0.086 C 
ATOM     35  C   UNL     1      -2.325  -2.887  -1.690  0.00  0.00    +0.102 A 
ATOM     36  C   UNL     1      -3.555  -2.646  -1.203  0.00  0.00    +0.045 A 
ATOM     37  C   UNL     1      -4.029  -1.480  -1.847  0.00  0.00    +0.046 A 
ATOM     38  C   UNL     1      -3.063  -1.083  -2.695  0.00  0.00    +0.122 A 
ATOM     39  O   UNL     1      -2.032  -1.937  -2.593  0.00  0.00    -0.463 OA
ENDBRANCH  33  38
ENDBRANCH   1  33
TORSDOF 8
