REMARK  Name = ZINC33934790
REMARK  7 active torsions:
REMARK  status: ('A' for Active; 'I' for Inactive)
REMARK    1  A    between atoms: C_1  and  C_2
REMARK    2  A    between atoms: C_5  and  C_30
REMARK    3  A    between atoms: N_8  and  C_10
REMARK    4  A    between atoms: C_10  and  C_11
REMARK    5  A    between atoms: C_11  and  C_13
REMARK    6  A    between atoms: C_11  and  O_29
REMARK    7  A    between atoms: C_13  and  N_14
REMARK                            x       y       z     vdW  Elec       q    Type
REMARK                         _______ _______ _______ _____ _____    ______ ____
ROOT
ATOM      1  N   UNL     1       0.568  -1.987   6.123  0.00  0.00    -0.337 N 
ATOM      2  C   UNL     1       0.635  -0.767   6.772  0.00  0.00    +0.050 A 
ATOM      3  C   UNL     1       1.404   0.371   6.550  0.00  0.00    +0.027 A 
ATOM      4  C   UNL     1       1.263   1.470   7.371  0.00  0.00    +0.017 A 
ATOM      5  C   UNL     1       0.359   1.454   8.422  0.00  0.00    +0.019 A 
ATOM      6  C   UNL     1      -0.412   0.335   8.658  0.00  0.00    +0.026 A 
ATOM      7  C   UNL     1      -0.280  -0.782   7.836  0.00  0.00    +0.009 A 
ATOM      8  C   UNL     1      -0.931  -2.104   7.810  0.00  0.00    +0.009 A 
ATOM      9  C   UNL     1      -0.372  -2.802   6.729  0.00  0.00    +0.050 A 
ATOM     10  C   UNL     1      -0.807  -4.095   6.454  0.00  0.00    +0.027 A 
ATOM     11  C   UNL     1      -1.779  -4.677   7.238  0.00  0.00    +0.017 A 
ATOM     12  C   UNL     1      -2.334  -3.985   8.305  0.00  0.00    +0.019 A 
ATOM     13  C   UNL     1      -1.909  -2.706   8.598  0.00  0.00    +0.026 A 
ATOM     14 BR   UNL     1      -3.668  -4.801   9.367  0.00  0.00    -0.050 Br
ATOM     15 BR   UNL     1       0.183   2.971   9.537  0.00  0.00    -0.050 Br
ENDROOT
BRANCH   1  16
ATOM     16  C   UNL     1       1.373  -2.360   4.957  0.00  0.00    +0.151 C 
BRANCH  16  17
ATOM     17  C   UNL     1       0.633  -1.963   3.678  0.00  0.00    +0.118 C 
BRANCH  17  18
ATOM     18  O   UNL     1       0.517  -0.540   3.618  0.00  0.00    -0.392 OA
ATOM     19  H   UNL     1       1.366  -0.076   3.612  0.00  0.00    +0.210 HD
ENDBRANCH  17  18
BRANCH  17  20
ATOM     20  C   UNL     1       1.413  -2.463   2.461  0.00  0.00    -0.045 C 
BRANCH  20  26
ATOM     21  C   UNL     1       1.677  -2.328  -2.426  0.00  0.00    +0.005 C 
ATOM     22  C   UNL     1       0.820  -1.966  -1.211  0.00  0.00    -0.031 C 
ATOM     23  C   UNL     1      -0.541  -2.660  -1.321  0.00  0.00    +0.003 C 
ATOM     24  C   UNL     1      -1.361  -2.355  -0.064  0.00  0.00    -0.031 C 
ATOM     25  C   UNL     1      -0.578  -2.804   1.171  0.00  0.00    -0.076 C 
ATOM     26  N   UNL     1       0.701  -2.086   1.233  0.00  0.00    +0.382 N 
ATOM     27  C   UNL     1       1.523  -2.429   0.067  0.00  0.00    -0.076 C 
ATOM     28  C   UNL     1      -2.692  -3.106  -0.128  0.00  0.00    +0.005 C 
ATOM     29  H   UNL     1       0.527  -1.092   1.240  0.00  0.00    -0.082 HD
ENDBRANCH  20  26
ENDBRANCH  17  20
ENDBRANCH  16  17
ENDBRANCH   1  16
TORSDOF 5
