REMARK  Name = ZINC39448252
REMARK  12 active torsions:
REMARK  status: ('A' for Active; 'I' for Inactive)
REMARK    1  A    between atoms: C_1  and  C_2
REMARK    2  A    between atoms: C_4  and  C_16
REMARK    3  A    between atoms: C_5  and  C_15
REMARK    4  A    between atoms: N_7  and  C_8
REMARK    5  A    between atoms: C_8  and  C_9
REMARK    6  A    between atoms: C_16  and  N_17
REMARK    7  A    between atoms: C_18  and  C_20
REMARK    8  A    between atoms: C_20  and  C_21
REMARK    9  A    between atoms: C_21  and  N_22
REMARK   10  A    between atoms: C_23  and  C_29
REMARK   11  A    between atoms: C_32  and  O_35
REMARK   12  A    between atoms: O_35  and  C_36
REMARK                            x       y       z     vdW  Elec       q    Type
REMARK                         _______ _______ _______ _____ _____    ______ ____
ROOT
ATOM      1  N   UNL     1      -2.746   1.833  -0.368  0.00  0.00    -0.311 N 
ATOM      2  C   UNL     1      -3.664   1.660  -1.339  0.00  0.00    +0.215 C 
ATOM      3  O   UNL     1      -3.756   0.590  -1.903  0.00  0.00    -0.276 OA
ATOM      4  H   UNL     1      -2.673   2.689   0.084  0.00  0.00    +0.149 HD
ENDROOT
BRANCH   1   5
ATOM      5  C   UNL     1      -1.857   0.730   0.006  0.00  0.00    +0.138 C 
BRANCH   5   8
ATOM      6  C   UNL     1       0.134   3.394   0.618  0.00  0.00    +0.030 C 
ATOM      7  C   UNL     1       0.381   1.914   0.919  0.00  0.00    +0.100 C 
ATOM      8  C   UNL     1      -0.932   1.180   1.106  0.00  0.00    -0.018 C 
ATOM      9  C   UNL     1      -1.123   1.005   2.389  0.00  0.00    -0.000 C 
ATOM     10  N   UNL     1      -0.078   1.548   3.143  0.00  0.00    -0.354 NA
ATOM     11  N   UNL     1       1.057   1.752   2.231  0.00  0.00    -0.235 NA
ATOM     12  C   UNL     1      -2.320   0.306   2.981  0.00  0.00    +0.060 C 
ATOM     13  H   UNL     1      -0.363   2.431   3.539  0.00  0.00    +0.141 HD
ATOM     14  H   UNL     1       0.184   0.908   3.877  0.00  0.00    +0.141 HD
BRANCH  11  15
ATOM     15  C   UNL     1       1.946   0.583   2.224  0.00  0.00    +0.139 C 
BRANCH  15  16
ATOM     16  C   UNL     1       2.704   0.521   3.525  0.00  0.00    -0.032 A 
ATOM     17  C   UNL     1       3.922   1.163   3.646  0.00  0.00    +0.005 A 
ATOM     18  C   UNL     1       4.618   1.107   4.839  0.00  0.00    +0.000 A 
ATOM     19  C   UNL     1       4.096   0.409   5.911  0.00  0.00    +0.000 A 
ATOM     20  C   UNL     1       2.878  -0.233   5.791  0.00  0.00    +0.000 A 
ATOM     21  C   UNL     1       2.180  -0.173   4.599  0.00  0.00    +0.005 A 
ENDBRANCH  15  16
ENDBRANCH  11  15
ENDBRANCH   5   8
ENDBRANCH   1   5
BRANCH   2  22
ATOM     22  C   UNL     1      -4.578   2.795  -1.723  0.00  0.00    +0.117 C 
BRANCH  22  23
ATOM     23  C   UNL     1      -5.518   2.337  -2.840  0.00  0.00    +0.135 C 
BRANCH  23  24
ATOM     24  N   UNL     1      -6.482   3.401  -3.133  0.00  0.00    -0.303 N 
ATOM     25  C   UNL     1      -7.745   3.520  -2.588  0.00  0.00    +0.163 A 
ATOM     26  H   UNL     1      -7.559   5.992  -4.485  0.00  0.00    +0.191 HD
ATOM     27  N   UNL     1      -8.311   4.585  -3.082  0.00  0.00    -0.153 NA
ATOM     28  N   UNL     1      -7.408   5.184  -3.971  0.00  0.00    -0.254 N 
ATOM     29  C   UNL     1      -6.287   4.434  -3.977  0.00  0.00    +0.176 A 
ATOM     30  S   UNL     1      -4.872   4.737  -4.893  0.00  0.00    -0.011 S 
BRANCH  25  31
ATOM     31  C   UNL     1      -8.354   2.594  -1.609  0.00  0.00    +0.019 A 
ATOM     32  C   UNL     1      -7.544   1.759  -0.837  0.00  0.00    +0.015 A 
ATOM     33  C   UNL     1      -8.115   0.898   0.075  0.00  0.00    +0.046 A 
ATOM     34  C   UNL     1      -9.495   0.859   0.226  0.00  0.00    +0.120 A 
ATOM     35  C   UNL     1     -10.305   1.687  -0.540  0.00  0.00    +0.046 A 
ATOM     36  C   UNL     1      -9.740   2.556  -1.449  0.00  0.00    +0.015 A 
BRANCH  34  37
ATOM     37  O   UNL     1     -10.055   0.008   1.126  0.00  0.00    -0.495 OA
ATOM     38  C   UNL     1     -11.480   0.020   1.230  0.00  0.00    +0.277 C 
ENDBRANCH  34  37
ENDBRANCH  25  31
ENDBRANCH  23  24
ENDBRANCH  22  23
ENDBRANCH   2  22
TORSDOF 9
