REMARK  Name = ZINC30822727
REMARK  7 active torsions:
REMARK  status: ('A' for Active; 'I' for Inactive)
REMARK    1  A    between atoms: C_1  and  N_2
REMARK    2  A    between atoms: N_2  and  C_3
REMARK    3  A    between atoms: N_2  and  C_4
REMARK    4  A    between atoms: C_7  and  C_10
REMARK    5  A    between atoms: N_11  and  N_12
REMARK    6  A    between atoms: C_15  and  C_33
REMARK    7  A    between atoms: C_25  and  C_26
REMARK                            x       y       z     vdW  Elec       q    Type
REMARK                         _______ _______ _______ _____ _____    ______ ____
ROOT
ATOM      1  N   UNL     1      -1.363   3.384   0.939  0.00  0.00    -0.247 N 
ATOM      2  C   UNL     1      -2.426   4.035   0.492  0.00  0.00    +0.216 A 
ATOM      3  C   UNL     1      -2.427   5.441   0.518  0.00  0.00    +0.076 A 
ATOM      4  C   UNL     1      -3.518   6.127   0.053  0.00  0.00    -0.002 A 
ATOM      5  C   UNL     1      -4.665   5.348  -0.451  0.00  0.00    +0.026 A 
ATOM      6  C   UNL     1      -5.804   5.987  -0.931  0.00  0.00    +0.024 A 
ATOM      7  C   UNL     1      -6.866   5.225  -1.399  0.00  0.00    +0.029 A 
ATOM      8  C   UNL     1      -6.795   3.819  -1.388  0.00  0.00    +0.139 A 
ATOM      9  C   UNL     1      -5.654   3.190  -0.907  0.00  0.00    +0.093 A 
ATOM     10  C   UNL     1      -4.592   3.942  -0.440  0.00  0.00    +0.142 A 
ATOM     11  O   UNL     1      -3.478   3.332   0.030  0.00  0.00    -0.438 OA
ATOM     12  O   UNL     1      -7.955   3.353  -1.894  0.00  0.00    -0.462 OA
ATOM     13  C   UNL     1      -8.778   4.361  -2.233  0.00  0.00    +0.204 A 
ATOM     14  C   UNL     1      -8.190   5.548  -1.963  0.00  0.00    +0.028 A 
ATOM     15  H   UNL     1      -0.496   3.943   1.320  0.00  0.00    +0.192 HD
ENDROOT
BRANCH  14  16
ATOM     16  C   UNL     1      -8.760   6.898  -2.188  0.00  0.00    -0.014 A 
ATOM     17  C   UNL     1      -8.751   7.841  -1.162  0.00  0.00    +0.010 A 
ATOM     18  C   UNL     1      -9.277   9.098  -1.378  0.00  0.00    +0.020 A 
ATOM     19  C   UNL     1      -9.823   9.420  -2.609  0.00  0.00    +0.041 A 
ATOM     20  C   UNL     1      -9.839   8.486  -3.631  0.00  0.00    +0.020 A 
ATOM     21  C   UNL     1      -9.310   7.228  -3.426  0.00  0.00    +0.010 A 
ATOM     22 CL   UNL     1     -10.490  11.001  -2.873  0.00  0.00    -0.084 Cl
ENDBRANCH  14  16
BRANCH   4  23
ATOM     23  C   UNL     1      -3.548   7.606   0.062  0.00  0.00    -0.017 A 
ATOM     24  C   UNL     1      -4.073   8.303  -1.028  0.00  0.00    +0.008 A 
ATOM     25  C   UNL     1      -4.102   9.682  -1.010  0.00  0.00    +0.001 A 
ATOM     26  C   UNL     1      -3.604  10.374   0.080  0.00  0.00    +0.000 A 
ATOM     27  C   UNL     1      -3.077   9.689   1.160  0.00  0.00    +0.001 A 
ATOM     28  C   UNL     1      -3.046   8.310   1.158  0.00  0.00    +0.008 A 
ENDBRANCH   4  23
BRANCH   1  30
ATOM     29  C   UNL     1      -0.295   1.451   1.371  0.00  0.00    +0.140 C 
ATOM     30  N   UNL     1      -1.346   2.095   0.928  0.00  0.00    -0.179 NA
BRANCH  29  34
ATOM     31  C   UNL     1      -0.237  -2.790   1.336  0.00  0.00    +0.029 A 
ATOM     32  C   UNL     1       0.864  -2.085   1.812  0.00  0.00    +0.024 A 
ATOM     33  C   UNL     1       0.850  -0.709   1.826  0.00  0.00    +0.011 A 
ATOM     34  C   UNL     1      -0.275  -0.018   1.359  0.00  0.00    -0.005 A 
ATOM     35  C   UNL     1      -1.383  -0.732   0.885  0.00  0.00    +0.011 A 
ATOM     36  C   UNL     1      -1.357  -2.108   0.871  0.00  0.00    +0.024 A 
BRANCH  31  38
ATOM     37  C   UNL     1       0.961  -4.905   1.814  0.00  0.00    +0.129 C 
ATOM     38  N   UNL     1      -0.217  -4.185   1.324  0.00  0.00    -0.336 N 
ATOM     39  C   UNL     1      -1.375  -4.929   0.823  0.00  0.00    +0.129 C 
ENDBRANCH  31  38
ENDBRANCH  29  34
ENDBRANCH   1  30
TORSDOF 5
