REMARK  Name = ZINC03274042
REMARK  7 active torsions:
REMARK  status: ('A' for Active; 'I' for Inactive)
REMARK    1  A    between atoms: C_1  and  C_2
REMARK    2  A    between atoms: C_2  and  O_3
REMARK    3  A    between atoms: O_3  and  C_4
REMARK    4  A    between atoms: C_4  and  C_6
REMARK    5  A    between atoms: C_10  and  N_11
REMARK    6  A    between atoms: N_11  and  C_12
REMARK    7  A    between atoms: C_31  and  C_35
REMARK                            x       y       z     vdW  Elec       q    Type
REMARK                         _______ _______ _______ _____ _____    ______ ____
ROOT
ATOM      1  C   UNL     1      -0.620   8.410   0.054  0.00  0.00    +0.086 C 
ATOM      2  C   UNL     1       0.316   7.400   0.080  0.00  0.00    +0.059 C 
ATOM      3  C   UNL     1       1.603   7.573   0.786  0.00  0.00    +0.000 A 
ATOM      4  C   UNL     1       1.920   8.752   1.449  0.00  0.00    +0.009 A 
ATOM      5  C   UNL     1       3.135   8.864   2.095  0.00  0.00    +0.001 A 
ATOM      6  C   UNL     1       4.038   7.811   2.085  0.00  0.00    +0.001 A 
ATOM      7  C   UNL     1       3.741   6.635   1.433  0.00  0.00    +0.014 A 
ATOM      8  C   UNL     1       2.518   6.500   0.774  0.00  0.00    +0.046 A 
ATOM      9  C   UNL     1       2.160   5.261   0.072  0.00  0.00    +0.260 C 
ATOM     10  O   UNL     1       2.943   4.331   0.062  0.00  0.00    -0.269 OA
ATOM     11  N   UNL     1       0.983   5.140  -0.564  0.00  0.00    -0.180 N 
ATOM     12  C   UNL     1       0.066   6.120  -0.594  0.00  0.00    +0.261 C 
ATOM     13  O   UNL     1      -0.984   5.946  -1.185  0.00  0.00    -0.269 OA
ATOM     14  C   UNL     1       0.700   3.943  -1.217  0.00  0.00    +0.174 A 
ATOM     15  N   UNL     1      -0.380   3.604  -1.893  0.00  0.00    -0.232 NA
ATOM     16  C   UNL     1      -0.487   2.419  -2.461  0.00  0.00    +0.120 A 
ATOM     17  C   UNL     1       0.540   1.544  -2.326  0.00  0.00    +0.068 A 
ATOM     18  S   UNL     1       1.678   2.515  -1.350  0.00  0.00    -0.060 S 
ENDROOT
BRANCH   1  19
ATOM     19  N   UNL     1      -0.225   9.707   0.161  0.00  0.00    -0.314 N 
ATOM     20  H   UNL     1       0.846   9.959   0.152  0.00  0.00    +0.152 HD
BRANCH  19  25
ATOM     21  C   UNL     1      -0.965  12.080   0.398  0.00  0.00    +0.091 A 
ATOM     22  C   UNL     1      -2.140  12.927   0.510  0.00  0.00    -0.021 A 
ATOM     23  C   UNL     1      -3.323  12.276   0.485  0.00  0.00    -0.004 A 
ATOM     24  S   UNL     1      -2.896  10.567   0.310  0.00  0.00    -0.077 S 
ATOM     25  C   UNL     1      -1.170  10.711   0.280  0.00  0.00    +0.084 A 
ATOM     26  C   UNL     1      -4.690  12.881   0.580  0.00  0.00    +0.046 C 
ATOM     27  C   UNL     1      -4.567  14.392   0.335  0.00  0.00    -0.009 C 
ATOM     28  C   UNL     1      -3.422  14.940   1.192  0.00  0.00    +0.008 C 
ATOM     29  C   UNL     1      -2.082  14.444   0.648  0.00  0.00    +0.037 C 
ATOM     30  C   UNL     1      -5.876  15.083   0.725  0.00  0.00    +0.008 C 
BRANCH  21  31
ATOM     31  C   UNL     1       0.385  12.648   0.410  0.00  0.00    +0.342 C 
ATOM     32  O   UNL     1       0.914  12.979  -0.634  0.00  0.00    -0.245 OA
BRANCH  31  33
ATOM     33  O   UNL     1       1.041  12.805   1.578  0.00  0.00    -0.461 OA
BRANCH  33  35
ATOM     34  C   UNL     1       2.956  13.473   2.925  0.00  0.00    +0.048 C 
ATOM     35  C   UNL     1       2.375  13.374   1.513  0.00  0.00    +0.229 C 
ENDBRANCH  33  35
ENDBRANCH  31  33
ENDBRANCH  21  31
ENDBRANCH  19  25
ENDBRANCH   1  19
TORSDOF 5
