REMARK  Name = ZINC09086683
REMARK  10 active torsions:
REMARK  status: ('A' for Active; 'I' for Inactive)
REMARK    1  A    between atoms: C_4  and  C_7
REMARK    2  A    between atoms: C_7  and  C_8
REMARK    3  A    between atoms: C_7  and  C_24
REMARK    4  A    between atoms: C_7  and  N_28
REMARK    5  A    between atoms: C_8  and  C_9
REMARK    6  A    between atoms: N_10  and  N_11
REMARK    7  A    between atoms: N_11  and  C_12
REMARK    8  A    between atoms: C_15  and  N_21
REMARK    9  A    between atoms: C_17  and  N_18
REMARK   10  A    between atoms: C_29  and  C_31
REMARK                            x       y       z     vdW  Elec       q    Type
REMARK                         _______ _______ _______ _____ _____    ______ ____
ROOT
ATOM      1  C   UNL     1      -2.166   1.490  -1.507  0.00  0.00    +0.160 C 
ENDROOT
BRANCH   1   5
ATOM      2  C   UNL     1      -0.846   0.097  -5.324  0.00  0.00    +0.000 A 
ATOM      3  C   UNL     1      -1.575   1.268  -5.230  0.00  0.00    +0.000 A 
ATOM      4  C   UNL     1      -2.002   1.718  -3.994  0.00  0.00    +0.006 A 
ATOM      5  C   UNL     1      -1.700   0.998  -2.854  0.00  0.00    -0.015 A 
ATOM      6  C   UNL     1      -0.967  -0.170  -2.947  0.00  0.00    +0.006 A 
ATOM      7  C   UNL     1      -0.543  -0.623  -4.183  0.00  0.00    +0.000 A 
ENDBRANCH   1   5
BRANCH   1   8
ATOM      8  C   UNL     1      -3.547   0.906  -1.201  0.00  0.00    +0.415 C 
ATOM      9  F   UNL     1      -3.979   1.363   0.049  0.00  0.00    -0.168 F 
ATOM     10  F   UNL     1      -4.454   1.314  -2.185  0.00  0.00    -0.168 F 
ATOM     11  F   UNL     1      -3.470  -0.490  -1.187  0.00  0.00    -0.168 F 
ENDBRANCH   1   8
BRANCH   1  12
ATOM     12  N   UNL     1      -2.246   2.952  -1.522  0.00  0.00    -0.290 N 
ATOM     13  C   UNL     1      -1.143   3.685  -1.773  0.00  0.00    +0.318 C 
ATOM     14  O   UNL     1      -0.084   3.134  -1.986  0.00  0.00    -0.266 OA
ATOM     15  H   UNL     1      -3.093   3.393  -1.352  0.00  0.00    +0.150 HD
BRANCH  13  16
ATOM     16  C   UNL     1      -1.225   5.190  -1.788  0.00  0.00    +0.469 C 
ATOM     17  F   UNL     1       0.037   5.723  -2.068  0.00  0.00    -0.162 F 
ATOM     18  F   UNL     1      -2.132   5.597  -2.772  0.00  0.00    -0.162 F 
ATOM     19  F   UNL     1      -1.657   5.646  -0.538  0.00  0.00    -0.162 F 
ENDBRANCH  13  16
ENDBRANCH   1  12
BRANCH   1  20
ATOM     20  C   UNL     1      -1.174   1.044  -0.431  0.00  0.00    +0.088 C 
BRANCH  20  21
ATOM     21  C   UNL     1      -1.639   1.536   0.915  0.00  0.00    +0.106 C 
ATOM     22  N   UNL     1      -1.802   0.707   1.878  0.00  0.00    -0.195 NA
BRANCH  22  23
ATOM     23  N   UNL     1      -2.234   1.164   3.130  0.00  0.00    -0.236 N 
ATOM     24  H   UNL     1      -2.411   2.108   3.267  0.00  0.00    +0.174 HD
BRANCH  23  25
ATOM     25  C   UNL     1      -2.412   0.261   4.179  0.00  0.00    +0.079 A 
ATOM     26  C   UNL     1      -2.270  -1.103   3.956  0.00  0.00    +0.029 A 
ATOM     27  C   UNL     1      -2.445  -1.994   4.996  0.00  0.00    +0.035 A 
ATOM     28  C   UNL     1      -2.762  -1.529   6.260  0.00  0.00    +0.128 A 
ATOM     29  C   UNL     1      -2.904  -0.173   6.486  0.00  0.00    +0.067 A 
ATOM     30  C   UNL     1      -2.724   0.724   5.451  0.00  0.00    +0.151 A 
BRANCH  30  31
ATOM     31  N   UNL     1      -2.871   2.177   5.696  0.00  0.00    +0.058 N 
ATOM     32  O   UNL     1      -2.139   2.967   5.127  0.00  0.00    -0.126 OA
ATOM     33  O   UNL     1      -3.724   2.582   6.465  0.00  0.00    -0.126 OA
ENDBRANCH  30  31
BRANCH  28  34
ATOM     34  N   UNL     1      -2.949  -2.487   7.373  0.00  0.00    +0.056 N 
ATOM     35  O   UNL     1      -2.824  -3.682   7.176  0.00  0.00    -0.126 OA
ATOM     36  O   UNL     1      -3.227  -2.080   8.487  0.00  0.00    -0.126 OA
ENDBRANCH  28  34
ENDBRANCH  23  25
ENDBRANCH  22  23
ENDBRANCH  20  21
ENDBRANCH   1  20
TORSDOF 10
