REMARK  Name = ZINC00885544
REMARK  8 active torsions:
REMARK  status: ('A' for Active; 'I' for Inactive)
REMARK    1  A    between atoms: C_6  and  C_7
REMARK    2  A    between atoms: C_7  and  C_9
REMARK    3  A    between atoms: C_7  and  N_18
REMARK    4  A    between atoms: N_11  and  C_12
REMARK    5  A    between atoms: N_18  and  C_19
REMARK    6  A    between atoms: C_24  and  C_26
REMARK    7  A    between atoms: C_29  and  C_31
REMARK    8  A    between atoms: C_31  and  N_75
REMARK                            x       y       z     vdW  Elec       q    Type
REMARK                         _______ _______ _______ _____ _____    ______ ____
ROOT
ATOM      1  N   UNL     1       0.683   5.458   6.113  0.00  0.00    -0.276 N 
ATOM      2  C   UNL     1      -0.396   4.653   6.049  0.00  0.00    +0.283 C 
ATOM      3  O   UNL     1      -0.469   3.801   5.184  0.00  0.00    -0.267 OA
ENDROOT
BRANCH   1   4
ATOM      4  C   UNL     1       1.802   5.258   5.188  0.00  0.00    +0.078 C 
ATOM      5  C   UNL     1       1.324   5.445   3.733  0.00  0.00    +0.022 C 
ATOM      6  C   UNL     1       2.118   4.380   2.934  0.00  0.00    +0.002 C 
ATOM      7  C   UNL     1       2.148   3.175   3.906  0.00  0.00    +0.002 C 
ATOM      8  C   UNL     1       2.325   3.816   5.298  0.00  0.00    +0.022 C 
ENDBRANCH   1   4
BRANCH   2   9
ATOM      9  C   UNL     1      -1.482   4.805   7.022  0.00  0.00    +0.190 A 
ATOM     10  C   UNL     1      -2.549   3.965   7.172  0.00  0.00    +0.055 A 
ATOM     11  C   UNL     1      -3.332   4.490   8.212  0.00  0.00    +0.043 A 
ATOM     12  C   UNL     1      -2.718   5.612   8.646  0.00  0.00    +0.090 A 
ATOM     13  O   UNL     1      -1.607   5.802   7.923  0.00  0.00    -0.457 OA
BRANCH  12  14
ATOM     14  C   UNL     1      -3.207   6.508   9.755  0.00  0.00    -0.003 C 
BRANCH  14  20
ATOM     15  C   UNL     1      -2.799   7.119  12.063  0.00  0.00    -0.050 C 
ATOM     16  C   UNL     1      -2.183   6.633  13.378  0.00  0.00    +0.141 C 
ATOM     17  O   UNL     1      -0.796   6.354  13.175  0.00  0.00    -0.383 OA
ATOM     18  C   UNL     1      -0.548   5.369  12.168  0.00  0.00    +0.141 C 
ATOM     19  C   UNL     1      -1.147   5.841  10.841  0.00  0.00    -0.050 C 
ATOM     20  N   UNL     1      -2.593   6.081  11.031  0.00  0.00    +0.387 N 
ATOM     21  H   UNL     1      -3.038   5.209  11.341  0.00  0.00    -0.081 HD
ENDBRANCH  14  20
ENDBRANCH  12  14
ENDBRANCH   2   9
BRANCH   1  22
ATOM     22  C   UNL     1       0.738   6.533   7.107  0.00  0.00    +0.193 C 
BRANCH  22  28
ATOM     23  C   UNL     1       3.127   7.168   7.495  0.00  0.00    +0.009 A 
ATOM     24  C   UNL     1       4.306   7.080   8.211  0.00  0.00    +0.038 A 
ATOM     25  C   UNL     1       4.385   6.246   9.314  0.00  0.00    +0.123 A 
ATOM     26  C   UNL     1       3.281   5.506   9.701  0.00  0.00    +0.038 A 
ATOM     27  C   UNL     1       2.102   5.600   8.987  0.00  0.00    +0.009 A 
ATOM     28  C   UNL     1       2.024   6.432   7.886  0.00  0.00    -0.018 A 
ATOM     29  F   UNL     1       5.538   6.156  10.012  0.00  0.00    -0.205 F 
ENDBRANCH  22  28
BRANCH  22  30
ATOM     30  C   UNL     1       0.676   7.867   6.409  0.00  0.00    +0.238 C 
ATOM     31  O   UNL     1       0.595   7.915   5.200  0.00  0.00    -0.273 OA
ATOM     32  N   UNL     1       0.712   9.006   7.128  0.00  0.00    -0.311 N 
ATOM     33  H   UNL     1       0.777   8.967   8.095  0.00  0.00    +0.149 HD
BRANCH  32  34
ATOM     34  C   UNL     1       0.652  10.303   6.449  0.00  0.00    +0.073 C 
ATOM     35  C   UNL     1       2.059  10.712   6.006  0.00  0.00    +0.022 C 
ATOM     36  C   UNL     1       1.996  12.066   5.297  0.00  0.00    +0.002 C 
ATOM     37  C   UNL     1       1.438  13.119   6.256  0.00  0.00    +0.000 C 
ATOM     38  C   UNL     1       0.032  12.710   6.699  0.00  0.00    +0.002 C 
ATOM     39  C   UNL     1       0.094  11.356   7.409  0.00  0.00    +0.022 C 
ENDBRANCH  32  34
ENDBRANCH  22  30
ENDBRANCH   1  22
TORSDOF 8
