REMARK  Name = ZINC36704303
REMARK  11 active torsions:
REMARK  status: ('A' for Active; 'I' for Inactive)
REMARK    1  A    between atoms: C_1  and  C_2
REMARK    2  A    between atoms: C_7  and  C_8
REMARK    3  A    between atoms: N_12  and  C_13
REMARK    4  A    between atoms: C_13  and  C_14
REMARK    5  A    between atoms: C_14  and  C_15
REMARK    6  A    between atoms: C_15  and  N_16
REMARK    7  A    between atoms: N_16  and  C_17
REMARK    8  A    between atoms: N_16  and  C_18
REMARK    9  A    between atoms: C_19  and  C_21
REMARK   10  A    between atoms: N_24  and  S_27
REMARK   11  A    between atoms: S_27  and  C_30
REMARK                            x       y       z     vdW  Elec       q    Type
REMARK                         _______ _______ _______ _____ _____    ______ ____
ROOT
ATOM      1  C   UNL     1      -2.497   1.096  -0.138  0.00  0.00    +0.044 C 
ATOM      2  C   UNL     1      -1.949  -0.308  -0.123  0.00  0.00    -0.045 A 
ATOM      3  C   UNL     1      -1.810  -0.985  -1.307  0.00  0.00    +0.032 A 
ATOM      4  C   UNL     1      -1.300  -2.303  -1.329  0.00  0.00    +0.081 A 
ATOM      5  C   UNL     1      -0.953  -2.860  -0.077  0.00  0.00    +0.041 A 
ATOM      6  C   UNL     1      -1.096  -2.175   1.103  0.00  0.00    +0.021 A 
ATOM      7  C   UNL     1      -1.593  -0.884   1.088  0.00  0.00    -0.046 A 
ATOM      8  C   UNL     1      -1.751  -0.114   2.373  0.00  0.00    +0.044 C 
ATOM      9  S   UNL     1      -0.371  -4.476  -0.530  0.00  0.00    -0.052 S 
ATOM     10  C   UNL     1      -0.616  -4.318  -2.293  0.00  0.00    +0.168 A 
ATOM     11  N   UNL     1      -1.100  -3.102  -2.400  0.00  0.00    -0.224 NA
ATOM     12  N   UNL     1      -0.360  -5.242  -3.292  0.00  0.00    -0.250 N 
ATOM     13  C   UNL     1       0.009  -6.498  -2.971  0.00  0.00    +0.224 C 
ATOM     14  O   UNL     1       0.335  -7.276  -3.842  0.00  0.00    -0.275 OA
ENDROOT
BRANCH  13  15
ATOM     15  C   UNL     1       0.016  -6.935  -1.528  0.00  0.00    +0.078 C 
ATOM     16  C   UNL     1       1.357  -6.565  -0.890  0.00  0.00    +0.030 C 
ATOM     17  C   UNL     1       1.348  -6.979   0.584  0.00  0.00    +0.110 C 
ATOM     18  N   UNL     1       1.011  -8.407   0.672  0.00  0.00    -0.176 NA
ATOM     19  C   UNL     1      -0.212  -8.886   0.015  0.00  0.00    +0.110 C 
ATOM     20  C   UNL     1      -0.185  -8.450  -1.454  0.00  0.00    +0.030 C 
BRANCH  18  21
ATOM     21  S   UNL     1       1.992  -9.456   1.497  0.00  0.00    +0.067 S 
ATOM     22  O   UNL     1       1.749 -10.748   0.957  0.00  0.00    -0.152 OA
ATOM     23  O   UNL     1       3.287  -8.870   1.518  0.00  0.00    -0.152 OA
BRANCH  21  24
ATOM     24  C   UNL     1       1.429  -9.493   3.166  0.00  0.00    +0.143 A 
ATOM     25  C   UNL     1       0.510 -10.309   3.739  0.00  0.00    +0.036 A 
ATOM     26  C   UNL     1       0.223 -10.156   5.082  0.00  0.00    +0.010 A 
ATOM     27  C   UNL     1       0.869  -9.195   5.787  0.00  0.00    +0.047 A 
ATOM     28  S   UNL     1       1.926  -8.472   4.543  0.00  0.00    -0.077 S 
ENDBRANCH  21  24
ENDBRANCH  18  21
ENDBRANCH  13  15
BRANCH  12  29
ATOM     29  C   UNL     1      -0.490  -4.854  -4.699  0.00  0.00    +0.114 C 
BRANCH  29  30
ATOM     30  C   UNL     1       0.821  -4.228  -5.179  0.00  0.00    +0.001 C 
BRANCH  30  31
ATOM     31  C   UNL     1       0.684  -3.823  -6.648  0.00  0.00    -0.078 C 
BRANCH  31  32
ATOM     32  N   UNL     1       1.943  -3.222  -7.109  0.00  0.00    +0.376 N 
ATOM     33  C   UNL     1       3.008  -4.233  -7.082  0.00  0.00    -0.097 C 
ATOM     34  C   UNL     1       1.775  -2.725  -8.481  0.00  0.00    -0.097 C 
ATOM     35  H   UNL     1       2.191  -2.455  -6.502  0.00  0.00    -0.083 HD
ENDBRANCH  31  32
ENDBRANCH  30  31
ENDBRANCH  29  30
ENDBRANCH  12  29
TORSDOF 7
