REMARK  Name = ZINC36369740
REMARK  13 active torsions:
REMARK  status: ('A' for Active; 'I' for Inactive)
REMARK    1  A    between atoms: C_1  and  C_2
REMARK    2  A    between atoms: C_2  and  C_4
REMARK    3  A    between atoms: C_4  and  O_42
REMARK    4  A    between atoms: C_9  and  C_41
REMARK    5  A    between atoms: N_21  and  O_22
REMARK    6  A    between atoms: O_22  and  C_23
REMARK    7  A    between atoms: C_23  and  C_24
REMARK    8  A    between atoms: N_26  and  CA_27
REMARK    9  A    between atoms: CA_27  and  CB_29
REMARK   10  A    between atoms: CA_27  and  C_34
REMARK   11  A    between atoms: CB_29  and  CG_30
REMARK   12  A    between atoms: CG_30  and  CD_31
REMARK   13  A    between atoms: C_39  and  C_40
REMARK                            x       y       z     vdW  Elec       q    Type
REMARK                         _______ _______ _______ _____ _____    ______ ____
ROOT
ATOM      1  C   UNK A   0      -1.214  -0.809  -0.084  0.00  0.00    +0.129 C 
ATOM      2  C   UNK A   0      -1.722  -1.101  -1.508  0.00  0.00    +0.043 C 
ATOM      3  C   UNK A   0      -1.815  -2.640  -1.637  0.00  0.00    +0.008 C 
ATOM      4  C   UNK A   0      -0.833  -3.146  -0.565  0.00  0.00    +0.002 C 
ATOM      5  C   UNK A   0      -1.069  -2.188   0.617  0.00  0.00    +0.007 C 
ATOM      6  C   UNK A   0      -2.406  -2.465   1.306  0.00  0.00    +0.010 C 
ATOM      7  C   UNK A   0      -2.549  -3.941   1.676  0.00  0.00    +0.005 C 
ATOM      8  C   UNK A   0      -2.472  -4.758   0.385  0.00  0.00    +0.002 C 
ATOM      9  C   UNK A   0      -1.087  -4.595  -0.188  0.00  0.00    -0.003 C 
ATOM     10  C   UNK A   0       0.000  -5.058   0.774  0.00  0.00    +0.008 C 
ATOM     11  C   UNK A   0      -0.466  -6.186   1.684  0.00  0.00    +0.031 C 
ATOM     12  C   UNK A   0      -1.586  -6.948   1.020  0.00  0.00    -0.062 C 
ATOM     13  C   UNK A   0      -1.463  -8.241   0.763  0.00  0.00    +0.026 C 
ATOM     14  C   UNK A   0      -2.543  -8.990   0.109  0.00  0.00    +0.080 C 
ATOM     15  N   UNK A   0      -2.411 -10.259  -0.115  0.00  0.00    -0.089 NA
ATOM     16  C   UNK A   0      -3.808  -8.277  -0.302  0.00  0.00    +0.059 C 
ATOM     17  C   UNK A   0      -3.478  -6.807  -0.582  0.00  0.00    +0.017 C 
ATOM     18  C   UNK A   0      -2.798  -6.223   0.638  0.00  0.00    -0.007 C 
ATOM     19  C   UNK A   0      -3.779  -6.331   1.808  0.00  0.00    +0.016 C 
ATOM     20  C   UNK A   0       0.105  -2.204   1.598  0.00  0.00    +0.015 C 
ENDROOT
BRANCH   1  22
ATOM     21  C   UNK A   0       0.196   1.386  -0.030  0.00  0.00    +0.089 C 
ATOM     22  C   UNK A   0       0.122  -0.115  -0.143  0.00  0.00    +0.162 C 
ATOM     23  O   UNK A   0       1.133  -0.761  -0.281  0.00  0.00    -0.295 OA
ENDBRANCH   1  22
BRANCH   1  24
ATOM     24  O   UNK A   0      -2.158   0.002   0.619  0.00  0.00    -0.381 OA
ATOM     25  H   UNK A   0      -2.302   0.872   0.221  0.00  0.00    +0.211 HD
ENDBRANCH   1  24
BRANCH  15  26
ATOM     26  O   UNK A   0      -3.454 -10.979  -0.746  0.00  0.00    -0.384 OA
BRANCH  26  27
ATOM     27  C   UNK A   0      -3.174 -12.368  -0.929  0.00  0.00    +0.358 C 
BRANCH  27  28
ATOM     28  C   UNK A   0      -4.345 -13.032  -1.606  0.00  0.00    +0.254 C 
ATOM     29  O   UNK A   0      -5.324 -12.380  -1.901  0.00  0.00    -0.272 OA
ATOM     30  N   GLN A   1      -4.305 -14.351  -1.882  0.00  0.00    -0.299 N 
ATOM     31  H   GLN A   1      -3.522 -14.872  -1.645  0.00  0.00    +0.150 HD
BRANCH  30  32
ATOM     32  CA  GLN A   1      -5.444 -14.997  -2.539  0.00  0.00    +0.187 C 
BRANCH  32  33
ATOM     33  C   GLN A   1      -6.464 -15.392  -1.503  0.00  0.00    +0.376 C 
ATOM     34  O   GLN A   1      -7.647 -15.425  -1.794  0.00  0.00    -0.244 OA
ATOM     35  OXT GLN A   1      -6.106 -15.678  -0.373  0.00  0.00    -0.244 OA
ENDBRANCH  32  33
BRANCH  32  36
ATOM     36  CB  GLN A   1      -4.963 -16.244  -3.283  0.00  0.00    +0.043 C 
BRANCH  36  37
ATOM     37  CG  GLN A   1      -4.022 -15.831  -4.417  0.00  0.00    +0.098 C 
BRANCH  37  38
ATOM     38  CD  GLN A   1      -3.549 -17.059  -5.150  0.00  0.00    +0.211 C 
ATOM     39  OE1 GLN A   1      -3.926 -18.157  -4.800  0.00  0.00    -0.276 OA
ATOM     40  NE2 GLN A   1      -2.705 -16.938  -6.194  0.00  0.00    -0.329 N 
ATOM     41 HE21 GLN A   1      -2.403 -16.059  -6.474  0.00  0.00    +0.145 HD
ATOM     42 HE22 GLN A   1      -2.400 -17.729  -6.666  0.00  0.00    +0.145 HD
ENDBRANCH  37  38
ENDBRANCH  36  37
ENDBRANCH  32  36
ENDBRANCH  30  32
ENDBRANCH  27  28
ENDBRANCH  26  27
ENDBRANCH  15  26
TORSDOF 10
