REMARK  Name = ZINC04473512
REMARK  7 active torsions:
REMARK  status: ('A' for Active; 'I' for Inactive)
REMARK    1  A    between atoms: C_1  and  C_2
REMARK    2  A    between atoms: C_9  and  N_30
REMARK    3  A    between atoms: C_10  and  C_28
REMARK    4  A    between atoms: C_11  and  C_13
REMARK    5  A    between atoms: C_18  and  O_19
REMARK    6  A    between atoms: O_19  and  C_20
REMARK    7  A    between atoms: C_20  and  C_21
REMARK                            x       y       z     vdW  Elec       q    Type
REMARK                         _______ _______ _______ _____ _____    ______ ____
ROOT
ATOM      1  C   UNL     1      -0.018   1.503   0.010  0.00  0.00    +0.065 C 
ATOM      2  C   UNL     1       0.002  -0.004   0.002  0.00  0.00    +0.041 A 
ATOM      3  C   UNL     1       0.008  -0.790  -1.085  0.00  0.00    +0.049 A 
ATOM      4  C   UNL     1       0.030  -2.135  -0.654  0.00  0.00    +0.245 A 
ATOM      5  N   UNL     1       0.036  -2.141   0.647  0.00  0.00    -0.135 NA
ATOM      6  N   UNL     1       0.024  -0.809   1.090  0.00  0.00    -0.278 N 
ATOM      7  H   UNL     1       0.028  -0.516   2.015  0.00  0.00    +0.189 HD
ATOM      8  O   UNL     1       0.045  -3.173  -1.533  0.00  0.00    -0.421 OA
ATOM      9  C   UNL     1       0.309  -2.890  -2.824  0.00  0.00    +0.201 C 
ATOM     10  C   UNL     1       0.305  -1.648  -3.351  0.00  0.00    +0.098 C 
ATOM     11  C   UNL     1      -0.006  -0.413  -2.545  0.00  0.00    +0.105 C 
ENDROOT
BRANCH  11  12
ATOM     12  C   UNL     1      -1.368   0.111  -2.922  0.00  0.00    +0.007 A 
ATOM     13  C   UNL     1      -2.483  -0.691  -2.773  0.00  0.00    +0.008 A 
ATOM     14  C   UNL     1      -3.732  -0.211  -3.119  0.00  0.00    +0.001 A 
ATOM     15  C   UNL     1      -3.869   1.073  -3.615  0.00  0.00    +0.004 A 
ATOM     16  C   UNL     1      -2.758   1.879  -3.765  0.00  0.00    +0.046 A 
ATOM     17  C   UNL     1      -1.503   1.401  -3.413  0.00  0.00    +0.125 A 
BRANCH  17  18
ATOM     18  O   UNL     1      -0.409   2.194  -3.555  0.00  0.00    -0.487 OA
BRANCH  18  19
ATOM     19  C   UNL     1      -0.623   3.511  -4.067  0.00  0.00    +0.264 C 
BRANCH  19  20
ATOM     20  C   UNL     1       0.694   4.237  -4.154  0.00  0.00    -0.010 A 
ATOM     21  C   UNL     1       1.149   4.974  -3.076  0.00  0.00    +0.008 A 
ATOM     22  C   UNL     1       2.358   5.640  -3.155  0.00  0.00    +0.020 A 
ATOM     23  C   UNL     1       3.112   5.569  -4.313  0.00  0.00    +0.041 A 
ATOM     24  C   UNL     1       2.656   4.831  -5.391  0.00  0.00    +0.020 A 
ATOM     25  C   UNL     1       1.450   4.161  -5.309  0.00  0.00    +0.008 A 
ATOM     26 CL   UNL     1       4.630   6.406  -4.413  0.00  0.00    -0.084 Cl
ENDBRANCH  19  20
ENDBRANCH  18  19
ENDBRANCH  17  18
ENDBRANCH  11  12
BRANCH   9  27
ATOM     27  N   UNL     1       0.604  -3.938  -3.660  0.00  0.00    -0.328 N 
ATOM     28  H   UNL     1       0.617  -4.845  -3.315  0.00  0.00    +0.145 HD
ATOM     29  H   UNL     1       0.800  -3.772  -4.595  0.00  0.00    +0.145 HD
ENDBRANCH   9  27
BRANCH  10  30
ATOM     30  C   UNL     1       0.611  -1.496  -4.742  0.00  0.00    +0.101 C 
ATOM     31  N   UNL     1       0.853  -1.376  -5.846  0.00  0.00    -0.191 NA
ENDBRANCH  10  30
TORSDOF 6
