REMARK  Name = ZINC09641159
REMARK  8 active torsions:
REMARK  status: ('A' for Active; 'I' for Inactive)
REMARK    1  A    between atoms: C_3  and  C_6
REMARK    2  A    between atoms: C_6  and  C_8
REMARK    3  A    between atoms: C_6  and  N_53
REMARK    4  A    between atoms: C_8  and  N_9
REMARK    5  A    between atoms: C_10  and  C_12
REMARK    6  A    between atoms: C_15  and  N_18
REMARK    7  A    between atoms: N_18  and  S_19
REMARK    8  A    between atoms: S_19  and  C_22
REMARK                            x       y       z     vdW  Elec       q    Type
REMARK                         _______ _______ _______ _____ _____    ______ ____
ROOT
ATOM      1  N   UNL     1       4.112  -3.882   4.201  0.00  0.00    -0.312 N 
ATOM      2  C   UNL     1       4.973  -2.864   4.400  0.00  0.00    +0.244 C 
ATOM      3  O   UNL     1       5.817  -2.944   5.272  0.00  0.00    -0.270 OA
ATOM      4  H   UNL     1       3.438  -3.818   3.506  0.00  0.00    +0.149 HD
ENDROOT
BRANCH   2   5
ATOM      5  C   UNL     1       4.891  -1.654   3.561  0.00  0.00    +0.037 A 
ATOM      6  C   UNL     1       5.784  -0.598   3.767  0.00  0.00    +0.015 A 
ATOM      7  C   UNL     1       5.705   0.530   2.982  0.00  0.00    +0.025 A 
ATOM      8  C   UNL     1       4.738   0.620   1.985  0.00  0.00    +0.048 A 
ATOM      9  C   UNL     1       3.844  -0.427   1.782  0.00  0.00    +0.025 A 
ATOM     10  C   UNL     1       3.921  -1.560   2.559  0.00  0.00    +0.015 A 
BRANCH   8  11
ATOM     11  N   UNL     1       4.661   1.761   1.194  0.00  0.00    -0.216 N 
ATOM     12  H   UNL     1       4.700   2.639   1.604  0.00  0.00    +0.174 HD
BRANCH  11  13
ATOM     13  S   UNL     1       4.503   1.621  -0.448  0.00  0.00    +0.079 S 
ATOM     14  O   UNL     1       4.559   2.939  -0.976  0.00  0.00    -0.149 OA
ATOM     15  O   UNL     1       3.400   0.755  -0.678  0.00  0.00    -0.149 OA
BRANCH  13  16
ATOM     16  C   UNL     1       5.934   0.781  -1.040  0.00  0.00    +0.147 A 
ATOM     17  C   UNL     1       6.171  -0.551  -1.116  0.00  0.00    +0.038 A 
ATOM     18  C   UNL     1       7.381  -0.990  -1.621  0.00  0.00    +0.030 A 
ATOM     19  C   UNL     1       8.296  -0.073  -2.024  0.00  0.00    +0.080 A 
ATOM     20  S   UNL     1       7.449   1.463  -1.692  0.00  0.00    -0.057 S 
ATOM     21 CL   UNL     1       9.879  -0.327  -2.689  0.00  0.00    -0.076 Cl
ENDBRANCH  13  16
ENDBRANCH  11  13
ENDBRANCH   8  11
ENDBRANCH   2   5
BRANCH   1  22
ATOM     22  C   UNL     1       4.193  -5.084   5.034  0.00  0.00    +0.097 C 
BRANCH  22  23
ATOM     23  C   UNL     1       3.036  -6.024   4.688  0.00  0.00    +0.016 C 
BRANCH  23  28
ATOM     24  C   UNL     1       2.851  -6.721   7.013  0.00  0.00    -0.078 C 
ATOM     25  C   UNL     1       2.363  -8.005   7.731  0.00  0.00    -0.020 C 
ATOM     26  C   UNL     1       1.456  -8.670   6.670  0.00  0.00    -0.020 C 
ATOM     27  C   UNL     1       1.918  -8.085   5.322  0.00  0.00    -0.078 C 
ATOM     28  N   UNL     1       3.030  -7.184   5.628  0.00  0.00    +0.387 N 
ATOM     29  H   UNL     1       3.919  -7.691   5.544  0.00  0.00    -0.081 HD
ENDBRANCH  23  28
BRANCH  23  32
ATOM     30  C   UNL     1       2.999  -6.788   1.083  0.00  0.00    +0.041 A 
ATOM     31  C   UNL     1       2.549  -6.041   2.195  0.00  0.00    +0.043 A 
ATOM     32  C   UNL     1       3.197  -6.518   3.273  0.00  0.00    +0.093 A 
ATOM     33  O   UNL     1       4.015  -7.505   2.874  0.00  0.00    -0.469 OA
ATOM     34  C   UNL     1       3.895  -7.678   1.548  0.00  0.00    +0.195 A 
ENDBRANCH  23  32
ENDBRANCH  22  23
ENDBRANCH   1  22
TORSDOF 8
