REMARK  Name = ZINC01764061
REMARK  5 active torsions:
REMARK  status: ('A' for Active; 'I' for Inactive)
REMARK    1  A    between atoms: C_4  and  S_10
REMARK    2  A    between atoms: C_5  and  N_7
REMARK    3  A    between atoms: S_10  and  C_11
REMARK    4  A    between atoms: C_16  and  C_33
REMARK    5  A    between atoms: C_22  and  C_30
REMARK                            x       y       z     vdW  Elec       q    Type
REMARK                         _______ _______ _______ _____ _____    ______ ____
ROOT
ATOM      1  C   UNL     1       5.179   0.497  -0.047  0.00  0.00    +0.070 C 
ATOM      2  C   UNL     1       6.597  -0.107   0.044  0.00  0.00    +0.022 C 
ATOM      3  C   UNL     1       7.071  -0.171  -1.424  0.00  0.00    +0.024 C 
ATOM      4  C   UNL     1       8.590  -0.211  -1.495  0.00  0.00    +0.106 C 
ATOM      5  N   UNL     1       9.136   0.949  -0.781  0.00  0.00    -0.336 N 
ATOM      6  C   UNL     1       8.600   2.204  -1.057  0.00  0.00    +0.031 A 
ATOM      7  C   UNL     1       9.336   3.339  -0.719  0.00  0.00    +0.024 A 
ATOM      8  C   UNL     1       8.838   4.583  -0.978  0.00  0.00    +0.017 A 
ATOM      9  C   UNL     1       7.583   4.713  -1.585  0.00  0.00    +0.064 A 
ATOM     10  C   UNL     1       6.850   3.572  -1.920  0.00  0.00    +0.021 A 
ATOM     11  C   UNL     1       7.354   2.322  -1.657  0.00  0.00    -0.021 A 
ATOM     12  C   UNL     1       6.505   1.120  -2.040  0.00  0.00    +0.045 C 
ATOM     13  C   UNL     1       5.115   1.274  -1.375  0.00  0.00    +0.101 C 
ATOM     14 CL   UNL     1       3.840   0.574  -2.439  0.00  0.00    -0.120 Cl
ATOM     15  H   UNL     1       9.851   0.844  -0.134  0.00  0.00    +0.147 HD
ENDROOT
BRANCH   4  16
ATOM     16  C   UNL     1       9.029  -0.170  -2.936  0.00  0.00    -0.009 A 
ATOM     17  C   UNL     1       9.468   1.018  -3.491  0.00  0.00    +0.008 A 
ATOM     18  C   UNL     1       9.870   1.057  -4.812  0.00  0.00    +0.020 A 
ATOM     19  C   UNL     1       9.835  -0.093  -5.581  0.00  0.00    +0.042 A 
ATOM     20  C   UNL     1       9.396  -1.282  -5.026  0.00  0.00    +0.040 A 
ATOM     21  C   UNL     1       8.998  -1.321  -3.702  0.00  0.00    +0.047 A 
ATOM     22 CL   UNL     1       8.453  -2.814  -3.003  0.00  0.00    -0.083 Cl
ATOM     23 CL   UNL     1      10.340  -0.044  -7.241  0.00  0.00    -0.083 Cl
ENDBRANCH   4  16
BRANCH   9  24
ATOM     24  C   UNL     1       7.037   6.049  -1.870  0.00  0.00    +0.387 C 
ATOM     25  O   UNL     1       7.679   7.048  -1.576  0.00  0.00    -0.241 OA
ATOM     26  O   UNL     1       5.940   6.162  -2.400  0.00  0.00    -0.241 OA
ENDBRANCH   9  24
BRANCH   1  27
ATOM     27  S   UNL     1       3.939  -0.827  -0.042  0.00  0.00    -0.118 S 
BRANCH  27  31
ATOM     28  C   UNL     1      -0.017   1.379   0.010  0.00  0.00    +0.002 A 
ATOM     29  C   UNL     1       1.170   2.090   0.002  0.00  0.00    +0.001 A 
ATOM     30  C   UNL     1       2.377   1.421  -0.013  0.00  0.00    +0.017 A 
ATOM     31  C   UNL     1       2.400   0.031  -0.021  0.00  0.00    +0.038 A 
ATOM     32  C   UNL     1       1.206  -0.680  -0.013  0.00  0.00    +0.140 A 
ATOM     33  C   UNL     1       0.002  -0.004   0.002  0.00  0.00    +0.034 A 
BRANCH  32  34
ATOM     34  N   UNL     1       1.225  -2.160  -0.022  0.00  0.00    +0.058 N 
ATOM     35  O   UNL     1       0.186  -2.778  -0.015  0.00  0.00    -0.126 OA
ATOM     36  O   UNL     1       2.280  -2.751  -0.036  0.00  0.00    -0.126 OA
ENDBRANCH  32  34
ENDBRANCH  27  31
ENDBRANCH   1  27
TORSDOF 5
