REMARK  Name = ZINC18176319
REMARK  8 active torsions:
REMARK  status: ('A' for Active; 'I' for Inactive)
REMARK    1  A    between atoms: C_1  and  C_2
REMARK    2  A    between atoms: C_2  and  C_3
REMARK    3  A    between atoms: C_4  and  C_27
REMARK    4  A    between atoms: C_6  and  S_10
REMARK    5  A    between atoms: S_10  and  C_11
REMARK    6  A    between atoms: N_16  and  C_19
REMARK    7  A    between atoms: C_22  and  C_26
REMARK    8  A    between atoms: C_24  and  C_25
REMARK                            x       y       z     vdW  Elec       q    Type
REMARK                         _______ _______ _______ _____ _____    ______ ____
ROOT
ATOM      1  C   UNL     1       4.520  -2.059  -4.396  0.00  0.00    +0.150 C 
ATOM      2  C   UNL     1       5.397  -2.484  -5.591  0.00  0.00    +0.120 C 
ATOM      3  C   UNL     1       5.983  -3.807  -5.149  0.00  0.00    +0.228 C 
ATOM      4  O   UNL     1       6.741  -4.493  -5.801  0.00  0.00    -0.275 OA
ATOM      5  N   UNL     1       5.531  -4.101  -3.923  0.00  0.00    -0.209 N 
ATOM      6  C   UNL     1       4.701  -3.184  -3.401  0.00  0.00    +0.240 C 
ATOM      7  O   UNL     1       4.179  -3.246  -2.309  0.00  0.00    -0.274 OA
ENDROOT
BRANCH   5   8
ATOM      8  C   UNL     1       5.897  -5.269  -3.239  0.00  0.00    +0.047 A 
ATOM      9  C   UNL     1       7.012  -5.270  -2.412  0.00  0.00    +0.024 A 
ATOM     10  C   UNL     1       7.370  -6.422  -1.740  0.00  0.00    +0.005 A 
ATOM     11  C   UNL     1       6.619  -7.574  -1.890  0.00  0.00    -0.050 A 
ATOM     12  C   UNL     1       5.508  -7.575  -2.713  0.00  0.00    +0.008 A 
ATOM     13  C   UNL     1       5.141  -6.424  -3.383  0.00  0.00    -0.028 A 
ATOM     14  C   UNL     1       3.927  -6.425  -4.276  0.00  0.00    +0.046 C 
ATOM     15  C   UNL     1       7.012  -8.829  -1.155  0.00  0.00    +0.044 C 
ENDBRANCH   5   8
BRANCH   1  16
ATOM     16  S   UNL     1       2.781  -1.923  -4.897  0.00  0.00    -0.073 S 
BRANCH  16  20
ATOM     17  C   UNL     1       0.707  -0.490  -1.238  0.00  0.00    +0.040 A 
ATOM     18  C   UNL     1       0.004  -0.723  -2.405  0.00  0.00    +0.049 A 
ATOM     19  N   UNL     1       0.653  -1.150  -3.478  0.00  0.00    -0.227 NA
ATOM     20  C   UNL     1       1.963  -1.355  -3.444  0.00  0.00    +0.193 A 
ATOM     21  N   UNL     1       2.671  -1.143  -2.344  0.00  0.00    -0.183 NA
ATOM     22  C   UNL     1       2.084  -0.709  -1.235  0.00  0.00    +0.277 A 
ATOM     23  O   UNL     1       2.813  -0.487  -0.114  0.00  0.00    -0.265 OA
ATOM     24  C   UNL     1      -1.484  -0.495  -2.457  0.00  0.00    +0.066 C 
BRANCH  17  26
ATOM     25  C   UNL     1      -0.019   1.526   0.010  0.00  0.00    +0.009 C 
ATOM     26  C   UNL     1       0.002  -0.004   0.002  0.00  0.00    +0.039 C 
ENDBRANCH  17  26
ENDBRANCH  16  20
ENDBRANCH   1  16
TORSDOF 4
