REMARK  Name = ZINC06500958
REMARK  17 active torsions:
REMARK  status: ('A' for Active; 'I' for Inactive)
REMARK    1  A    between atoms: C_1  and  C_2
REMARK    2  A    between atoms: C_2  and  C_3
REMARK    3  A    between atoms: C_3  and  C_4
REMARK    4  A    between atoms: C_4  and  C_6
REMARK    5  A    between atoms: C_4  and  N_13
REMARK    6  A    between atoms: N_8  and  C_9
REMARK    7  A    between atoms: C_9  and  C_10
REMARK    8  A    between atoms: C_9  and  C_11
REMARK    9  A    between atoms: C_9  and  C_12
REMARK   10  A    between atoms: N_13  and  C_14
REMARK   11  A    between atoms: C_16  and  C_22
REMARK   12  A    between atoms: C_19  and  O_20
REMARK   13  A    between atoms: O_20  and  C_21
REMARK   14  A    between atoms: C_23  and  C_25
REMARK   15  A    between atoms: C_25  and  N_26
REMARK   16  A    between atoms: C_28  and  C_31
REMARK   17  A    between atoms: C_34  and  C_36
REMARK                            x       y       z     vdW  Elec       q    Type
REMARK                         _______ _______ _______ _____ _____    ______ ____
ROOT
ATOM      1  N   UNL     1      -3.938   2.401   2.471  0.00  0.00    -0.255 N 
ATOM      2  C   UNL     1      -4.271   3.638   2.053  0.00  0.00    +0.244 C 
ATOM      3  O   UNL     1      -5.425   3.896   1.779  0.00  0.00    -0.273 OA
ENDROOT
BRANCH   1   4
ATOM      4  C   UNL     1      -2.606   2.103   2.787  0.00  0.00    +0.079 A 
ATOM      5  C   UNL     1      -2.103   2.412   4.042  0.00  0.00    +0.030 A 
ATOM      6  C   UNL     1      -0.787   2.123   4.349  0.00  0.00    -0.048 A 
ATOM      7  C   UNL     1       0.028   1.515   3.412  0.00  0.00    +0.007 A 
ATOM      8  C   UNL     1      -0.468   1.199   2.161  0.00  0.00    +0.048 A 
ATOM      9  C   UNL     1      -1.784   1.491   1.843  0.00  0.00    +0.141 A 
ATOM     10  C   UNL     1      -0.240   2.464   5.711  0.00  0.00    +0.044 C 
BRANCH   9  11
ATOM     11  O   UNL     1      -2.273   1.181   0.613  0.00  0.00    -0.493 OA
ATOM     12  C   UNL     1      -1.374   0.554  -0.304  0.00  0.00    +0.277 C 
ENDBRANCH   9  11
ENDBRANCH   1   4
BRANCH   1  13
ATOM     13  C   UNL     1      -4.969   1.367   2.595  0.00  0.00    +0.167 C 
BRANCH  13  14
ATOM     14  C   UNL     1      -4.941   0.795   3.989  0.00  0.00    +0.234 C 
ATOM     15  O   UNL     1      -4.067   1.126   4.763  0.00  0.00    -0.274 OA
ATOM     16  N   UNL     1      -5.887  -0.083   4.376  0.00  0.00    -0.309 N 
ATOM     17  H   UNL     1      -6.585  -0.348   3.757  0.00  0.00    +0.149 HD
BRANCH  16  18
ATOM     18  C   UNL     1      -5.860  -0.639   5.731  0.00  0.00    +0.026 C 
ATOM     19  C   UNL     1      -5.971   0.496   6.751  0.00  0.00    +0.031 C 
ATOM     20  C   UNL     1      -7.035  -1.603   5.911  0.00  0.00    +0.031 C 
ATOM     21  C   UNL     1      -4.545  -1.392   5.948  0.00  0.00    +0.031 C 
ENDBRANCH  16  18
ENDBRANCH  13  14
BRANCH  13  22
ATOM     22  C   UNL     1      -4.699   0.253   1.582  0.00  0.00    +0.032 C 
BRANCH  22  24
ATOM     23  C   UNL     1      -4.657  -0.326  -0.848  0.00  0.00    +0.004 C 
ATOM     24  C   UNL     1      -4.877   0.800   0.164  0.00  0.00    -0.001 C 
ENDBRANCH  22  24
ENDBRANCH  13  22
ENDBRANCH   1  13
BRANCH   2  25
ATOM     25  C   UNL     1      -3.211   4.701   1.925  0.00  0.00    +0.264 C 
BRANCH  25  26
ATOM     26  N   UNL     1      -3.823   5.947   1.456  0.00  0.00    -0.154 N 
ATOM     27  N   UNL     1      -3.958   6.293   0.222  0.00  0.00    -0.127 NA
ATOM     28  C   UNL     1      -4.553   7.471   0.196  0.00  0.00    +0.239 A 
ATOM     29  N   UNL     1      -4.762   7.823   1.474  0.00  0.00    -0.105 NA
ATOM     30  N   UNL     1      -4.304   6.870   2.213  0.00  0.00    -0.045 NA
BRANCH  28  31
ATOM     31  C   UNL     1      -4.913   8.253  -1.007  0.00  0.00    +0.175 A 
ATOM     32  C   UNL     1      -5.526   9.465  -1.015  0.00  0.00    +0.053 A 
ATOM     33  C   UNL     1      -5.672   9.837  -2.367  0.00  0.00    +0.045 A 
ATOM     34  C   UNL     1      -5.154   8.839  -3.109  0.00  0.00    +0.103 A 
ATOM     35  O   UNL     1      -4.697   7.883  -2.284  0.00  0.00    -0.457 OA
ATOM     36  C   UNL     1      -5.098   8.800  -4.614  0.00  0.00    +0.086 C 
ENDBRANCH  28  31
ENDBRANCH  25  26
ENDBRANCH   2  25
TORSDOF 10
