REMARK  Name = ZINC08816936
REMARK  6 active torsions:
REMARK  status: ('A' for Active; 'I' for Inactive)
REMARK    1  A    between atoms: C_1  and  C_2
REMARK    2  A    between atoms: C_18  and  C_19
REMARK    3  A    between atoms: C_18  and  N_57
REMARK    4  A    between atoms: N_21  and  N_22
REMARK    5  A    between atoms: C_23  and  C_24
REMARK    6  A    between atoms: C_27  and  N_30
REMARK                            x       y       z     vdW  Elec       q    Type
REMARK                         _______ _______ _______ _____ _____    ______ ____
ROOT
ATOM      1  C   UNL     1     -13.167   8.386   1.311  0.00  0.00    +0.044 C 
ATOM      2  C   UNL     1     -12.316   7.244   0.819  0.00  0.00    -0.050 A 
ATOM      3  C   UNL     1     -12.419   6.852  -0.505  0.00  0.00    +0.005 A 
ATOM      4  C   UNL     1     -11.671   5.811  -1.026  0.00  0.00    +0.026 A 
ATOM      5  C   UNL     1     -10.795   5.160  -0.160  0.00  0.00    +0.049 A 
ATOM      6  C   UNL     1     -10.688   5.571   1.202  0.00  0.00    +0.003 A 
ATOM      7  C   UNL     1     -11.462   6.626   1.698  0.00  0.00    +0.013 A 
ATOM      8  C   UNL     1      -9.707   4.708   1.802  0.00  0.00    -0.020 A 
ATOM      9  C   UNL     1      -9.282   3.878   0.829  0.00  0.00    +0.009 A 
ATOM     10  N   UNL     1      -9.938   4.118  -0.346  0.00  0.00    -0.347 N 
ATOM     11  C   UNL     1      -9.678   3.304  -1.543  0.00  0.00    +0.103 C 
ATOM     12  C   UNL     1      -8.373   2.530  -1.323  0.00  0.00    -0.055 C 
ATOM     13  C   UNL     1      -8.224   2.827   1.079  0.00  0.00    -0.020 C 
ATOM     14  C   UNL     1      -8.511   2.177   2.422  0.00  0.00    -0.009 C 
ATOM     15  C   UNL     1      -8.980   3.097   3.523  0.00  0.00    +0.003 C 
ATOM     16  C   UNL     1      -9.118   4.573   3.179  0.00  0.00    +0.037 C 
ATOM     17  N   UNL     1      -8.392   1.838  -0.016  0.00  0.00    +0.392 N 
ATOM     18  H   UNL     1      -9.294   1.363   0.097  0.00  0.00    -0.080 HD
ENDROOT
BRANCH  17  19
ATOM     19  C   UNL     1      -7.309   0.833   0.040  0.00  0.00    +0.021 C 
BRANCH  19  20
ATOM     20  C   UNL     1      -7.621  -0.275  -0.933  0.00  0.00    +0.216 C 
ATOM     21  O   UNL     1      -8.679  -0.280  -1.527  0.00  0.00    -0.276 OA
ATOM     22  N   UNL     1      -6.725  -1.259  -1.144  0.00  0.00    -0.209 N 
ATOM     23  H   UNL     1      -5.879  -1.255  -0.670  0.00  0.00    +0.177 HD
BRANCH  22  24
ATOM     24  N   UNL     1      -7.016  -2.289  -2.049  0.00  0.00    -0.188 NA
ATOM     25  C   UNL     1      -6.153  -3.236  -2.252  0.00  0.00    +0.138 C 
BRANCH  25  26
ATOM     26  C   UNL     1      -6.459  -4.321  -3.204  0.00  0.00    -0.005 A 
ATOM     27  C   UNL     1      -5.533  -5.342  -3.425  0.00  0.00    +0.012 A 
ATOM     28  C   UNL     1      -5.828  -6.356  -4.312  0.00  0.00    +0.033 A 
ATOM     29  C   UNL     1      -7.036  -6.359  -4.987  0.00  0.00    +0.126 A 
ATOM     30  C   UNL     1      -7.956  -5.347  -4.777  0.00  0.00    +0.033 A 
ATOM     31  C   UNL     1      -7.674  -4.327  -3.893  0.00  0.00    +0.012 A 
BRANCH  29  32
ATOM     32  N   UNL     1      -7.346  -7.451  -5.938  0.00  0.00    +0.056 N 
ATOM     33  O   UNL     1      -6.538  -8.344  -6.124  0.00  0.00    -0.126 OA
ATOM     34  O   UNL     1      -8.408  -7.457  -6.533  0.00  0.00    -0.126 OA
ENDBRANCH  29  32
ENDBRANCH  25  26
ENDBRANCH  22  24
ENDBRANCH  19  20
ENDBRANCH  17  19
TORSDOF 5
