REMARK  Name = ZINC35910275
REMARK  5 active torsions:
REMARK  status: ('A' for Active; 'I' for Inactive)
REMARK    1  A    between atoms: C_3  and  C_18
REMARK    2  A    between atoms: C_5  and  N_7
REMARK    3  A    between atoms: N_7  and  S_8
REMARK    4  A    between atoms: S_8  and  C_11
REMARK    5  A    between atoms: N_20  and  C_25
REMARK                            x       y       z     vdW  Elec       q    Type
REMARK                         _______ _______ _______ _____ _____    ______ ____
ROOT
ATOM      1  C   UNL     1      -0.207   0.789  -0.528  0.00  0.00    +0.002 A 
ATOM      2  C   UNL     1       0.947   1.548  -0.459  0.00  0.00    +0.006 A 
ATOM      3  C   UNL     1       2.186   0.936  -0.520  0.00  0.00    -0.015 A 
ATOM      4  C   UNL     1       2.274  -0.436  -0.650  0.00  0.00    +0.030 A 
ATOM      5  C   UNL     1       1.116  -1.201  -0.720  0.00  0.00    +0.048 A 
ATOM      6  C   UNL     1      -0.126  -0.583  -0.659  0.00  0.00    +0.024 A 
ENDROOT
BRANCH   3   7
ATOM      7  C   UNL     1       3.441   1.767  -0.445  0.00  0.00    +0.170 C 
ATOM      8  N   UNL     1       3.203   3.021   0.295  0.00  0.00    -0.254 N 
ATOM      9  C   UNL     1       3.636   4.166  -0.215  0.00  0.00    +0.231 C 
ATOM     10  O   UNL     1       3.464   5.217   0.365  0.00  0.00    -0.274 OA
ATOM     11  C   UNL     1       4.357   4.113  -1.553  0.00  0.00    +0.167 C 
ATOM     12  S   UNL     1       3.909   2.411  -2.109  0.00  0.00    -0.124 S 
BRANCH   8  13
ATOM     13  C   UNL     1       2.527   3.002   1.521  0.00  0.00    +0.038 A 
ATOM     14  C   UNL     1       1.382   3.769   1.696  0.00  0.00    +0.026 A 
ATOM     15  C   UNL     1       0.717   3.749   2.905  0.00  0.00    +0.040 A 
ATOM     16  C   UNL     1       1.190   2.965   3.944  0.00  0.00    +0.124 A 
ATOM     17  C   UNL     1       2.331   2.200   3.772  0.00  0.00    +0.040 A 
ATOM     18  C   UNL     1       2.996   2.212   2.562  0.00  0.00    +0.026 A 
ATOM     19  F   UNL     1       0.538   2.948   5.128  0.00  0.00    -0.205 F 
ENDBRANCH   8  13
ENDBRANCH   3   7
BRANCH   5  20
ATOM     20  N   UNL     1       1.202  -2.589  -0.852  0.00  0.00    -0.216 N 
ATOM     21  H   UNL     1       1.810  -2.978  -1.500  0.00  0.00    +0.174 HD
BRANCH  20  22
ATOM     22  S   UNL     1       0.265  -3.570   0.098  0.00  0.00    +0.072 S 
ATOM     23  O   UNL     1      -1.072  -3.110  -0.037  0.00  0.00    -0.150 OA
ATOM     24  O   UNL     1       0.645  -4.907  -0.199  0.00  0.00    -0.150 OA
BRANCH  22  25
ATOM     25  C   UNL     1       0.732  -3.275   1.772  0.00  0.00    +0.109 A 
ATOM     26  C   UNL     1       1.814  -3.942   2.315  0.00  0.00    +0.030 A 
ATOM     27  C   UNL     1       2.181  -3.711   3.627  0.00  0.00    +0.022 A 
ATOM     28  C   UNL     1       1.465  -2.812   4.397  0.00  0.00    +0.041 A 
ATOM     29  C   UNL     1       0.382  -2.144   3.853  0.00  0.00    +0.022 A 
ATOM     30  C   UNL     1       0.020  -2.372   2.539  0.00  0.00    +0.030 A 
ATOM     31 CL   UNL     1       1.925  -2.521   6.046  0.00  0.00    -0.084 Cl
ENDBRANCH  22  25
ENDBRANCH  20  22
ENDBRANCH   5  20
TORSDOF 5
