REMARK  Name = ZINC14654056
REMARK  10 active torsions:
REMARK  status: ('A' for Active; 'I' for Inactive)
REMARK    1  A    between atoms: C_1  and  C_2
REMARK    2  A    between atoms: C_2  and  C_3
REMARK    3  A    between atoms: C_3  and  O_4
REMARK    4  A    between atoms: O_4  and  C_5
REMARK    5  A    between atoms: C_10  and  C_11
REMARK    6  A    between atoms: N_13  and  C_14
REMARK    7  A    between atoms: C_14  and  N_16
REMARK    8  A    between atoms: N_16  and  N_17
REMARK    9  A    between atoms: C_18  and  C_20
REMARK   10  A    between atoms: C_23  and  C_26
REMARK                            x       y       z     vdW  Elec       q    Type
REMARK                         _______ _______ _______ _____ _____    ______ ____
ROOT
ATOM      1  N   UNL     1       3.512   7.343   0.007  0.00  0.00    -0.245 N 
ATOM      2  H   UNL     1       4.342   7.846   0.002  0.00  0.00    +0.172 HD
ENDROOT
BRANCH   1   3
ATOM      3  N   UNL     1       2.284   8.018   0.023  0.00  0.00    -0.231 N 
ATOM      4  C   UNL     1       2.256   9.365   0.030  0.00  0.00    +0.260 C 
ATOM      5  O   UNL     1       3.296   9.995   0.023  0.00  0.00    -0.269 OA
ATOM      6  H   UNL     1       1.455   7.515   0.028  0.00  0.00    +0.173 HD
BRANCH   4   7
ATOM      7  C   UNL     1       0.962  10.077   0.047  0.00  0.00    +0.038 A 
ATOM      8  C   UNL     1      -0.234   9.354   0.049  0.00  0.00    +0.014 A 
ATOM      9  C   UNL     1      -1.439  10.018   0.070  0.00  0.00    +0.009 A 
ATOM     10  C   UNL     1      -1.468  11.412   0.077  0.00  0.00    -0.018 A 
ATOM     11  C   UNL     1      -0.275  12.136   0.070  0.00  0.00    +0.009 A 
ATOM     12  C   UNL     1       0.932  11.474   0.055  0.00  0.00    +0.014 A 
BRANCH  10  13
ATOM     13  C   UNL     1      -2.767  12.127   0.093  0.00  0.00    -0.018 A 
ATOM     14  C   UNL     1      -2.800  13.520   0.106  0.00  0.00    +0.008 A 
ATOM     15  C   UNL     1      -4.012  14.179   0.116  0.00  0.00    +0.001 A 
ATOM     16  C   UNL     1      -5.194  13.460   0.123  0.00  0.00    +0.000 A 
ATOM     17  C   UNL     1      -5.168  12.077   0.115  0.00  0.00    +0.001 A 
ATOM     18  C   UNL     1      -3.961  11.407   0.101  0.00  0.00    +0.008 A 
ENDBRANCH  10  13
ENDBRANCH   4   7
ENDBRANCH   1   3
BRANCH   1  19
ATOM     19  C   UNL     1       3.540   5.996  -0.001  0.00  0.00    +0.153 C 
ATOM     20  S   UNL     1       5.041   5.171  -0.020  0.00  0.00    -0.017 S 
BRANCH  19  23
ATOM     21  C   UNL     1       2.416   3.950  -0.000  0.00  0.00    +0.253 C 
ATOM     22  O   UNL     1       3.481   3.365  -0.014  0.00  0.00    -0.270 OA
ATOM     23  N   UNL     1       2.388   5.298   0.007  0.00  0.00    -0.263 N 
ATOM     24  H   UNL     1       1.538   5.765   0.018  0.00  0.00    +0.157 HD
BRANCH  21  30
ATOM     25  C   UNL     1       1.180   1.785   0.000  0.00  0.00    +0.133 A 
ATOM     26  C   UNL     1      -0.013   1.076   0.008  0.00  0.00    +0.047 A 
ATOM     27  C   UNL     1      -1.218   1.749   0.017  0.00  0.00    +0.019 A 
ATOM     28  C   UNL     1      -1.247   3.135   0.031  0.00  0.00    +0.019 A 
ATOM     29  C   UNL     1      -0.072   3.855   0.023  0.00  0.00    +0.032 A 
ATOM     30  C   UNL     1       1.155   3.186   0.008  0.00  0.00    +0.080 A 
ATOM     31 BR   UNL     1      -2.907   4.041   0.051  0.00  0.00    -0.050 Br
BRANCH  25  32
ATOM     32  O   UNL     1       2.365   1.124  -0.015  0.00  0.00    -0.491 OA
BRANCH  32  33
ATOM     33  C   UNL     1       2.312  -0.304  -0.023  0.00  0.00    +0.229 C 
BRANCH  33  35
ATOM     34  C   UNL     1       3.677  -2.396  -0.048  0.00  0.00    +0.007 C 
ATOM     35  C   UNL     1       3.734  -0.867  -0.040  0.00  0.00    +0.038 C 
ENDBRANCH  33  35
ENDBRANCH  32  33
ENDBRANCH  25  32
ENDBRANCH  21  30
ENDBRANCH  19  23
ENDBRANCH   1  19
TORSDOF 9
