REMARK  Name = ZINC14987760
REMARK  5 active torsions:
REMARK  status: ('A' for Active; 'I' for Inactive)
REMARK    1  A    between atoms: C_1  and  C_2
REMARK    2  A    between atoms: C_16  and  N_51
REMARK    3  A    between atoms: C_20  and  C_21
REMARK    4  A    between atoms: C_20  and  N_51
REMARK    5  A    between atoms: C_21  and  C_22
REMARK                            x       y       z     vdW  Elec       q    Type
REMARK                         _______ _______ _______ _____ _____    ______ ____
ROOT
ATOM      1  C   UNL     1      -1.996   3.120   5.817  0.00  0.00    +0.066 C 
ATOM      2  C   UNL     1      -2.663   2.389   4.680  0.00  0.00    +0.051 A 
ATOM      3  C   UNL     1      -4.066   2.298   4.607  0.00  0.00    +0.024 A 
ATOM      4  C   UNL     1      -4.900   2.876   5.575  0.00  0.00    +0.050 A 
ATOM      5  C   UNL     1      -6.254   2.758   5.453  0.00  0.00    +0.124 A 
ATOM      6  C   UNL     1      -6.818   2.069   4.379  0.00  0.00    +0.040 A 
ATOM      7  C   UNL     1      -6.036   1.497   3.422  0.00  0.00    +0.031 A 
ATOM      8  C   UNL     1      -4.640   1.599   3.515  0.00  0.00    +0.076 A 
ATOM      9  N   UNL     1      -3.828   1.058   2.598  0.00  0.00    -0.214 NA
ATOM     10  C   UNL     1      -2.520   1.171   2.721  0.00  0.00    +0.219 A 
ATOM     11  N   UNL     1      -1.948   1.821   3.733  0.00  0.00    -0.219 NA
ATOM     12  N   UNL     1      -1.710   0.597   1.758  0.00  0.00    -0.300 N 
ATOM     13  C   UNL     1      -0.725   1.575   1.240  0.00  0.00    +0.108 C 
ATOM     14  C   UNL     1      -0.013   1.086   0.008  0.00  0.00    +0.017 C 
ATOM     15  C   UNL     1      -0.767   1.601  -1.236  0.00  0.00    -0.014 C 
ATOM     16  C   UNL     1      -1.962   0.814  -1.521  0.00  0.00    -0.070 C 
ATOM     17  C   UNL     1      -2.981   0.861  -0.363  0.00  0.00    +0.003 C 
ATOM     18  C   UNL     1      -2.519  -0.078   0.718  0.00  0.00    +0.106 C 
ATOM     19  F   UNL     1      -7.058   3.314   6.385  0.00  0.00    -0.205 F 
ENDROOT
BRANCH  16  20
ATOM     20  N   UNL     1      -2.597   1.346  -2.741  0.00  0.00    +0.381 N 
ATOM     21  H   UNL     1      -1.868   1.670  -3.388  0.00  0.00    -0.086 HD
ATOM     22  H   UNL     1      -3.206   2.133  -2.490  0.00  0.00    -0.086 HD
BRANCH  20  23
ATOM     23  C   UNL     1      -3.401   0.298  -3.398  0.00  0.00    -0.077 C 
BRANCH  23  24
ATOM     24  C   UNL     1      -4.046   0.878  -4.659  0.00  0.00    +0.023 C 
BRANCH  24  25
ATOM     25  C   UNL     1      -4.870  -0.186  -5.337  0.00  0.00    -0.012 A 
ATOM     26  C   UNL     1      -6.176  -0.498  -5.157  0.00  0.00    +0.011 A 
ATOM     27  C   UNL     1      -6.729  -1.525  -5.899  0.00  0.00    +0.008 A 
ATOM     28  C   UNL     1      -5.947  -2.190  -6.784  0.00  0.00    +0.045 A 
ATOM     29  S   UNL     1      -4.379  -1.358  -6.591  0.00  0.00    -0.102 S 
ENDBRANCH  24  25
ENDBRANCH  23  24
ENDBRANCH  20  23
ENDBRANCH  16  20
TORSDOF 4
