REMARK  Name = ZINC21584237
REMARK  10 active torsions:
REMARK  status: ('A' for Active; 'I' for Inactive)
REMARK    1  A    between atoms: C_3  and  C_6
REMARK    2  A    between atoms: C_6  and  N_7
REMARK    3  A    between atoms: N_7  and  C_8
REMARK    4  A    between atoms: N_7  and  C_15
REMARK    5  A    between atoms: C_8  and  C_9
REMARK    6  A    between atoms: C_15  and  C_16
REMARK    7  A    between atoms: N_18  and  C_19
REMARK    8  A    between atoms: C_19  and  C_20
REMARK    9  A    between atoms: C_23  and  S_26
REMARK   10  A    between atoms: S_26  and  N_29
REMARK                            x       y       z     vdW  Elec       q    Type
REMARK                         _______ _______ _______ _____ _____    ______ ____
ROOT
ATOM      1  C   UNL     1      -0.203  -1.755   1.675  0.00  0.00    +0.197 C 
ATOM      2  O   UNL     1       0.006  -2.479   0.725  0.00  0.00    -0.278 OA
ATOM      3  N   UNL     1      -0.424  -0.439   1.484  0.00  0.00    -0.313 N 
ATOM      4  H   UNL     1      -0.614   0.217   2.346  0.00  0.00    +0.149 HD
ENDROOT
BRANCH   1   5
ATOM      5  C   UNL     1      -0.216  -2.326   3.070  0.00  0.00    +0.019 C 
BRANCH   5   6
ATOM      6  N   UNL     1       0.049  -3.770   3.009  0.00  0.00    +0.390 N 
ATOM      7  H   UNL     1      -0.652  -4.213   2.286  0.00  0.00    -0.081 HD
BRANCH   6   8
ATOM      8  C   UNL     1      -0.189  -4.404   4.313  0.00  0.00    -0.035 C 
BRANCH   8  11
ATOM      9  C   UNL     1       0.887  -8.051   4.085  0.00  0.00    +0.008 A 
ATOM     10  C   UNL     1       1.025  -6.685   4.243  0.00  0.00    +0.009 A 
ATOM     11  C   UNL     1      -0.078  -5.900   4.172  0.00  0.00    -0.027 A 
ATOM     12  S   UNL     1      -1.364  -7.098   3.861  0.00  0.00    -0.103 S 
ATOM     13  C   UNL     1      -0.346  -8.565   3.853  0.00  0.00    +0.045 A 
ENDBRANCH   8  11
ENDBRANCH   6   8
BRANCH   6  14
ATOM     14  C   UNL     1       1.414  -4.035   2.536  0.00  0.00    -0.046 C 
BRANCH  14  15
ATOM     15  C   UNL     1       2.412  -3.261   3.398  0.00  0.00    +0.102 C 
ATOM     16  C   UNL     1       3.840  -3.401   2.825  0.00  0.00    +0.032 C 
ATOM     17  C   UNL     1       4.741  -3.487   4.077  0.00  0.00    +0.030 C 
ATOM     18  C   UNL     1       3.751  -3.390   5.259  0.00  0.00    +0.160 C 
ATOM     19  O   UNL     1       2.488  -3.837   4.721  0.00  0.00    -0.378 OA
ENDBRANCH  14  15
ENDBRANCH   6  14
ENDBRANCH   5   6
ENDBRANCH   1   5
BRANCH   3  20
ATOM     20  C   UNL     1      -0.411   0.117   0.129  0.00  0.00    +0.139 C 
BRANCH  20  21
ATOM     21  C   UNL     1      -0.683   1.598   0.191  0.00  0.00    -0.030 A 
ATOM     22  C   UNL     1      -1.982   2.066   0.115  0.00  0.00    +0.007 A 
ATOM     23  C   UNL     1      -2.232   3.424   0.176  0.00  0.00    +0.029 A 
ATOM     24  C   UNL     1      -1.182   4.315   0.303  0.00  0.00    +0.105 A 
ATOM     25  C   UNL     1       0.117   3.847   0.373  0.00  0.00    +0.029 A 
ATOM     26  C   UNL     1       0.366   2.488   0.317  0.00  0.00    +0.007 A 
BRANCH  24  27
ATOM     27  S   UNL     1      -1.500   6.046   0.377  0.00  0.00    +0.061 S 
ATOM     28  O   UNL     1      -2.836   6.194   0.839  0.00  0.00    -0.153 OA
ATOM     29  O   UNL     1      -0.393   6.635   1.045  0.00  0.00    -0.153 OA
BRANCH  27  30
ATOM     30  N   UNL     1      -1.472   6.615  -1.178  0.00  0.00    -0.172 NA
ATOM     31  C   UNL     1      -0.223   7.104  -1.783  0.00  0.00    +0.137 C 
ATOM     32  C   UNL     1      -0.046   6.411  -3.143  0.00  0.00    +0.177 C 
ATOM     33  O   UNL     1      -1.236   6.585  -3.917  0.00  0.00    -0.377 OA
ATOM     34  C   UNL     1      -2.400   5.987  -3.342  0.00  0.00    +0.177 C 
ATOM     35  C   UNL     1      -2.696   6.653  -1.993  0.00  0.00    +0.137 C 
ENDBRANCH  27  30
ENDBRANCH  24  27
ENDBRANCH  20  21
ENDBRANCH   3  20
TORSDOF 10
