REMARK  Name = ZINC36628547
REMARK  9 active torsions:
REMARK  status: ('A' for Active; 'I' for Inactive)
REMARK    1  A    between atoms: C_1  and  C_2
REMARK    2  A    between atoms: C_2  and  O_3
REMARK    3  A    between atoms: O_3  and  C_4
REMARK    4  A    between atoms: C_4  and  C_6
REMARK    5  A    between atoms: C_10  and  N_11
REMARK    6  A    between atoms: C_12  and  C_14
REMARK    7  A    between atoms: N_25  and  C_28
REMARK    8  A    between atoms: C_28  and  C_29
REMARK    9  A    between atoms: C_28  and  C_30
REMARK                            x       y       z     vdW  Elec       q    Type
REMARK                         _______ _______ _______ _____ _____    ______ ____
ROOT
ATOM      1  C   UNL     1      -2.908  -2.348   0.044  0.00  0.00    +0.091 A 
ATOM      2  C   UNL     1      -3.595  -2.662  -1.193  0.00  0.00    -0.025 A 
ATOM      3  C   UNL     1      -4.825  -3.199  -1.025  0.00  0.00    -0.021 A 
ATOM      4  S   UNL     1      -5.042  -3.279   0.726  0.00  0.00    -0.079 S 
ATOM      5  C   UNL     1      -3.574  -2.635   1.228  0.00  0.00    +0.086 A 
ATOM      6  C   UNL     1      -5.762  -3.616  -2.115  0.00  0.00    -0.035 C 
ATOM      7  N   UNL     1      -5.305  -3.007  -3.377  0.00  0.00    +0.384 N 
ATOM      8  C   UNL     1      -3.875  -3.279  -3.568  0.00  0.00    -0.073 C 
ATOM      9  C   UNL     1      -3.042  -2.438  -2.594  0.00  0.00    +0.018 C 
ATOM     10  H   UNL     1      -5.456  -2.010  -3.342  0.00  0.00    -0.081 HD
ENDROOT
BRANCH   5  11
ATOM     11  N   UNL     1      -3.131  -2.434   2.525  0.00  0.00    -0.279 N 
ATOM     12  C   UNL     1      -3.916  -2.774   3.566  0.00  0.00    +0.224 C 
ATOM     13  O   UNL     1      -5.011  -3.256   3.367  0.00  0.00    -0.275 OA
ATOM     14  H   UNL     1      -2.255  -2.048   2.684  0.00  0.00    +0.155 HD
BRANCH  12  15
ATOM     15  C   UNL     1      -3.434  -2.556   4.977  0.00  0.00    +0.048 C 
ATOM     16  C   UNL     1      -3.155  -1.067   5.196  0.00  0.00    +0.019 C 
ATOM     17  C   UNL     1      -2.666  -0.845   6.628  0.00  0.00    -0.009 C 
ATOM     18  C   UNL     1      -3.740  -1.313   7.613  0.00  0.00    +0.007 C 
ATOM     19  C   UNL     1      -4.019  -2.801   7.394  0.00  0.00    -0.009 C 
ATOM     20  C   UNL     1      -4.508  -3.023   5.961  0.00  0.00    +0.019 C 
ATOM     21  C   UNL     1      -2.734  -3.600   7.623  0.00  0.00    +0.007 C 
ATOM     22  C   UNL     1      -1.660  -3.133   6.639  0.00  0.00    -0.009 C 
ATOM     23  C   UNL     1      -1.381  -1.644   6.858  0.00  0.00    +0.007 C 
ATOM     24  C   UNL     1      -2.150  -3.355   5.207  0.00  0.00    +0.019 C 
ENDBRANCH  12  15
ENDBRANCH   5  11
BRANCH   7  25
ATOM     25  C   UNL     1      -6.065  -3.576  -4.498  0.00  0.00    -0.074 C 
ATOM     26  C   UNL     1      -7.563  -3.411  -4.235  0.00  0.00    -0.014 C 
ATOM     27  C   UNL     1      -5.691  -2.848  -5.790  0.00  0.00    -0.014 C 
ENDBRANCH   7  25
BRANCH   1  28
ATOM     28  C   UNL     1      -1.567  -1.758   0.045  0.00  0.00    +0.342 C 
ATOM     29  O   UNL     1      -0.587  -2.478   0.051  0.00  0.00    -0.245 OA
BRANCH  28  30
ATOM     30  O   UNL     1      -1.420  -0.418   0.040  0.00  0.00    -0.461 OA
BRANCH  30  32
ATOM     31  C   UNL     1      -0.117   1.618   0.036  0.00  0.00    +0.048 C 
ATOM     32  C   UNL     1      -0.083   0.088   0.042  0.00  0.00    +0.229 C 
ENDBRANCH  30  32
ENDBRANCH  28  30
ENDBRANCH   1  28
TORSDOF 6
