REMARK  Name = ZINC34829745
REMARK  12 active torsions:
REMARK  status: ('A' for Active; 'I' for Inactive)
REMARK    1  A    between atoms: C_1  and  C_2
REMARK    2  A    between atoms: C_2  and  C_3
REMARK    3  A    between atoms: C_3  and  C_4
REMARK    4  A    between atoms: C_4  and  C_5
REMARK    5  A    between atoms: C_5  and  C_7
REMARK    6  A    between atoms: C_5  and  C_9
REMARK    7  A    between atoms: C_7  and  C_8
REMARK    8  A    between atoms: C_16  and  C_18
REMARK    9  A    between atoms: C_19  and  C_21
REMARK   10  A    between atoms: C_21  and  N_22
REMARK   11  A    between atoms: C_30  and  C_32
REMARK   12  A    between atoms: C_35  and  C_38
REMARK                            x       y       z     vdW  Elec       q    Type
REMARK                         _______ _______ _______ _____ _____    ______ ____
ROOT
ATOM      1  C   UNL     1       1.669  -4.082   2.225  0.00  0.00    +0.219 C 
ATOM      2  O   UNL     1       0.988  -4.604   1.368  0.00  0.00    -0.275 OA
ATOM      3  N   UNL     1       2.486  -4.835   2.988  0.00  0.00    -0.295 N 
ATOM      4  C   UNL     1       3.261  -4.228   4.079  0.00  0.00    +0.127 C 
ATOM      5  C   UNL     1       4.744  -4.557   3.868  0.00  0.00    +0.126 C 
ATOM      6  N   UNL     1       4.875  -6.000   3.624  0.00  0.00    -0.300 N 
ATOM      7  C   UNL     1       4.100  -6.607   2.533  0.00  0.00    +0.130 C 
ATOM      8  C   UNL     1       2.613  -6.279   2.747  0.00  0.00    +0.090 C 
ATOM      9  C   UNL     1       2.083  -7.050   3.958  0.00  0.00    +0.029 C 
ATOM     10  C   UNL     1       5.692  -6.753   4.386  0.00  0.00    +0.199 C 
ATOM     11  O   UNL     1       5.792  -7.944   4.176  0.00  0.00    -0.278 OA
ENDROOT
BRANCH   1  12
ATOM     12  C   UNL     1       1.602  -2.591   2.438  0.00  0.00    +0.075 C 
BRANCH  12  13
ATOM     13  C   UNL     1       2.942  -1.961   2.055  0.00  0.00    +0.009 C 
ATOM     14  C   UNL     1       3.259  -2.283   0.593  0.00  0.00    +0.004 C 
ENDBRANCH  12  13
BRANCH  12  15
ATOM     15  C   UNL     1       0.493  -2.001   1.564  0.00  0.00    +0.013 C 
BRANCH  15  16
ATOM     16  C   UNL     1       0.352  -0.507   1.859  0.00  0.00    +0.000 C 
BRANCH  16  18
ATOM     17  C   UNL     1      -0.839   1.595   1.223  0.00  0.00    +0.004 C 
ATOM     18  C   UNL     1      -0.698   0.101   0.927  0.00  0.00    -0.003 C 
ENDBRANCH  16  18
ENDBRANCH  15  16
ENDBRANCH  12  15
ENDBRANCH   1  12
BRANCH  10  19
ATOM     19  C   UNL     1       6.481  -6.117   5.502  0.00  0.00    +0.020 C 
BRANCH  19  20
ATOM     20  N   UNL     1       7.288  -7.142   6.177  0.00  0.00    +0.393 N 
ATOM     21  C   UNL     1       8.268  -7.688   5.229  0.00  0.00    -0.072 C 
ATOM     22  C   UNL     1       8.877  -8.969   5.825  0.00  0.00    +0.024 C 
ATOM     23  C   UNL     1       9.257  -8.671   7.238  0.00  0.00    -0.010 A 
ATOM     24  C   UNL     1       8.875  -7.585   7.968  0.00  0.00    -0.047 A 
ATOM     25  C   UNL     1       9.358  -7.511   9.272  0.00  0.00    +0.010 A 
ATOM     26  C   UNL     1      10.160  -8.489   9.753  0.00  0.00    +0.045 A 
ATOM     27  S   UNL     1      10.277  -9.593   8.353  0.00  0.00    -0.101 S 
ATOM     28  C   UNL     1       7.961  -6.540   7.335  0.00  0.00    -0.005 C 
ATOM     29  H   UNL     1       6.684  -7.885   6.494  0.00  0.00    -0.080 HD
BRANCH  28  30
ATOM     30  C   UNL     1       6.933  -6.093   8.341  0.00  0.00    -0.057 A 
ATOM     31  C   UNL     1       5.826  -6.881   8.596  0.00  0.00    +0.002 A 
ATOM     32  C   UNL     1       4.883  -6.471   9.519  0.00  0.00    +0.003 A 
ATOM     33  C   UNL     1       5.046  -5.271  10.187  0.00  0.00    -0.050 A 
ATOM     34  C   UNL     1       6.152  -4.483   9.932  0.00  0.00    +0.003 A 
ATOM     35  C   UNL     1       7.098  -4.896   9.013  0.00  0.00    +0.002 A 
ATOM     36  C   UNL     1       4.016  -4.823  11.193  0.00  0.00    +0.044 C 
ENDBRANCH  28  30
ENDBRANCH  19  20
ENDBRANCH  10  19
TORSDOF 8
