REMARK  Name = ZINC64976679
REMARK  5 active torsions:
REMARK  status: ('A' for Active; 'I' for Inactive)
REMARK    1  A    between atoms: C_3  and  O_21
REMARK    2  A    between atoms: C_4  and  N_8
REMARK    3  A    between atoms: C_9  and  C_11
REMARK    4  A    between atoms: O_21  and  C_22
REMARK    5  A    between atoms: C_22  and  C_23
REMARK                            x       y       z     vdW  Elec       q    Type
REMARK                         _______ _______ _______ _____ _____    ______ ____
ROOT
ATOM      1  C   UNL     1      -0.015   1.381   0.043  0.00  0.00    +0.024 A 
ATOM      2  C   UNL     1       1.082   1.956  -0.572  0.00  0.00    +0.049 A 
ATOM      3  C   UNL     1       2.292   1.283  -0.601  0.00  0.00    +0.142 A 
ATOM      4  C   UNL     1       2.401   0.026  -0.010  0.00  0.00    +0.077 A 
ATOM      5  C   UNL     1       1.297  -0.545   0.605  0.00  0.00    +0.047 A 
ATOM      6  C   UNL     1       0.092   0.133   0.630  0.00  0.00    +0.043 A 
ATOM      7 CL   UNL     1      -1.289  -0.583   1.401  0.00  0.00    -0.083 Cl
ENDROOT
BRANCH   4   8
ATOM      8  N   UNL     1       3.623  -0.659  -0.037  0.00  0.00    -0.282 N 
ATOM      9  C   UNL     1       3.644  -2.004   0.057  0.00  0.00    +0.223 C 
ATOM     10  O   UNL     1       2.603  -2.627   0.064  0.00  0.00    -0.275 OA
ATOM     11  H   UNL     1       4.454  -0.166  -0.124  0.00  0.00    +0.155 HD
BRANCH   9  12
ATOM     12  C   UNL     1       4.960  -2.732   0.153  0.00  0.00    +0.048 C 
ATOM     13  C   UNL     1       5.713  -2.262   1.399  0.00  0.00    +0.019 C 
ATOM     14  C   UNL     1       7.049  -3.002   1.497  0.00  0.00    -0.009 C 
ATOM     15  C   UNL     1       6.793  -4.507   1.593  0.00  0.00    +0.007 C 
ATOM     16  C   UNL     1       6.039  -4.977   0.346  0.00  0.00    -0.009 C 
ATOM     17  C   UNL     1       4.704  -4.237   0.249  0.00  0.00    +0.019 C 
ATOM     18  C   UNL     1       6.878  -4.681  -0.898  0.00  0.00    +0.007 C 
ATOM     19  C   UNL     1       7.135  -3.175  -0.994  0.00  0.00    -0.009 C 
ATOM     20  C   UNL     1       7.888  -2.705   0.252  0.00  0.00    +0.007 C 
ATOM     21  C   UNL     1       5.799  -2.436  -1.092  0.00  0.00    +0.019 C 
ENDBRANCH   9  12
ENDBRANCH   4   8
BRANCH   3  22
ATOM     22  O   UNL     1       3.371   1.847  -1.206  0.00  0.00    -0.484 OA
BRANCH  22  23
ATOM     23  C   UNL     1       3.186   3.138  -1.792  0.00  0.00    +0.284 C 
BRANCH  23  24
ATOM     24  C   UNL     1       4.480   3.599  -2.410  0.00  0.00    +0.086 A 
ATOM     25  C   UNL     1       4.580   3.784  -3.773  0.00  0.00    +0.097 A 
ATOM     26  C   UNL     1       5.786   4.212  -4.327  0.00  0.00    +0.259 A 
ATOM     27  O   UNL     1       5.880   4.378  -5.533  0.00  0.00    -0.267 OA
ATOM     28  N   UNL     1       6.862   4.447  -3.519  0.00  0.00    -0.262 N 
ATOM     29  C   UNL     1       8.109   4.870  -3.912  0.00  0.00    +0.104 A 
ATOM     30  C   UNL     1       9.083   5.064  -3.023  0.00  0.00    +0.067 A 
ATOM     31  S   UNL     1       8.267   4.644  -1.491  0.00  0.00    -0.058 S 
ATOM     32  C   UNL     1       6.676   4.239  -2.178  0.00  0.00    +0.180 A 
ATOM     33  N   UNL     1       5.545   3.842  -1.650  0.00  0.00    -0.224 NA
ENDBRANCH  23  24
ENDBRANCH  22  23
ENDBRANCH   3  22
TORSDOF 5
