REMARK  Name = ZINC20575532
REMARK  10 active torsions:
REMARK  status: ('A' for Active; 'I' for Inactive)
REMARK    1  A    between atoms: C_1  and  C_2
REMARK    2  A    between atoms: C_7  and  N_12
REMARK    3  A    between atoms: C_9  and  C_11
REMARK    4  A    between atoms: N_12  and  C_13
REMARK    5  A    between atoms: N_12  and  C_33
REMARK    6  A    between atoms: C_13  and  C_14
REMARK    7  A    between atoms: C_14  and  C_15
REMARK    8  A    between atoms: C_15  and  N_16
REMARK    9  A    between atoms: C_17  and  C_19
REMARK   10  A    between atoms: C_33  and  C_34
REMARK                            x       y       z     vdW  Elec       q    Type
REMARK                         _______ _______ _______ _____ _____    ______ ____
ROOT
ATOM      1  C   UNL     1       0.952   3.752  -0.289  0.00  0.00    +0.103 C 
ENDROOT
BRANCH   1   2
ATOM      2  N   UNL     1       0.794   2.312  -0.072  0.00  0.00    -0.310 N 
ATOM      3  C   UNL     1      -0.419   1.739  -0.206  0.00  0.00    +0.260 C 
ATOM      4  O   UNL     1      -1.381   2.417  -0.511  0.00  0.00    -0.269 OA
ATOM      5  H   UNL     1       1.665   1.697   0.200  0.00  0.00    +0.149 HD
BRANCH   3   6
ATOM      6  C   UNL     1      -0.578   0.294   0.012  0.00  0.00    +0.103 A 
ATOM      7  C   UNL     1      -1.744  -0.399  -0.093  0.00  0.00    +0.041 A 
ATOM      8  C   UNL     1      -1.464  -1.755   0.192  0.00  0.00    +0.003 A 
ATOM      9  C   UNL     1      -2.273  -2.913   0.235  0.00  0.00    +0.011 A 
ATOM     10  C   UNL     1      -1.739  -4.117   0.543  0.00  0.00    +0.011 A 
ATOM     11  C   UNL     1      -0.363  -4.237   0.826  0.00  0.00    +0.002 A 
ATOM     12  C   UNL     1       0.203  -5.483   1.147  0.00  0.00    +0.011 A 
ATOM     13  C   UNL     1       1.544  -5.536   1.412  0.00  0.00    +0.020 A 
ATOM     14  C   UNL     1       2.307  -4.374   1.360  0.00  0.00    +0.111 A 
ATOM     15  N   UNL     1       1.774  -3.214   1.059  0.00  0.00    -0.253 NA
ATOM     16  C   UNL     1       0.472  -3.096   0.790  0.00  0.00    +0.095 A 
ATOM     17  C   UNL     1      -0.094  -1.840   0.469  0.00  0.00    +0.073 A 
ATOM     18  N   UNL     1       0.433  -0.582   0.349  0.00  0.00    -0.349 N 
ATOM     19  H   UNL     1       1.461  -0.212   0.475  0.00  0.00    +0.166 HD
ENDBRANCH   3   6
ENDBRANCH   1   2
BRANCH   1  20
ATOM     20  C   UNL     1       2.416   4.142  -0.076  0.00  0.00    +0.000 C 
BRANCH  20  21
ATOM     21  C   UNL     1       2.581   5.646  -0.302  0.00  0.00    -0.076 C 
BRANCH  21  22
ATOM     22  N   UNL     1       3.978   6.028  -0.054  0.00  0.00    +0.386 N 
ATOM     23  H   UNL     1       4.384   5.348   0.708  0.00  0.00    -0.081 HD
BRANCH  22  29
ATOM     24  C   UNL     1       5.237   8.168  -4.333  0.00  0.00    +0.008 C 
ATOM     25  C   UNL     1       5.434   6.946  -3.435  0.00  0.00    -0.013 C 
ATOM     26  C   UNL     1       4.999   5.686  -4.186  0.00  0.00    +0.003 C 
ATOM     27  C   UNL     1       5.197   4.463  -3.288  0.00  0.00    -0.001 C 
ATOM     28  C   UNL     1       4.353   4.619  -2.022  0.00  0.00    -0.015 C 
ATOM     29  C   UNL     1       4.788   5.878  -1.271  0.00  0.00    -0.065 C 
ATOM     30  C   UNL     1       4.591   7.101  -2.169  0.00  0.00    -0.025 C 
ATOM     31  C   UNL     1       3.114   7.220  -2.551  0.00  0.00    +0.006 C 
ENDBRANCH  22  29
BRANCH  22  32
ATOM     32  C   UNL     1       4.064   7.398   0.470  0.00  0.00    -0.003 C 
BRANCH  32  33
ATOM     33  C   UNL     1       5.441   7.633   1.035  0.00  0.00    +0.089 A 
ATOM     34  C   UNL     1       6.470   8.207   0.386  0.00  0.00    +0.042 A 
ATOM     35  C   UNL     1       7.561   8.229   1.285  0.00  0.00    +0.041 A 
ATOM     36  C   UNL     1       7.135   7.660   2.427  0.00  0.00    +0.195 A 
ATOM     37  O   UNL     1       5.851   7.301   2.270  0.00  0.00    -0.470 OA
ENDBRANCH  32  33
ENDBRANCH  22  32
ENDBRANCH  21  22
ENDBRANCH  20  21
ENDBRANCH   1  20
TORSDOF 8
