REMARK  Name = ZINC47138559
REMARK  7 active torsions:
REMARK  status: ('A' for Active; 'I' for Inactive)
REMARK    1  A    between atoms: C_4  and  C_7
REMARK    2  A    between atoms: C_10  and  C_13
REMARK    3  A    between atoms: N_14  and  N_15
REMARK    4  A    between atoms: N_17  and  C_30
REMARK    5  A    between atoms: C_21  and  C_22
REMARK    6  A    between atoms: C_27  and  O_28
REMARK    7  A    between atoms: C_30  and  C_31
REMARK                            x       y       z     vdW  Elec       q    Type
REMARK                         _______ _______ _______ _____ _____    ______ ____
ROOT
ATOM      1  N   UNL     1       6.200  -4.785   1.306  0.00  0.00    -0.126 NA
ATOM      2  C   UNL     1       6.249  -6.088   1.103  0.00  0.00    +0.190 C 
ATOM      3  N   UNL     1       7.339  -6.926   1.186  0.00  0.00    -0.237 N 
ATOM      4  C   UNL     1       7.212  -8.221   0.950  0.00  0.00    +0.259 C 
ATOM      5  O   UNL     1       8.165  -8.976   1.018  0.00  0.00    -0.269 OA
ATOM      6  C   UNL     1       5.865  -8.709   0.600  0.00  0.00    +0.078 C 
ATOM      7  C   UNL     1       5.453  -9.971   0.312  0.00  0.00    +0.032 C 
ATOM      8  S   UNL     1       4.919  -7.195   0.664  0.00  0.00    -0.047 S 
ENDROOT
BRANCH   7   9
ATOM      9  C   UNL     1       4.022 -10.260   0.161  0.00  0.00    +0.018 A 
ATOM     10  C   UNL     1       3.067  -9.366   0.658  0.00  0.00    +0.011 A 
ATOM     11  C   UNL     1       1.725  -9.643   0.511  0.00  0.00    +0.001 A 
ATOM     12  C   UNL     1       1.317 -10.803  -0.126  0.00  0.00    +0.004 A 
ATOM     13  C   UNL     1       2.248 -11.695  -0.622  0.00  0.00    +0.046 A 
ATOM     14  C   UNL     1       3.602 -11.431  -0.490  0.00  0.00    +0.124 A 
BRANCH  14  15
ATOM     15  O   UNL     1       4.518 -12.304  -0.982  0.00  0.00    -0.506 OA
ATOM     16  H   UNL     1       4.788 -12.987  -0.353  0.00  0.00    +0.292 HD
ENDBRANCH  14  15
ENDBRANCH   7   9
BRANCH   1  18
ATOM     17  C   UNL     1       7.223  -2.849   1.821  0.00  0.00    +0.143 C 
ATOM     18  N   UNL     1       7.272  -4.140   1.621  0.00  0.00    -0.155 NA
BRANCH  17  22
ATOM     19  C   UNL     1       3.516  -0.808   1.587  0.00  0.00    -0.018 A 
ATOM     20  C   UNL     1       3.591  -2.158   1.240  0.00  0.00    +0.009 A 
ATOM     21  C   UNL     1       4.789  -2.820   1.315  0.00  0.00    +0.010 A 
ATOM     22  C   UNL     1       5.937  -2.142   1.740  0.00  0.00    -0.005 A 
ATOM     23  C   UNL     1       5.859  -0.787   2.087  0.00  0.00    +0.010 A 
ATOM     24  C   UNL     1       4.660  -0.128   2.006  0.00  0.00    +0.009 A 
BRANCH  19  28
ATOM     25  C   UNL     1      -0.203   1.239   1.352  0.00  0.00    +0.000 A 
ATOM     26  C   UNL     1      -0.131  -0.100   1.012  0.00  0.00    +0.001 A 
ATOM     27  C   UNL     1       1.073  -0.770   1.087  0.00  0.00    +0.008 A 
ATOM     28  C   UNL     1       2.219  -0.094   1.505  0.00  0.00    -0.018 A 
ATOM     29  C   UNL     1       2.141   1.256   1.845  0.00  0.00    +0.008 A 
ATOM     30  C   UNL     1       0.931   1.915   1.768  0.00  0.00    +0.001 A 
ENDBRANCH  19  28
ENDBRANCH  17  22
ENDBRANCH   1  18
BRANCH   3  31
ATOM     31  C   UNL     1       8.651  -6.378   1.538  0.00  0.00    +0.190 C 
BRANCH  31  32
ATOM     32  C   UNL     1       8.825  -6.414   3.035  0.00  0.00    +0.123 A 
ATOM     33  C   UNL     1       9.357  -7.428   3.741  0.00  0.00    +0.046 A 
ATOM     34  C   UNL     1       9.325  -7.041   5.100  0.00  0.00    +0.041 A 
ATOM     35  C   UNL     1       8.776  -5.814   5.144  0.00  0.00    +0.195 A 
ATOM     36  O   UNL     1       8.479  -5.437   3.889  0.00  0.00    -0.466 OA
ENDBRANCH  31  32
ENDBRANCH   3  31
TORSDOF 7
