REMARK  Name = ZINC13351244
REMARK  15 active torsions:
REMARK  status: ('A' for Active; 'I' for Inactive)
REMARK    1  A    between atoms: C_1  and  C_2
REMARK    2  A    between atoms: C_2  and  O_3
REMARK    3  A    between atoms: O_3  and  C_4
REMARK    4  A    between atoms: C_6  and  C_19
REMARK    5  A    between atoms: C_9  and  O_10
REMARK    6  A    between atoms: O_10  and  C_11
REMARK    7  A    between atoms: C_11  and  C_13
REMARK    8  A    between atoms: C_11  and  C_14
REMARK    9  A    between atoms: N_16  and  C_17
REMARK   10  A    between atoms: N_16  and  C_18
REMARK   11  A    between atoms: C_20  and  C_21
REMARK   12  A    between atoms: C_21  and  C_23
REMARK   13  A    between atoms: C_26  and  O_29
REMARK   14  A    between atoms: O_29  and  C_30
REMARK   15  A    between atoms: C_30  and  C_31
REMARK                            x       y       z     vdW  Elec       q    Type
REMARK                         _______ _______ _______ _____ _____    ______ ____
ROOT
ATOM      1  C   UNL     1       1.158   3.163  -0.213  0.00  0.00    +0.162 A 
ATOM      2  C   UNL     1      -0.035   3.827  -0.417  0.00  0.00    +0.057 A 
ATOM      3  C   UNL     1      -1.212   3.097  -0.625  0.00  0.00    -0.021 A 
ATOM      4  C   UNL     1      -1.170   1.698  -0.631  0.00  0.00    +0.012 A 
ATOM      5  C   UNL     1       0.023   1.044  -0.422  0.00  0.00    +0.050 A 
ATOM      6  C   UNL     1       1.190   1.769  -0.215  0.00  0.00    +0.163 A 
ENDROOT
BRANCH   3   7
ATOM      7  C   UNL     1      -2.484   3.798  -0.842  0.00  0.00    +0.012 C 
ATOM      8  C   UNL     1      -3.619   3.091  -1.043  0.00  0.00    +0.052 C 
BRANCH   8   9
ATOM      9  C   UNL     1      -4.848   3.767  -1.253  0.00  0.00    +0.186 C 
ATOM     10  O   UNL     1      -4.881   4.985  -1.252  0.00  0.00    -0.287 OA
BRANCH   9  11
ATOM     11  C   UNL     1      -6.088   2.995  -1.472  0.00  0.00    +0.022 A 
ATOM     12  C   UNL     1      -6.051   1.598  -1.479  0.00  0.00    +0.015 A 
ATOM     13  C   UNL     1      -7.210   0.882  -1.680  0.00  0.00    +0.046 A 
ATOM     14  C   UNL     1      -8.414   1.547  -1.885  0.00  0.00    +0.121 A 
ATOM     15  C   UNL     1      -8.454   2.936  -1.884  0.00  0.00    +0.046 A 
ATOM     16  C   UNL     1      -7.300   3.660  -1.679  0.00  0.00    +0.015 A 
BRANCH  14  17
ATOM     17  O   UNL     1      -9.553   0.837  -2.087  0.00  0.00    -0.481 OA
BRANCH  17  18
ATOM     18  C   UNL     1      -9.441  -0.587  -2.076  0.00  0.00    +0.353 C 
BRANCH  18  19
ATOM     19  C   UNL     1     -10.797  -1.200  -2.315  0.00  0.00    +0.393 C 
ATOM     20  O   UNL     1     -11.760  -0.489  -2.478  0.00  0.00    -0.243 OA
ATOM     21  O   UNL     1     -10.934  -2.535  -2.346  0.00  0.00    -0.243 OA
ENDBRANCH  18  19
ENDBRANCH  17  18
ENDBRANCH  14  17
ENDBRANCH   9  11
ENDBRANCH   8   9
ENDBRANCH   3   7
BRANCH   1  22
ATOM     22  O   UNL     1       2.303   3.869  -0.011  0.00  0.00    -0.489 OA
BRANCH  22  24
ATOM     23  C   UNL     1       3.577   5.909   0.221  0.00  0.00    +0.048 C 
ATOM     24  C   UNL     1       2.197   5.293  -0.022  0.00  0.00    +0.226 C 
ENDBRANCH  22  24
ENDBRANCH   1  22
BRANCH   6  25
ATOM     25  O   UNL     1       2.365   1.118  -0.014  0.00  0.00    -0.476 OA
BRANCH  25  26
ATOM     26  C   UNL     1       2.308  -0.306   0.090  0.00  0.00    +0.256 C 
ATOM     27  C   UNL     1       2.338  -0.922  -1.310  0.00  0.00    +0.062 C 
BRANCH  26  28
ATOM     28  C   UNL     1       3.492  -0.799   0.882  0.00  0.00    +0.256 C 
ATOM     29  O   UNL     1       4.304  -0.009   1.314  0.00  0.00    -0.272 OA
ATOM     30  N   UNL     1       3.648  -2.119   1.109  0.00  0.00    -0.305 N 
ATOM     31  C   UNL     1       4.799  -2.598   1.878  0.00  0.00    +0.131 C 
ATOM     32  C   UNL     1       2.667  -3.073   0.587  0.00  0.00    +0.131 C 
ENDBRANCH  26  28
ENDBRANCH  25  26
ENDBRANCH   6  25
TORSDOF 11
