REMARK  Name = ZINC04785869
REMARK  5 active torsions:
REMARK  status: ('A' for Active; 'I' for Inactive)
REMARK    1  A    between atoms: C_1  and  C_2
REMARK    2  A    between atoms: C_2  and  C_3
REMARK    3  A    between atoms: C_3  and  C_4
REMARK    4  A    between atoms: C_4  and  C_5
REMARK    5  A    between atoms: N_13  and  N_16
REMARK                            x       y       z     vdW  Elec       q    Type
REMARK                         _______ _______ _______ _____ _____    ______ ____
ROOT
ATOM      1  C   UNL     1       1.492  -2.540   2.454  0.00  0.00    +0.046 A 
ATOM      2  C   UNL     1       2.869  -2.745   2.397  0.00  0.00    -0.022 A 
ATOM      3  C   UNL     1       3.536  -3.195   3.505  0.00  0.00    -0.031 A 
ATOM      4  C   UNL     1       2.806  -3.452   4.694  0.00  0.00    +0.037 A 
ATOM      5  C   UNL     1       3.333  -3.940   5.979  0.00  0.00    +0.095 A 
ATOM      6  C   UNL     1       2.398  -4.110   6.998  0.00  0.00    +0.106 A 
ATOM      7  C   UNL     1       2.781  -4.569   8.265  0.00  0.00    +0.285 A 
ATOM      8  O   UNL     1       1.959  -4.716   9.154  0.00  0.00    -0.265 OA
ATOM      9  N   UNL     1       4.091  -4.845   8.474  0.00  0.00    -0.221 N 
ATOM     10  C   UNL     1       4.975  -4.669   7.459  0.00  0.00    +0.222 A 
ATOM     11  N   UNL     1       4.627  -4.244   6.285  0.00  0.00    -0.234 NA
ATOM     12  S   UNL     1       0.851  -3.635   6.275  0.00  0.00    -0.062 S 
ATOM     13  C   UNL     1       1.421  -3.214   4.646  0.00  0.00    +0.112 A 
ATOM     14  N   UNL     1       0.820  -2.772   3.562  0.00  0.00    -0.244 NA
ATOM     15  C   UNL     1       5.021  -3.429   3.532  0.00  0.00    +0.036 C 
ATOM     16  C   UNL     1       5.573  -3.521   2.110  0.00  0.00    +0.005 C 
ATOM     17  C   UNL     1       5.074  -2.306   1.319  0.00  0.00    +0.005 C 
ATOM     18  C   UNL     1       3.571  -2.459   1.094  0.00  0.00    +0.037 C 
ENDROOT
BRANCH   9  19
ATOM     19  N   UNL     1       4.516  -5.295   9.691  0.00  0.00    -0.294 N 
ATOM     20  H   UNL     1       5.513  -5.454   9.690  0.00  0.00    +0.163 HD
ATOM     21  H   UNL     1       4.254  -4.654  10.425  0.00  0.00    +0.163 HD
ENDBRANCH   9  19
BRANCH   1  22
ATOM     22  C   UNL     1       0.763  -2.041   1.233  0.00  0.00    +0.056 C 
BRANCH  22  23
ATOM     23  C   UNL     1       0.742  -0.511   1.242  0.00  0.00    +0.006 C 
BRANCH  23  25
ATOM     24  C   UNL     1      -0.019   1.526   0.010  0.00  0.00    +0.004 C 
ATOM     25  C   UNL     1       0.002  -0.004   0.002  0.00  0.00    -0.003 C 
ENDBRANCH  23  25
ENDBRANCH  22  23
ENDBRANCH   1  22
TORSDOF 4
