REMARK  Name = ZINC08768364
REMARK  4 active torsions:
REMARK  status: ('A' for Active; 'I' for Inactive)
REMARK    1  A    between atoms: C_10  and  N_11
REMARK    2  A    between atoms: C_12  and  C_14
REMARK    3  A    between atoms: C_14  and  N_15
REMARK    4  A    between atoms: C_20  and  O_28
REMARK                            x       y       z     vdW  Elec       q    Type
REMARK                         _______ _______ _______ _____ _____    ______ ____
ROOT
ATOM      1  N   UNL     1       8.461  -0.712   0.228  0.00  0.00    -0.290 N 
ATOM      2  C   UNL     1       9.720  -0.241   0.328  0.00  0.00    +0.307 C 
ATOM      3  O   UNL     1       9.920   0.958   0.351  0.00  0.00    -0.252 OA
ATOM      4  N   UNL     1      10.757  -1.099   0.403  0.00  0.00    -0.245 N 
ATOM      5  C   UNL     1      10.552  -2.556   0.372  0.00  0.00    +0.210 C 
ATOM      6  C   UNL     1      11.482  -3.203   1.365  0.00  0.00    +0.206 C 
ATOM      7  N   UNL     1      12.608  -2.657   1.697  0.00  0.00    -0.214 NA
ATOM      8  C   UNL     1      13.010  -1.456   1.175  0.00  0.00    +0.089 A 
ATOM      9  C   UNL     1      12.079  -0.641   0.508  0.00  0.00    +0.064 A 
ATOM     10  C   UNL     1      12.466   0.573  -0.022  0.00  0.00    +0.026 A 
ATOM     11  C   UNL     1      13.782   0.987   0.097  0.00  0.00    +0.002 A 
ATOM     12  C   UNL     1      14.709   0.188   0.744  0.00  0.00    +0.002 A 
ATOM     13  C   UNL     1      14.330  -1.031   1.292  0.00  0.00    +0.030 A 
ATOM     14  H   UNL     1       8.302  -1.669   0.209  0.00  0.00    +0.151 HD
ENDROOT
BRANCH   6  15
ATOM     15  O   UNL     1      11.133  -4.381   1.922  0.00  0.00    -0.494 OA
ATOM     16  H   UNL     1      11.784  -4.728   2.547  0.00  0.00    +0.293 HD
ENDBRANCH   6  15
BRANCH   1  17
ATOM     17  C   UNL     1       7.334   0.221   0.146  0.00  0.00    +0.202 C 
BRANCH  17  19
ATOM     18  N   UNL     1       4.871   0.098  -0.045  0.00  0.00    -0.284 N 
ATOM     19  C   UNL     1       6.047  -0.555   0.042  0.00  0.00    +0.234 C 
ATOM     20  O   UNL     1       6.068  -1.768   0.036  0.00  0.00    -0.274 OA
ATOM     21  H   UNL     1       4.858   1.065  -0.121  0.00  0.00    +0.155 HD
BRANCH  18  31
ATOM     22  C   UNL     1       0.203   0.945  -1.767  0.00  0.00    +0.001 A 
ATOM     23  C   UNL     1       1.389   1.676  -1.797  0.00  0.00    +0.001 A 
ATOM     24  C   UNL     1       2.529   1.185  -1.236  0.00  0.00    +0.010 A 
ATOM     25  C   UNL     1       2.511  -0.076  -0.618  0.00  0.00    +0.003 A 
ATOM     26  C   UNL     1       1.306  -0.819  -0.587  0.00  0.00    -0.016 A 
ATOM     27  C   UNL     1       0.149  -0.280  -1.177  0.00  0.00    +0.008 A 
ATOM     28  C   UNL     1       1.286  -2.080   0.032  0.00  0.00    +0.008 A 
ATOM     29  C   UNL     1       2.422  -2.578   0.596  0.00  0.00    +0.002 A 
ATOM     30  C   UNL     1       3.612  -1.857   0.572  0.00  0.00    +0.024 A 
ATOM     31  C   UNL     1       3.672  -0.617  -0.026  0.00  0.00    +0.041 A 
ENDBRANCH  18  31
ENDBRANCH  17  19
ENDBRANCH   1  17
TORSDOF 4
