REMARK  Name = ZINC32535080
REMARK  12 active torsions:
REMARK  status: ('A' for Active; 'I' for Inactive)
REMARK    1  A    between atoms: C_1  and  C_2
REMARK    2  A    between atoms: C_2  and  C_3
REMARK    3  A    between atoms: C_3  and  C_5
REMARK    4  A    between atoms: C_3  and  O_20
REMARK    5  A    between atoms: C_10  and  C_19
REMARK    6  A    between atoms: C_11  and  C_13
REMARK    7  A    between atoms: C_13  and  O_15
REMARK    8  A    between atoms: O_15  and  C_16
REMARK    9  A    between atoms: C_16  and  C_17
REMARK   10  A    between atoms: C_16  and  C_18
REMARK   11  A    between atoms: O_20  and  C_21
REMARK   12  A    between atoms: C_31  and  C_32
REMARK                            x       y       z     vdW  Elec       q    Type
REMARK                         _______ _______ _______ _____ _____    ______ ____
ROOT
ATOM      1  C   UNL     1      -4.469   6.408   1.652  0.00  0.00    +0.259 C 
ENDROOT
BRANCH   1   2
ATOM      2  C   UNL     1      -5.970   6.303   1.731  0.00  0.00    +0.259 C 
ATOM      3  O   UNL     1      -6.612   6.024   0.741  0.00  0.00    -0.271 OA
ATOM      4  N   UNL     1      -6.599   6.520   2.903  0.00  0.00    -0.262 N 
ATOM      5  C   UNL     1      -7.978   6.424   2.976  0.00  0.00    +0.165 A 
ATOM      6  N   UNL     1      -8.765   6.595   4.027  0.00  0.00    -0.229 NA
ATOM      7  C   UNL     1     -10.064   6.474   3.936  0.00  0.00    +0.062 A 
ATOM      8  C   UNL     1     -10.598   6.146   2.697  0.00  0.00    +0.120 A 
ATOM      9  S   UNL     1      -9.108   6.042   1.715  0.00  0.00    -0.045 S 
ATOM     10  C   UNL     1     -10.950   6.677   5.138  0.00  0.00    +0.067 C 
ATOM     11  H   UNL     1      -6.017   6.774   3.801  0.00  0.00    +0.157 HD
BRANCH   8  12
ATOM     12  C   UNL     1     -11.991   5.942   2.305  0.00  0.00    +0.348 C 
ATOM     13  O   UNL     1     -12.878   6.058   3.130  0.00  0.00    -0.244 OA
BRANCH  12  14
ATOM     14  O   UNL     1     -12.293   5.625   1.029  0.00  0.00    -0.458 OA
BRANCH  14  15
ATOM     15  C   UNL     1     -13.675   5.440   0.716  0.00  0.00    +0.171 C 
ATOM     16  C   UNL     1     -14.283   6.776   0.284  0.00  0.00    +0.052 C 
ATOM     17  C   UNL     1     -13.810   4.426  -0.421  0.00  0.00    +0.052 C 
ENDBRANCH  14  15
ENDBRANCH  12  14
ENDBRANCH   8  12
ENDBRANCH   1   2
BRANCH   1  19
ATOM     18  C   UNL     1      -2.508   7.878   2.139  0.00  0.00    +0.008 C 
ATOM     19  C   UNL     1      -4.034   7.820   2.049  0.00  0.00    +0.051 C 
ENDBRANCH   1  19
BRANCH   1  20
ATOM     20  O   UNL     1      -4.042   6.137   0.315  0.00  0.00    -0.472 OA
BRANCH  20  21
ATOM     21  C   UNL     1      -2.860   5.479   0.165  0.00  0.00    +0.215 A 
ATOM     22  C   UNL     1      -2.719   4.150   0.626  0.00  0.00    +0.235 A 
ATOM     23  O   UNL     1      -3.644   3.564   1.164  0.00  0.00    -0.283 OA
ATOM     24  C   UNL     1      -1.409   3.498   0.431  0.00  0.00    +0.068 A 
ATOM     25  C   UNL     1      -1.186   2.187   0.851  0.00  0.00    +0.015 A 
ATOM     26  C   UNL     1       0.051   1.611   0.658  0.00  0.00    +0.001 A 
ATOM     27  C   UNL     1       1.066   2.326   0.039  0.00  0.00    +0.004 A 
ATOM     28  C   UNL     1       0.856   3.621  -0.386  0.00  0.00    +0.047 A 
ATOM     29  C   UNL     1      -0.383   4.222  -0.195  0.00  0.00    +0.140 A 
ATOM     30  O   UNL     1      -0.604   5.489  -0.605  0.00  0.00    -0.448 OA
ATOM     31  C   UNL     1      -1.788   6.103  -0.438  0.00  0.00    +0.216 A 
BRANCH  31  32
ATOM     32  C   UNL     1      -1.945   7.480  -0.912  0.00  0.00    +0.173 A 
ATOM     33  C   UNL     1      -1.010   8.205  -1.595  0.00  0.00    +0.053 A 
ATOM     34  C   UNL     1      -1.580   9.464  -1.847  0.00  0.00    +0.042 A 
ATOM     35  C   UNL     1      -2.821   9.453  -1.314  0.00  0.00    +0.196 A 
ATOM     36  O   UNL     1      -3.039   8.252  -0.756  0.00  0.00    -0.460 OA
ENDBRANCH  31  32
ENDBRANCH  20  21
ENDBRANCH   1  20
TORSDOF 8
