REMARK  Name = ZINC40055044
REMARK  13 active torsions:
REMARK  status: ('A' for Active; 'I' for Inactive)
REMARK    1  A    between atoms: C_1  and  N_2
REMARK    2  A    between atoms: N_2  and  C_3
REMARK    3  A    between atoms: N_2  and  C_4
REMARK    4  A    between atoms: C_7  and  C_10
REMARK    5  A    between atoms: C_12  and  C_22
REMARK    6  A    between atoms: N_16  and  C_17
REMARK    7  A    between atoms: C_17  and  C_18
REMARK    8  A    between atoms: C_18  and  C_19
REMARK    9  A    between atoms: C_19  and  O_20
REMARK   10  A    between atoms: C_22  and  C_24
REMARK   11  A    between atoms: C_28  and  O_30
REMARK   12  A    between atoms: O_30  and  C_31
REMARK   13  A    between atoms: C_31  and  C_32
REMARK                            x       y       z     vdW  Elec       q    Type
REMARK                         _______ _______ _______ _____ _____    ______ ____
ROOT
ATOM      1  C   UNL     1      -4.837  -2.884   0.028  0.00  0.00    +0.145 C 
ATOM      2  C   UNL     1      -5.530  -2.806  -1.313  0.00  0.00    +0.076 C 
ATOM      3  C   UNL     1      -6.735  -2.230  -1.097  0.00  0.00    +0.249 C 
ATOM      4  C   UNL     1      -6.874  -1.919   0.342  0.00  0.00    +0.288 C 
ATOM      5  O   UNL     1      -7.845  -1.397   0.852  0.00  0.00    -0.266 OA
ATOM      6  N   UNL     1      -5.765  -2.301   1.004  0.00  0.00    -0.283 N 
ATOM      7  O   UNL     1      -7.665  -1.978  -2.046  0.00  0.00    -0.282 OA
ENDROOT
BRANCH   1  11
ATOM      8  C   UNL     1      -1.201  -0.640  -0.065  0.00  0.00    +0.029 A 
ATOM      9  C   UNL     1      -1.162  -2.026   0.030  0.00  0.00    +0.023 A 
ATOM     10  C   UNL     1      -2.339  -2.748   0.060  0.00  0.00    +0.007 A 
ATOM     11  C   UNL     1      -3.555  -2.093  -0.004  0.00  0.00    -0.022 A 
ATOM     12  C   UNL     1      -3.598  -0.714  -0.099  0.00  0.00    +0.007 A 
ATOM     13  C   UNL     1      -2.425   0.015  -0.124  0.00  0.00    +0.023 A 
BRANCH   8  15
ATOM     14  C   UNL     1      -0.056   1.554  -0.190  0.00  0.00    +0.129 C 
ATOM     15  N   UNL     1      -0.012   0.093  -0.096  0.00  0.00    -0.336 N 
ATOM     16  C   UNL     1       1.277  -0.599  -0.033  0.00  0.00    +0.129 C 
ENDBRANCH   8  15
ENDBRANCH   1  11
BRANCH   2  17
ATOM     17  C   UNL     1      -4.998  -3.266  -2.599  0.00  0.00    +0.195 C 
ATOM     18  O   UNL     1      -4.751  -2.462  -3.477  0.00  0.00    -0.287 OA
BRANCH  17  19
ATOM     19  C   UNL     1      -4.763  -4.708  -2.829  0.00  0.00    +0.026 A 
ATOM     20  C   UNL     1      -5.158  -5.644  -1.871  0.00  0.00    +0.012 A 
ATOM     21  C   UNL     1      -4.937  -6.988  -2.089  0.00  0.00    +0.004 A 
ATOM     22  C   UNL     1      -4.325  -7.413  -3.255  0.00  0.00    +0.046 A 
ATOM     23  C   UNL     1      -3.928  -6.489  -4.212  0.00  0.00    +0.122 A 
ATOM     24  C   UNL     1      -4.150  -5.138  -4.006  0.00  0.00    +0.057 A 
BRANCH  23  25
ATOM     25  O   UNL     1      -3.326  -6.912  -5.355  0.00  0.00    -0.487 OA
BRANCH  25  26
ATOM     26  C   UNL     1      -3.134  -8.320  -5.504  0.00  0.00    +0.264 C 
BRANCH  26  27
ATOM     27  C   UNL     1      -2.458  -8.598  -6.822  0.00  0.00    -0.010 A 
ATOM     28  C   UNL     1      -3.218  -8.810  -7.957  0.00  0.00    +0.010 A 
ATOM     29  C   UNL     1      -2.599  -9.064  -9.166  0.00  0.00    +0.039 A 
ATOM     30  C   UNL     1      -1.217  -9.107  -9.241  0.00  0.00    +0.123 A 
ATOM     31  C   UNL     1      -0.457  -8.896  -8.103  0.00  0.00    +0.039 A 
ATOM     32  C   UNL     1      -1.078  -8.636  -6.896  0.00  0.00    +0.010 A 
ATOM     33  F   UNL     1      -0.610  -9.357 -10.422  0.00  0.00    -0.205 F 
ENDBRANCH  26  27
ENDBRANCH  25  26
ENDBRANCH  23  25
ENDBRANCH  17  19
ENDBRANCH   2  17
BRANCH   6  34
ATOM     34  C   UNL     1      -5.527  -2.160   2.443  0.00  0.00    +0.111 C 
BRANCH  34  35
ATOM     35  C   UNL     1      -4.862  -0.810   2.719  0.00  0.00    +0.047 C 
BRANCH  35  36
ATOM     36  C   UNL     1      -4.614  -0.662   4.222  0.00  0.00    +0.157 C 
BRANCH  36  37
ATOM     37  O   UNL     1      -3.993   0.599   4.480  0.00  0.00    -0.395 OA
ATOM     38  H   UNL     1      -3.805   0.760   5.415  0.00  0.00    +0.209 HD
ENDBRANCH  36  37
ENDBRANCH  35  36
ENDBRANCH  34  35
ENDBRANCH   6  34
TORSDOF 11
