REMARK  Name = ZINC39776555
REMARK  11 active torsions:
REMARK  status: ('A' for Active; 'I' for Inactive)
REMARK    1  A    between atoms: C_1  and  C_2
REMARK    2  A    between atoms: C_2  and  C_4
REMARK    3  A    between atoms: C_2  and  N_16
REMARK    4  A    between atoms: N_6  and  C_7
REMARK    5  A    between atoms: C_10  and  O_14
REMARK    6  A    between atoms: O_14  and  C_15
REMARK    7  A    between atoms: N_16  and  C_17
REMARK    8  A    between atoms: C_17  and  C_19
REMARK    9  A    between atoms: C_17  and  C_29
REMARK   10  A    between atoms: C_29  and  C_30
REMARK   11  A    between atoms: C_29  and  C_31
REMARK                            x       y       z     vdW  Elec       q    Type
REMARK                         _______ _______ _______ _____ _____    ______ ____
ROOT
ATOM      1  N   UNL     1       1.392   0.046   0.849  0.00  0.00    +0.391 N 
ATOM      2  H   UNL     1       1.412  -0.962   0.808  0.00  0.00    -0.084 HD
ATOM      3  H   UNL     1       1.021   0.410  -0.016  0.00  0.00    -0.084 HD
ENDROOT
BRANCH   1   5
ATOM      4  C   UNL     1       0.978  -0.241   3.245  0.00  0.00    -0.004 C 
ATOM      5  C   UNL     1       0.540   0.474   1.966  0.00  0.00    +0.014 C 
BRANCH   5   6
ATOM      6  C   UNL     1      -0.896   0.129   1.663  0.00  0.00    +0.203 C 
ATOM      7  O   UNL     1      -1.181  -0.420   0.620  0.00  0.00    -0.277 OA
ATOM      8  N   UNL     1      -1.863   0.430   2.553  0.00  0.00    -0.287 N 
ATOM      9  H   UNL     1      -1.645   0.929   3.356  0.00  0.00    +0.155 HD
BRANCH   8  10
ATOM     10  C   UNL     1      -3.182   0.022   2.317  0.00  0.00    +0.035 A 
ATOM     11  C   UNL     1      -4.240   0.823   2.726  0.00  0.00    +0.027 A 
ATOM     12  C   UNL     1      -5.541   0.421   2.493  0.00  0.00    +0.049 A 
ATOM     13  C   UNL     1      -5.791  -0.783   1.852  0.00  0.00    +0.138 A 
ATOM     14  C   UNL     1      -4.734  -1.585   1.444  0.00  0.00    +0.084 A 
ATOM     15  C   UNL     1      -3.433  -1.181   1.671  0.00  0.00    +0.047 A 
ATOM     16 CL   UNL     1      -5.048  -3.092   0.642  0.00  0.00    -0.080 Cl
BRANCH  13  17
ATOM     17  O   UNL     1      -7.072  -1.178   1.623  0.00  0.00    -0.494 OA
ATOM     18  C   UNL     1      -8.110  -0.303   2.071  0.00  0.00    +0.277 C 
ENDBRANCH  13  17
ENDBRANCH   8  10
ENDBRANCH   5   6
ENDBRANCH   1   5
BRANCH   1  19
ATOM     19  C   UNL     1       2.755   0.555   1.050  0.00  0.00    -0.037 C 
BRANCH  19  20
ATOM     20  C   UNL     1       3.421  -0.216   2.161  0.00  0.00    -0.057 A 
ATOM     21  C   UNL     1       3.235  -1.583   2.259  0.00  0.00    +0.006 A 
ATOM     22  C   UNL     1       3.842  -2.293   3.277  0.00  0.00    +0.049 A 
ATOM     23  C   UNL     1       4.640  -1.637   4.203  0.00  0.00    +0.162 A 
ATOM     24  C   UNL     1       4.828  -0.264   4.103  0.00  0.00    +0.162 A 
ATOM     25  C   UNL     1       4.219   0.443   3.076  0.00  0.00    +0.051 A 
ATOM     26  O   UNL     1       5.613   0.399   4.996  0.00  0.00    -0.485 OA
ATOM     27  C   UNL     1       5.908  -0.281   6.221  0.00  0.00    +0.270 C 
ATOM     28  C   UNL     1       6.318  -1.721   5.885  0.00  0.00    +0.270 C 
ATOM     29  O   UNL     1       5.228  -2.350   5.202  0.00  0.00    -0.485 OA
ENDBRANCH  19  20
BRANCH  19  30
ATOM     30  C   UNL     1       3.559   0.385  -0.241  0.00  0.00    -0.027 C 
ATOM     31  C   UNL     1       3.496  -1.076  -0.693  0.00  0.00    +0.006 C 
ATOM     32  C   UNL     1       2.969   1.282  -1.331  0.00  0.00    +0.006 C 
ENDBRANCH  19  30
ENDBRANCH   1  19
TORSDOF 7
