REMARK  Name = ZINC59577480
REMARK  10 active torsions:
REMARK  status: ('A' for Active; 'I' for Inactive)
REMARK    1  A    between atoms: C_1  and  N_2
REMARK    2  A    between atoms: N_2  and  C_3
REMARK    3  A    between atoms: N_2  and  C_19
REMARK    4  A    between atoms: C_3  and  C_4
REMARK    5  A    between atoms: C_4  and  C_6
REMARK    6  A    between atoms: C_4  and  O_18
REMARK    7  A    between atoms: C_6  and  O_7
REMARK    8  A    between atoms: O_7  and  C_8
REMARK    9  A    between atoms: C_11  and  C_14
REMARK   10  A    between atoms: C_20  and  N_30
REMARK                            x       y       z     vdW  Elec       q    Type
REMARK                         _______ _______ _______ _____ _____    ______ ____
ROOT
ATOM      1  C   UNL     1       0.061   1.484  -0.026  0.00  0.00    +0.131 C 
ATOM      2  N   UNL     1       0.003   0.020  -0.012  0.00  0.00    -0.314 N 
ENDROOT
BRANCH   2   3
ATOM      3  C   UNL     1      -0.104  -0.678  -1.201  0.00  0.00    +0.159 A 
ATOM      4  C   UNL     1       1.043  -1.111  -1.862  0.00  0.00    +0.230 A 
ATOM      5  C   UNL     1       0.905  -1.813  -3.057  0.00  0.00    +0.291 A 
ATOM      6  O   UNL     1       1.892  -2.207  -3.661  0.00  0.00    -0.265 OA
ATOM      7  N   UNL     1      -0.332  -2.053  -3.540  0.00  0.00    -0.266 N 
ATOM      8  C   UNL     1      -0.476  -2.739  -4.709  0.00  0.00    +0.096 A 
ATOM      9  C   UNL     1      -1.703  -2.992  -5.216  0.00  0.00    +0.018 A 
ATOM     10  C   UNL     1      -2.849  -2.550  -4.540  0.00  0.00    +0.005 A 
ATOM     11  C   UNL     1      -2.717  -1.863  -3.371  0.00  0.00    +0.047 A 
ATOM     12  C   UNL     1      -1.431  -1.609  -2.858  0.00  0.00    +0.142 A 
ATOM     13  N   UNL     1      -1.303  -0.943  -1.714  0.00  0.00    -0.212 NA
BRANCH   4  14
ATOM     14  N   UNL     1       2.385  -0.831  -1.304  0.00  0.00    +0.065 N 
ATOM     15  O   UNL     1       2.491  -0.312  -0.217  0.00  0.00    -0.126 OA
ATOM     16  O   UNL     1       3.375  -1.120  -1.935  0.00  0.00    -0.126 OA
ENDBRANCH   4  14
ENDBRANCH   2   3
BRANCH   2  17
ATOM     17  C   UNL     1       0.058  -0.703   1.260  0.00  0.00    +0.141 C 
BRANCH  17  18
ATOM     18  C   UNL     1      -1.361  -0.897   1.798  0.00  0.00    +0.169 C 
BRANCH  18  19
ATOM     19  O   UNL     1      -1.972   0.379   2.002  0.00  0.00    -0.387 OA
ATOM     20  H   UNL     1      -1.503   0.944   2.631  0.00  0.00    +0.210 HD
ENDBRANCH  18  19
BRANCH  18  21
ATOM     21  C   UNL     1      -1.304  -1.653   3.127  0.00  0.00    +0.261 C 
BRANCH  21  22
ATOM     22  O   UNL     1      -2.632  -1.936   3.572  0.00  0.00    -0.489 OA
BRANCH  22  23
ATOM     23  C   UNL     1      -2.760  -2.608   4.747  0.00  0.00    +0.121 A 
ATOM     24  C   UNL     1      -1.630  -2.982   5.459  0.00  0.00    +0.046 A 
ATOM     25  C   UNL     1      -1.762  -3.664   6.653  0.00  0.00    +0.016 A 
ATOM     26  C   UNL     1      -3.019  -3.975   7.138  0.00  0.00    +0.055 A 
ATOM     27  C   UNL     1      -4.147  -3.604   6.429  0.00  0.00    +0.016 A 
ATOM     28  C   UNL     1      -4.020  -2.916   5.238  0.00  0.00    +0.046 A 
BRANCH  26  29
ATOM     29  C   UNL     1      -3.160  -4.720   8.440  0.00  0.00    +0.417 C 
ATOM     30  F   UNL     1      -3.236  -3.804   9.495  0.00  0.00    -0.166 F 
ATOM     31  F   UNL     1      -4.325  -5.495   8.410  0.00  0.00    -0.166 F 
ATOM     32  F   UNL     1      -2.051  -5.552   8.624  0.00  0.00    -0.166 F 
ENDBRANCH  26  29
ENDBRANCH  22  23
ENDBRANCH  21  22
ENDBRANCH  18  21
ENDBRANCH  17  18
ENDBRANCH   2  17
TORSDOF 9
