REMARK  Name = ZINC57519889
REMARK  8 active torsions:
REMARK  status: ('A' for Active; 'I' for Inactive)
REMARK    1  A    between atoms: C_1  and  C_2
REMARK    2  A    between atoms: C_2  and  N_3
REMARK    3  A    between atoms: N_3  and  C_4
REMARK    4  A    between atoms: C_4  and  C_5
REMARK    5  A    between atoms: C_9  and  C_12
REMARK    6  A    between atoms: C_12  and  N_13
REMARK    7  A    between atoms: C_14  and  C_16
REMARK    8  A    between atoms: C_22  and  C_24
REMARK                            x       y       z     vdW  Elec       q    Type
REMARK                         _______ _______ _______ _____ _____    ______ ____
ROOT
ATOM      1  N   UNL     1      -4.838  -0.470   5.200  0.00  0.00    -0.310 N 
ATOM      2  C   UNL     1      -5.557  -0.480   6.340  0.00  0.00    +0.234 C 
ATOM      3  O   UNL     1      -5.694  -1.513   6.962  0.00  0.00    -0.274 OA
ATOM      4  H   UNL     1      -4.728   0.355   4.704  0.00  0.00    +0.149 HD
ENDROOT
BRANCH   2   5
ATOM      5  C   UNL     1      -6.190   0.792   6.843  0.00  0.00    +0.162 C 
ATOM      6  C   UNL     1      -5.097   1.837   7.148  0.00  0.00    +0.033 C 
ATOM      7  C   UNL     1      -5.625   2.527   8.433  0.00  0.00    +0.021 C 
ATOM      8  C   UNL     1      -6.297   1.341   9.169  0.00  0.00    +0.108 C 
ATOM      9  N   UNL     1      -6.910   0.530   8.097  0.00  0.00    -0.289 N 
ATOM     10  C   UNL     1      -7.954  -0.310   8.243  0.00  0.00    +0.222 C 
ATOM     11  O   UNL     1      -8.426  -0.866   7.274  0.00  0.00    -0.275 OA
BRANCH  10  12
ATOM     12  C   UNL     1      -8.536  -0.558   9.611  0.00  0.00    +0.048 C 
ATOM     13  C   UNL     1      -7.412  -0.904  10.589  0.00  0.00    +0.019 C 
ATOM     14  C   UNL     1      -8.002  -1.157  11.977  0.00  0.00    -0.009 C 
ATOM     15  C   UNL     1      -8.993  -2.320  11.906  0.00  0.00    +0.007 C 
ATOM     16  C   UNL     1     -10.118  -1.974  10.929  0.00  0.00    -0.009 C 
ATOM     17  C   UNL     1      -9.527  -1.722   9.540  0.00  0.00    +0.019 C 
ATOM     18  C   UNL     1     -10.843  -0.715  11.411  0.00  0.00    +0.007 C 
ATOM     19  C   UNL     1      -9.852   0.449  11.482  0.00  0.00    -0.009 C 
ATOM     20  C   UNL     1      -8.727   0.102  12.459  0.00  0.00    +0.007 C 
ATOM     21  C   UNL     1      -9.261   0.701  10.093  0.00  0.00    +0.019 C 
ENDBRANCH  10  12
ENDBRANCH   2   5
BRANCH   1  22
ATOM     22  C   UNL     1      -4.222  -1.707   4.712  0.00  0.00    +0.141 C 
BRANCH  22  27
ATOM     23  N   UNL     1      -1.574  -0.693  -0.138  0.00  0.00    -0.317 N 
ATOM     24  C   UNL     1      -2.209  -0.938   1.073  0.00  0.00    +0.099 A 
ATOM     25  C   UNL     1      -1.500  -0.803   2.263  0.00  0.00    +0.042 A 
ATOM     26  C   UNL     1      -2.144  -1.051   3.462  0.00  0.00    +0.010 A 
ATOM     27  C   UNL     1      -3.480  -1.427   3.431  0.00  0.00    -0.014 A 
ATOM     28  C   UNL     1      -4.122  -1.542   2.214  0.00  0.00    +0.089 A 
ATOM     29  N   UNL     1      -3.484  -1.294   1.086  0.00  0.00    -0.349 N 
ATOM     30  H   UNL     1      -3.960  -1.378   0.245  0.00  0.00    +0.167 HD
BRANCH  23  32
ATOM     31  C   UNL     1      -0.058   1.226  -0.088  0.00  0.00    +0.024 C 
ATOM     32  C   UNL     1      -0.163  -0.299  -0.160  0.00  0.00    +0.103 C 
ENDBRANCH  23  32
BRANCH  23  33
ATOM     33  C   UNL     1      -2.316  -0.827  -1.395  0.00  0.00    +0.103 C 
ATOM     34  C   UNL     1      -2.188  -2.262  -1.911  0.00  0.00    +0.024 C 
ENDBRANCH  23  33
ENDBRANCH  22  27
ENDBRANCH   1  22
TORSDOF 6
