REMARK  Name = ZINC39711232
REMARK  10 active torsions:
REMARK  status: ('A' for Active; 'I' for Inactive)
REMARK    1  A    between atoms: C_1  and  C_2
REMARK    2  A    between atoms: C_6  and  C_15
REMARK    3  A    between atoms: C_13  and  C_14
REMARK    4  A    between atoms: C_15  and  C_17
REMARK    5  A    between atoms: C_15  and  N_29
REMARK    6  A    between atoms: N_22  and  C_23
REMARK    7  A    between atoms: N_29  and  C_30
REMARK    8  A    between atoms: N_29  and  C_37
REMARK    9  A    between atoms: C_30  and  C_31
REMARK   10  A    between atoms: C_37  and  C_38
REMARK                            x       y       z     vdW  Elec       q    Type
REMARK                         _______ _______ _______ _____ _____    ______ ____
ROOT
ATOM      1  C   UNL     1       2.327  -5.391  -3.747  0.00  0.00    -0.008 C 
ENDROOT
BRANCH   1   7
ATOM      2  C   UNL     1      -2.441  -4.124  -8.912  0.00  0.00    +0.044 C 
ATOM      3  C   UNL     1      -1.643  -3.740  -7.692  0.00  0.00    -0.047 A 
ATOM      4  C   UNL     1      -1.151  -4.715  -6.886  0.00  0.00    +0.013 A 
ATOM      5  C   UNL     1      -0.378  -4.329  -5.704  0.00  0.00    -0.007 A 
ATOM      6  C   UNL     1       0.137  -5.274  -4.866  0.00  0.00    -0.006 C 
ATOM      7  C   UNL     1       0.925  -4.784  -3.667  0.00  0.00    +0.088 C 
ATOM      8  C   UNL     1       1.076  -3.289  -3.499  0.00  0.00    +0.223 C 
ATOM      9  O   UNL     1       1.699  -2.841  -2.555  0.00  0.00    -0.275 OA
ATOM     10  N   UNL     1       0.529  -2.470  -4.382  0.00  0.00    -0.285 N 
ATOM     11  C   UNL     1      -0.164  -2.897  -5.437  0.00  0.00    +0.041 A 
ATOM     12  C   UNL     1      -0.718  -1.967  -6.337  0.00  0.00    +0.027 A 
ATOM     13  C   UNL     1      -1.422  -2.390  -7.419  0.00  0.00    -0.046 A 
ATOM     14  C   UNL     1      -1.992  -1.359  -8.359  0.00  0.00    +0.044 C 
ATOM     15  H   UNL     1       0.638  -1.515  -4.255  0.00  0.00    +0.155 HD
ENDBRANCH   1   7
BRANCH   1  16
ATOM     16  C   UNL     1       3.317  -4.487  -3.010  0.00  0.00    +0.205 C 
ATOM     17  N   UNL     1       3.413  -3.181  -3.677  0.00  0.00    -0.152 NA
ATOM     18  N   UNL     1       4.572  -3.013  -4.060  0.00  0.00    -0.070 NA
ATOM     19  N   UNL     1       5.407  -4.086  -3.749  0.00  0.00    -0.179 N 
ATOM     20  N   UNL     1       4.683  -5.046  -3.088  0.00  0.00    -0.185 NA
ATOM     21  H   UNL     1       6.351  -4.144  -3.966  0.00  0.00    +0.191 HD
BRANCH  20  22
ATOM     22  C   UNL     1       4.691  -6.316  -3.828  0.00  0.00    +0.080 C 
ATOM     23  C   UNL     1       5.089  -7.453  -2.885  0.00  0.00    +0.021 C 
ATOM     24  C   UNL     1       5.097  -8.775  -3.656  0.00  0.00    +0.002 C 
ATOM     25  C   UNL     1       6.103  -8.689  -4.805  0.00  0.00    +0.000 C 
ATOM     26  C   UNL     1       5.705  -7.551  -5.748  0.00  0.00    +0.002 C 
ATOM     27  C   UNL     1       5.697  -6.229  -4.977  0.00  0.00    +0.021 C 
ENDBRANCH  20  22
ENDBRANCH   1  16
BRANCH   1  28
ATOM     28  N   UNL     1       2.321  -6.721  -3.124  0.00  0.00    +0.392 N 
ATOM     29  H   UNL     1       3.268  -7.061  -3.046  0.00  0.00    -0.080 HD
BRANCH  28  30
ATOM     30  C   UNL     1       1.536  -7.646  -3.952  0.00  0.00    -0.040 C 
BRANCH  30  31
ATOM     31  C   UNL     1       2.177  -7.773  -5.310  0.00  0.00    -0.046 A 
ATOM     32  C   UNL     1       2.126  -6.721  -6.212  0.00  0.00    +0.005 A 
ATOM     33  C   UNL     1       2.729  -6.883  -7.449  0.00  0.00    +0.020 A 
ATOM     34  C   UNL     1       3.358  -8.079  -7.740  0.00  0.00    +0.111 A 
ATOM     35  N   UNL     1       3.388  -9.058  -6.858  0.00  0.00    -0.263 NA
ATOM     36  C   UNL     1       2.829  -8.938  -5.669  0.00  0.00    +0.112 A 
ENDBRANCH  30  31
ENDBRANCH  28  30
BRANCH  28  37
ATOM     37  C   UNL     1       1.721  -6.632  -1.786  0.00  0.00    -0.002 C 
BRANCH  37  38
ATOM     38  C   UNL     1       2.577  -5.754  -0.909  0.00  0.00    +0.089 A 
ATOM     39  C   UNL     1       2.153  -4.680  -0.220  0.00  0.00    +0.042 A 
ATOM     40  C   UNL     1       3.278  -4.160   0.460  0.00  0.00    +0.041 A 
ATOM     41  C   UNL     1       4.322  -4.948   0.146  0.00  0.00    +0.195 A 
ATOM     42  O   UNL     1       3.890  -5.915  -0.680  0.00  0.00    -0.470 OA
ENDBRANCH  37  38
ENDBRANCH  28  37
ENDBRANCH   1  28
TORSDOF 8
