REMARK  Name = ZINC04124662
REMARK  8 active torsions:
REMARK  status: ('A' for Active; 'I' for Inactive)
REMARK    1  A    between atoms: C_1  and  C_2
REMARK    2  A    between atoms: C_2  and  N_3
REMARK    3  A    between atoms: C_6  and  O_33
REMARK    4  A    between atoms: N_15  and  C_26
REMARK    5  A    between atoms: N_17  and  C_18
REMARK    6  A    between atoms: C_22  and  O_24
REMARK    7  A    between atoms: C_29  and  O_32
REMARK    8  A    between atoms: O_33  and  C_34
REMARK                            x       y       z     vdW  Elec       q    Type
REMARK                         _______ _______ _______ _____ _____    ______ ____
ROOT
ATOM      1  N   UNL     1      -3.709   4.221  -3.511  0.00  0.00    -0.293 N 
ATOM      2  C   UNL     1      -4.944   4.582  -4.022  0.00  0.00    +0.052 A 
ATOM      3  C   UNL     1      -5.809   3.795  -4.800  0.00  0.00    +0.070 A 
ATOM      4  C   UNL     1      -7.016   4.294  -5.240  0.00  0.00    +0.122 A 
ATOM      5  C   UNL     1      -7.414   5.588  -4.930  0.00  0.00    +0.047 A 
ATOM      6  C   UNL     1      -6.579   6.383  -4.165  0.00  0.00    +0.020 A 
ATOM      7  C   UNL     1      -5.376   5.883  -3.726  0.00  0.00    +0.036 A 
ATOM      8  S   UNL     1      -4.051   6.546  -2.745  0.00  0.00    -0.071 S 
ATOM      9  C   UNL     1      -2.986   5.113  -2.765  0.00  0.00    +0.092 C 
ATOM     10  C   UNL     1      -1.744   4.944  -2.171  0.00  0.00    +0.106 C 
ATOM     11  C   UNL     1      -0.993   5.854  -1.404  0.00  0.00    +0.266 C 
ATOM     12  O   UNL     1      -1.420   6.975  -1.179  0.00  0.00    -0.269 OA
ATOM     13  N   UNL     1       0.181   5.474  -0.931  0.00  0.00    -0.214 N 
ATOM     14  C   UNL     1       0.651   4.202  -1.194  0.00  0.00    +0.173 C 
ATOM     15  N   UNL     1       1.782   3.642  -0.818  0.00  0.00    -0.225 NA
ATOM     16  S   UNL     1      -0.669   3.517  -2.183  0.00  0.00    -0.046 S 
ENDROOT
BRANCH  15  17
ATOM     17  C   UNL     1       2.064   2.356  -1.187  0.00  0.00    +0.070 A 
ATOM     18  C   UNL     1       1.085   1.365  -1.080  0.00  0.00    +0.028 A 
ATOM     19  C   UNL     1       1.373   0.069  -1.454  0.00  0.00    +0.006 A 
ATOM     20  C   UNL     1       2.629  -0.255  -1.933  0.00  0.00    +0.045 A 
ATOM     21  C   UNL     1       3.609   0.723  -2.043  0.00  0.00    +0.119 A 
ATOM     22  C   UNL     1       3.332   2.028  -1.672  0.00  0.00    +0.073 A 
BRANCH  21  23
ATOM     23  O   UNL     1       4.842   0.400  -2.516  0.00  0.00    -0.507 OA
ATOM     24  H   UNL     1       4.929   0.483  -3.475  0.00  0.00    +0.292 HD
ENDBRANCH  21  23
ENDBRANCH  15  17
BRANCH  13  25
ATOM     25  C   UNL     1       0.949   6.363  -0.164  0.00  0.00    +0.044 A 
ATOM     26  C   UNL     1       0.794   6.401   1.215  0.00  0.00    +0.027 A 
ATOM     27  C   UNL     1       1.555   7.272   1.971  0.00  0.00    +0.047 A 
ATOM     28  C   UNL     1       2.465   8.115   1.351  0.00  0.00    +0.117 A 
ATOM     29  C   UNL     1       2.615   8.082  -0.028  0.00  0.00    +0.047 A 
ATOM     30  C   UNL     1       1.860   7.207  -0.784  0.00  0.00    +0.027 A 
BRANCH  28  31
ATOM     31  O   UNL     1       3.210   8.976   2.095  0.00  0.00    -0.507 OA
ATOM     32  H   UNL     1       2.797   9.841   2.226  0.00  0.00    +0.292 HD
ENDBRANCH  28  31
ENDBRANCH  13  25
BRANCH   1  34
ATOM     33  C   UNL     1      -3.628   1.930  -2.659  0.00  0.00    +0.025 C 
ATOM     34  C   UNL     1      -3.176   2.881  -3.769  0.00  0.00    +0.108 C 
ENDBRANCH   1  34
BRANCH   4  35
ATOM     35  O   UNL     1      -7.831   3.507  -5.992  0.00  0.00    -0.495 OA
ATOM     36  C   UNL     1      -9.069   4.077  -6.420  0.00  0.00    +0.277 C 
ENDBRANCH   4  35
TORSDOF 6
