REMARK  Name = ZINC43701547
REMARK  8 active torsions:
REMARK  status: ('A' for Active; 'I' for Inactive)
REMARK    1  A    between atoms: C_7  and  C_14
REMARK    2  A    between atoms: N_9  and  C_10
REMARK    3  A    between atoms: C_10  and  C_11
REMARK    4  A    between atoms: C_11  and  C_12
REMARK    5  A    between atoms: C_15  and  C_16
REMARK    6  A    between atoms: C_16  and  O_18
REMARK    7  A    between atoms: O_18  and  C_19
REMARK    8  A    between atoms: C_19  and  C_20
REMARK                            x       y       z     vdW  Elec       q    Type
REMARK                         _______ _______ _______ _____ _____    ______ ____
ROOT
ATOM      1  C   UNL     1       0.701  -3.252  -0.020  0.00  0.00    +0.017 C 
ATOM      2  C   UNL     1       1.206  -4.511  -0.031  0.00  0.00    +0.092 C 
ENDROOT
BRANCH   1   9
ATOM      3  C   UNL     1      -0.017   1.374   0.010  0.00  0.00    +0.001 A 
ATOM      4  C   UNL     1       1.172   2.090   0.002  0.00  0.00    +0.002 A 
ATOM      5  C   UNL     1       2.385   1.437  -0.013  0.00  0.00    +0.026 A 
ATOM      6  C   UNL     1       2.424   0.046  -0.021  0.00  0.00    +0.050 A 
ATOM      7  C   UNL     1       1.221  -0.677  -0.013  0.00  0.00    +0.007 A 
ATOM      8  C   UNL     1       0.002  -0.004   0.002  0.00  0.00    +0.010 A 
ATOM      9  C   UNL     1       1.605  -2.102  -0.024  0.00  0.00    +0.000 A 
ATOM     10  C   UNL     1       2.971  -2.134  -0.036  0.00  0.00    +0.094 A 
ATOM     11  N   UNL     1       3.458  -0.868  -0.035  0.00  0.00    -0.345 N 
BRANCH  11  12
ATOM     12  C   UNL     1       4.881  -0.521  -0.047  0.00  0.00    +0.136 C 
BRANCH  12  13
ATOM     13  C   UNL     1       5.361  -0.284   1.387  0.00  0.00    +0.140 C 
BRANCH  13  14
ATOM     14  C   UNL     1       6.790   0.066   1.374  0.00  0.00    +0.064 C 
ATOM     15  N   UNL     1       7.894   0.336   1.365  0.00  0.00    -0.197 NA
ENDBRANCH  13  14
ENDBRANCH  12  13
ENDBRANCH  11  12
ENDBRANCH   1   9
BRANCH   2  16
ATOM     16  C   UNL     1       0.334  -5.621  -0.028  0.00  0.00    +0.332 C 
ATOM     17  O   UNL     1      -0.871  -5.449  -0.016  0.00  0.00    -0.246 OA
BRANCH  16  18
ATOM     18  O   UNL     1       0.836  -6.874  -0.039  0.00  0.00    -0.454 OA
BRANCH  18  19
ATOM     19  C   UNL     1      -0.104  -7.950  -0.035  0.00  0.00    +0.306 C 
BRANCH  19  20
ATOM     20  C   UNL     1       0.635  -9.264  -0.048  0.00  0.00    +0.146 A 
ATOM     21  N   UNL     1       1.989  -9.395  -0.057  0.00  0.00    -0.339 N 
ATOM     22  H   UNL     1       2.637  -8.673  -0.055  0.00  0.00    +0.167 HD
ATOM     23  C   UNL     1       2.270 -10.747  -0.068  0.00  0.00    +0.066 A 
ATOM     24  C   UNL     1       3.442 -11.491  -0.079  0.00  0.00    +0.028 A 
ATOM     25  C   UNL     1       3.377 -12.868  -0.089  0.00  0.00    +0.002 A 
ATOM     26  C   UNL     1       2.149 -13.514  -0.087  0.00  0.00    +0.002 A 
ATOM     27  C   UNL     1       0.985 -12.798  -0.076  0.00  0.00    +0.030 A 
ATOM     28  C   UNL     1       1.027 -11.401  -0.066  0.00  0.00    +0.089 A 
ATOM     29  N   UNL     1       0.072 -10.436  -0.048  0.00  0.00    -0.229 NA
ENDBRANCH  19  20
ENDBRANCH  18  19
ENDBRANCH  16  18
ENDBRANCH   2  16
TORSDOF 8
