REMARK  Name = ZINC38689190
REMARK  8 active torsions:
REMARK  status: ('A' for Active; 'I' for Inactive)
REMARK    1  A    between atoms: C_1  and  C_2
REMARK    2  A    between atoms: C_8  and  C_24
REMARK    3  A    between atoms: C_10  and  N_12
REMARK    4  A    between atoms: C_13  and  C_15
REMARK    5  A    between atoms: C_15  and  N_16
REMARK    6  A    between atoms: C_20  and  C_23
REMARK    7  A    between atoms: C_24  and  O_26
REMARK    8  A    between atoms: O_26  and  C_27
REMARK                            x       y       z     vdW  Elec       q    Type
REMARK                         _______ _______ _______ _____ _____    ______ ____
ROOT
ATOM      1  C   UNL     1       0.684  -0.688   5.458  0.00  0.00    +0.044 C 
ATOM      2  C   UNL     1       0.592  -1.829   4.478  0.00  0.00    -0.040 A 
ATOM      3  C   UNL     1       1.070  -3.053   4.810  0.00  0.00    +0.004 A 
ATOM      4  C   UNL     1       1.000  -4.133   3.925  0.00  0.00    +0.002 A 
ATOM      5  C   UNL     1       0.452  -4.013   2.692  0.00  0.00    +0.026 A 
ATOM      6  C   UNL     1      -0.071  -2.763   2.270  0.00  0.00    +0.045 A 
ATOM      7  N   UNL     1      -0.644  -2.393   1.143  0.00  0.00    -0.367 N 
ATOM      8  C   UNL     1      -1.001  -0.973   1.230  0.00  0.00    +0.234 C 
ATOM      9  C   UNL     1      -0.556  -0.515   2.601  0.00  0.00    +0.053 C 
ATOM     10  C   UNL     1      -0.001  -1.629   3.208  0.00  0.00    +0.021 A 
ATOM     11  H   UNL     1      -0.804  -2.967   0.378  0.00  0.00    +0.161 HD
ENDROOT
BRANCH   9  12
ATOM     12  N   UNL     1      -0.682   0.733   3.132  0.00  0.00    -0.288 N 
ATOM     13  C   UNL     1      -1.120   1.751   2.364  0.00  0.00    +0.200 C 
ATOM     14  O   UNL     1      -1.312   1.578   1.180  0.00  0.00    -0.278 OA
ATOM     15  H   UNL     1      -0.455   0.890   4.062  0.00  0.00    +0.155 HD
BRANCH  13  16
ATOM     16  C   UNL     1      -1.373   3.103   2.979  0.00  0.00    +0.019 C 
BRANCH  16  17
ATOM     17  N   UNL     1      -1.815   4.040   1.937  0.00  0.00    +0.386 N 
ATOM     18  C   UNL     1      -0.717   4.268   0.989  0.00  0.00    -0.078 C 
ATOM     19  C   UNL     1      -1.197   5.179  -0.143  0.00  0.00    -0.018 C 
ATOM     20  C   UNL     1      -1.653   6.518   0.444  0.00  0.00    -0.001 C 
ATOM     21  C   UNL     1      -2.746   6.261   1.486  0.00  0.00    -0.031 C 
ATOM     22  C   UNL     1      -2.209   5.310   2.557  0.00  0.00    -0.075 C 
ATOM     23  C   UNL     1      -3.155   7.585   2.134  0.00  0.00    +0.005 C 
ATOM     24  H   UNL     1      -2.604   3.647   1.446  0.00  0.00    -0.081 HD
ENDBRANCH  16  17
ENDBRANCH  13  16
ENDBRANCH   9  12
BRANCH   8  25
ATOM     25  C   UNL     1      -2.491  -0.803   1.083  0.00  0.00    +0.335 C 
ATOM     26  O   UNL     1      -3.239  -1.679   1.450  0.00  0.00    -0.248 OA
BRANCH  25  27
ATOM     27  O   UNL     1      -2.989   0.321   0.543  0.00  0.00    -0.466 OA
ATOM     28  C   UNL     1      -4.410   0.414   0.434  0.00  0.00    +0.280 C 
ENDBRANCH  25  27
ENDBRANCH   8  25
TORSDOF 5
