REMARK  Name = ZINC14472291
REMARK  5 active torsions:
REMARK  status: ('A' for Active; 'I' for Inactive)
REMARK    1  A    between atoms: C_3  and  C_10
REMARK    2  A    between atoms: C_5  and  N_7
REMARK    3  A    between atoms: C_23  and  O_26
REMARK    4  A    between atoms: O_26  and  C_27
REMARK    5  A    between atoms: C_27  and  C_28
REMARK                            x       y       z     vdW  Elec       q    Type
REMARK                         _______ _______ _______ _____ _____    ______ ____
ROOT
ATOM      1  C   UNL     1       5.906   5.721   2.036  0.00  0.00    +0.105 C 
ATOM      2  C   UNL     1       7.368   5.690   2.488  0.00  0.00    +0.029 C 
ATOM      3  C   UNL     1       7.941   7.129   2.342  0.00  0.00    +0.033 C 
ATOM      4  C   UNL     1       8.303   7.219   0.873  0.00  0.00    -0.030 C 
ATOM      5  C   UNL     1       8.454   6.022   0.363  0.00  0.00    -0.023 C 
ATOM      6  C   UNL     1       8.207   4.964   1.414  0.00  0.00    +0.049 C 
ATOM      7  C   UNL     1       7.464   3.800   0.830  0.00  0.00    -0.016 A 
ATOM      8  C   UNL     1       8.153   2.950  -0.028  0.00  0.00    +0.006 A 
ATOM      9  C   UNL     1       7.526   1.863  -0.599  0.00  0.00    +0.004 A 
ATOM     10  C   UNL     1       6.197   1.603  -0.318  0.00  0.00    +0.047 A 
ATOM     11  C   UNL     1       5.499   2.443   0.530  0.00  0.00    +0.142 A 
ATOM     12  C   UNL     1       6.135   3.546   1.111  0.00  0.00    +0.074 A 
ATOM     13  N   UNL     1       5.388   4.355   1.971  0.00  0.00    -0.334 N 
ATOM     14  H   UNL     1       4.412   4.350   1.714  0.00  0.00    +0.147 HD
ENDROOT
BRANCH   1  17
ATOM     15  C   UNL     1       3.932   6.676   5.109  0.00  0.00    +0.003 A 
ATOM     16  C   UNL     1       4.678   5.943   4.206  0.00  0.00    +0.005 A 
ATOM     17  C   UNL     1       5.093   6.521   3.021  0.00  0.00    -0.025 A 
ATOM     18  C   UNL     1       4.766   7.835   2.742  0.00  0.00    +0.038 A 
ATOM     19  C   UNL     1       4.016   8.567   3.643  0.00  0.00    +0.127 A 
ATOM     20  C   UNL     1       3.601   7.988   4.828  0.00  0.00    +0.033 A 
BRANCH  19  21
ATOM     21  N   UNL     1       3.661   9.972   3.342  0.00  0.00    +0.056 N 
ATOM     22  O   UNL     1       3.003  10.618   4.137  0.00  0.00    -0.126 OA
ATOM     23  O   UNL     1       4.027  10.482   2.298  0.00  0.00    -0.126 OA
ENDBRANCH  19  21
ENDBRANCH   1  17
BRANCH  11  24
ATOM     24  O   UNL     1       4.191   2.194   0.804  0.00  0.00    -0.488 OA
BRANCH  24  25
ATOM     25  C   UNL     1       3.603   1.053   0.178  0.00  0.00    +0.260 C 
BRANCH  25  26
ATOM     26  C   UNL     1       2.138   0.935   0.603  0.00  0.00    +0.156 C 
ATOM     27  C   UNL     1       1.508  -0.363   0.039  0.00  0.00    +0.037 C 
ATOM     28  C   UNL     1       0.002  -0.004   0.002  0.00  0.00    +0.031 C 
ATOM     29  C   UNL     1      -0.019   1.537   0.011  0.00  0.00    +0.160 C 
ATOM     30  O   UNL     1       1.348   1.983  -0.000  0.00  0.00    -0.373 OA
ENDBRANCH  25  26
ENDBRANCH  24  25
ENDBRANCH  11  24
TORSDOF 5
