REMARK  Name = ZINC13679466
REMARK  9 active torsions:
REMARK  status: ('A' for Active; 'I' for Inactive)
REMARK    1  A    between atoms: C_1  and  C_2
REMARK    2  A    between atoms: C_7  and  C_8
REMARK    3  A    between atoms: C_8  and  S_9
REMARK    4  A    between atoms: S_9  and  C_10
REMARK    5  A    between atoms: C_10  and  C_11
REMARK    6  A    between atoms: C_11  and  N_12
REMARK    7  A    between atoms: C_13  and  C_15
REMARK    8  A    between atoms: N_18  and  S_26
REMARK    9  A    between atoms: S_26  and  C_29
REMARK                            x       y       z     vdW  Elec       q    Type
REMARK                         _______ _______ _______ _____ _____    ______ ____
ROOT
ATOM      1  C   UNL     1       0.179  -2.617  -0.627  0.00  0.00    +0.277 C 
ATOM      2  C   UNL     1      -1.106  -2.191   0.096  0.00  0.00    +0.186 C 
ATOM      3  N   UNL     1      -1.203  -0.724   0.004  0.00  0.00    -0.195 N 
ATOM      4  C   UNL     1      -0.030   0.021   0.201  0.00  0.00    +0.093 A 
ATOM      5  C   UNL     1      -0.102   1.389   0.408  0.00  0.00    +0.028 A 
ATOM      6  C   UNL     1       1.056   2.120   0.596  0.00  0.00    +0.002 A 
ATOM      7  C   UNL     1       2.285   1.487   0.577  0.00  0.00    +0.004 A 
ATOM      8  C   UNL     1       2.363   0.122   0.371  0.00  0.00    +0.047 A 
ATOM      9  C   UNL     1       1.206  -0.619   0.183  0.00  0.00    +0.144 A 
ATOM     10  O   UNL     1       1.292  -1.962  -0.014  0.00  0.00    -0.476 OA
ENDROOT
BRANCH   1  12
ATOM     11  N   UNL     1      -0.530  -4.935  -1.119  0.00  0.00    -0.311 N 
ATOM     12  C   UNL     1       0.351  -4.111  -0.519  0.00  0.00    +0.255 C 
ATOM     13  O   UNL     1       1.283  -4.570   0.107  0.00  0.00    -0.272 OA
ATOM     14  H   UNL     1      -1.275  -4.568  -1.619  0.00  0.00    +0.149 HD
BRANCH  11  15
ATOM     15  C   UNL     1      -0.363  -6.387  -1.014  0.00  0.00    +0.115 C 
BRANCH  15  16
ATOM     16  C   UNL     1      -1.490  -7.086  -1.778  0.00  0.00    +0.088 C 
BRANCH  16  17
ATOM     17  S   UNL     1      -1.283  -8.884  -1.648  0.00  0.00    -0.155 S 
BRANCH  17  18
ATOM     18  C   UNL     1      -2.678  -9.555  -2.593  0.00  0.00    +0.104 C 
BRANCH  18  25
ATOM     19  C   UNL     1      -4.027 -11.010  -0.493  0.00  0.00    +0.044 C 
ATOM     20  C   UNL     1      -3.270 -11.757  -1.561  0.00  0.00    -0.046 A 
ATOM     21  C   UNL     1      -3.222 -13.139  -1.536  0.00  0.00    +0.003 A 
ATOM     22  C   UNL     1      -2.528 -13.824  -2.516  0.00  0.00    +0.000 A 
ATOM     23  C   UNL     1      -1.883 -13.127  -3.521  0.00  0.00    +0.000 A 
ATOM     24  C   UNL     1      -1.935 -11.746  -3.549  0.00  0.00    +0.005 A 
ATOM     25  C   UNL     1      -2.625 -11.061  -2.566  0.00  0.00    -0.035 A 
ENDBRANCH  18  25
ENDBRANCH  17  18
ENDBRANCH  16  17
ENDBRANCH  15  16
ENDBRANCH  11  15
ENDBRANCH   1  12
BRANCH   3  26
ATOM     26  S   UNL     1      -2.646   0.020  -0.321  0.00  0.00    +0.075 S 
ATOM     27  O   UNL     1      -2.335   1.238  -0.984  0.00  0.00    -0.150 OA
ATOM     28  O   UNL     1      -3.491  -0.966  -0.897  0.00  0.00    -0.150 OA
BRANCH  26  29
ATOM     29  C   UNL     1      -3.366   0.459   1.226  0.00  0.00    +0.109 A 
ATOM     30  C   UNL     1      -4.209  -0.427   1.872  0.00  0.00    +0.030 A 
ATOM     31  C   UNL     1      -4.769  -0.086   3.088  0.00  0.00    +0.022 A 
ATOM     32  C   UNL     1      -4.496   1.147   3.654  0.00  0.00    +0.041 A 
ATOM     33  C   UNL     1      -3.657   2.035   3.005  0.00  0.00    +0.022 A 
ATOM     34  C   UNL     1      -3.092   1.690   1.791  0.00  0.00    +0.030 A 
ATOM     35 CL   UNL     1      -5.205   1.579   5.179  0.00  0.00    -0.084 Cl
ENDBRANCH  26  29
ENDBRANCH   3  26
TORSDOF 8
