REMARK  Name = ZINC29134215
REMARK  8 active torsions:
REMARK  status: ('A' for Active; 'I' for Inactive)
REMARK    1  A    between atoms: C_1  and  C_2
REMARK    2  A    between atoms: C_2  and  C_3
REMARK    3  A    between atoms: C_2  and  C_4
REMARK    4  A    between atoms: C_6  and  C_9
REMARK    5  A    between atoms: C_9  and  S_10
REMARK    6  A    between atoms: S_10  and  C_11
REMARK    7  A    between atoms: N_24  and  C_25
REMARK    8  A    between atoms: C_25  and  C_26
REMARK                            x       y       z     vdW  Elec       q    Type
REMARK                         _______ _______ _______ _____ _____    ______ ____
ROOT
ATOM      1  C   UNL     1       2.098   0.647  -0.015  0.00  0.00    +0.198 A 
ATOM      2  N   UNL     1       1.338  -0.422  -0.013  0.00  0.00    -0.120 NA
ATOM      3  N   UNL     1       0.002  -0.004   0.002  0.00  0.00    -0.109 NA
ATOM      4  C   UNL     1      -0.016   1.310   0.009  0.00  0.00    +0.240 A 
ATOM      5  N   UNL     1       1.281   1.746  -0.001  0.00  0.00    -0.256 N 
ATOM      6  C   UNL     1       1.571   3.108   0.004  0.00  0.00    +0.064 A 
ATOM      7  C   UNL     1       2.882   3.560  -0.005  0.00  0.00    +0.027 A 
ATOM      8  C   UNL     1       3.141   4.916   0.000  0.00  0.00    +0.002 A 
ATOM      9  C   UNL     1       2.102   5.833   0.016  0.00  0.00    +0.001 A 
ATOM     10  C   UNL     1       0.792   5.402   0.025  0.00  0.00    +0.015 A 
ATOM     11  C   UNL     1       0.517   4.035   0.020  0.00  0.00    +0.064 A 
ATOM     12  C   UNL     1      -0.869   3.533   0.030  0.00  0.00    +0.263 A 
ATOM     13  O   UNL     1      -1.807   4.307   0.043  0.00  0.00    -0.267 OA
ATOM     14  N   UNL     1      -1.078   2.201   0.019  0.00  0.00    -0.273 N 
ENDROOT
BRANCH   1  15
ATOM     15  S   UNL     1       3.859   0.665  -0.031  0.00  0.00    -0.076 S 
BRANCH  15  16
ATOM     16  C   UNL     1       4.317  -1.090  -0.044  0.00  0.00    +0.176 C 
BRANCH  16  19
ATOM     17  C   UNL     1       7.853  -1.393   0.493  0.00  0.00    +0.174 A 
ATOM     18  N   UNL     1       6.606  -1.289   0.986  0.00  0.00    -0.195 NA
ATOM     19  C   UNL     1       5.818  -1.218  -0.059  0.00  0.00    +0.238 A 
ATOM     20  O   UNL     1       6.600  -1.286  -1.141  0.00  0.00    -0.337 OA
ATOM     21  N   UNL     1       7.761  -1.380  -0.803  0.00  0.00    -0.061 NA
BRANCH  17  23
ATOM     22  C   UNL     1       9.831  -2.817   0.953  0.00  0.00    +0.015 C 
ATOM     23  C   UNL     1       9.123  -1.505   1.296  0.00  0.00    +0.054 C 
ATOM     24  C   UNL     1      10.043  -0.328   0.962  0.00  0.00    +0.015 C 
ENDBRANCH  17  23
ENDBRANCH  16  19
ENDBRANCH  15  16
ENDBRANCH   1  15
BRANCH  14  25
ATOM     25  C   UNL     1      -2.450   1.687   0.022  0.00  0.00    +0.155 C 
BRANCH  25  26
ATOM     26  C   UNL     1      -2.914   1.502   1.444  0.00  0.00    -0.013 C 
ATOM     27  C   UNL     1      -4.018   2.078   1.853  0.00  0.00    +0.005 C 
ENDBRANCH  25  26
ENDBRANCH  14  25
TORSDOF 6
