REMARK  Name = ZINC20610148
REMARK  6 active torsions:
REMARK  status: ('A' for Active; 'I' for Inactive)
REMARK    1  A    between atoms: C_1  and  C_2
REMARK    2  A    between atoms: C_18  and  C_20
REMARK    3  A    between atoms: C_20  and  N_21
REMARK    4  A    between atoms: N_24  and  C_27
REMARK    5  A    between atoms: C_27  and  C_28
REMARK    6  A    between atoms: C_27  and  C_34
REMARK                            x       y       z     vdW  Elec       q    Type
REMARK                         _______ _______ _______ _____ _____    ______ ____
ROOT
ATOM      1  N   UNL     1      -8.259  -1.017  -2.959  0.00  0.00    +0.382 N 
ATOM      2  C   UNL     1      -9.333  -0.496  -3.816  0.00  0.00    -0.063 C 
ATOM      3  C   UNL     1     -10.546  -1.426  -3.732  0.00  0.00    +0.067 C 
ATOM      4  N   UNL     1     -10.991  -1.521  -2.334  0.00  0.00    -0.295 NA
ATOM      5  C   UNL     1      -9.917  -2.042  -1.477  0.00  0.00    +0.067 C 
ATOM      6  C   UNL     1      -8.704  -1.111  -1.561  0.00  0.00    -0.063 C 
ATOM      7  H   UNL     1      -8.009  -2.030  -3.305  0.00  0.00    -0.082 HD
ENDROOT
BRANCH   1   8
ATOM      8  C   UNL     1      -7.049  -0.191  -3.071  0.00  0.00    -0.064 C 
BRANCH   8  23
ATOM      9  C   UNL     1      -1.854  -2.267  -2.611  0.00  0.00    +0.011 C 
ATOM     10  C   UNL     1      -1.697  -0.750  -2.736  0.00  0.00    -0.023 C 
ATOM     11  C   UNL     1      -0.216  -0.394  -2.861  0.00  0.00    +0.007 C 
ATOM     12  C   UNL     1       0.552  -0.937  -1.654  0.00  0.00    +0.003 C 
ATOM     13  C   UNL     1       0.041  -0.262  -0.378  0.00  0.00    +0.037 C 
ATOM     14  C   UNL     1      -1.470  -0.486  -0.268  0.00  0.00    +0.096 C 
ATOM     15  C   UNL     1      -2.283  -0.065  -1.493  0.00  0.00    +0.030 C 
ATOM     16  C   UNL     1      -3.731  -0.521  -1.336  0.00  0.00    +0.014 C 
ATOM     17  C   UNL     1      -4.572  -0.077  -2.535  0.00  0.00    +0.042 C 
ATOM     18  C   UNL     1      -3.932  -0.541  -3.858  0.00  0.00    +0.181 C 
ATOM     19  C   UNL     1      -2.458  -0.235  -3.958  0.00  0.00    +0.052 C 
ATOM     20  O   UNL     1      -4.229  -1.966  -3.900  0.00  0.00    -0.461 OA
ATOM     21  C   UNL     1      -5.499  -2.120  -3.461  0.00  0.00    +0.309 C 
ATOM     22  O   UNL     1      -6.237  -3.028  -3.759  0.00  0.00    -0.251 OA
ATOM     23  C   UNL     1      -5.848  -0.972  -2.533  0.00  0.00    +0.088 C 
ATOM     24  C   UNL     1      -1.957  -1.689   0.537  0.00  0.00    +0.196 C 
ATOM     25  O   UNL     1      -2.074  -0.348   1.017  0.00  0.00    -0.368 OA
ENDBRANCH   8  23
ENDBRANCH   1   8
BRANCH   4  26
ATOM     26  C   UNL     1     -12.201  -2.346  -2.222  0.00  0.00    +0.117 C 
BRANCH  26  27
ATOM     27  C   UNL     1     -12.657  -2.377  -0.786  0.00  0.00    -0.026 A 
ATOM     28  C   UNL     1     -12.618  -1.224  -0.024  0.00  0.00    +0.005 A 
ATOM     29  C   UNL     1     -13.040  -1.251   1.292  0.00  0.00    +0.000 A 
ATOM     30  C   UNL     1     -13.492  -2.433   1.849  0.00  0.00    +0.000 A 
ATOM     31  C   UNL     1     -13.526  -3.587   1.089  0.00  0.00    +0.000 A 
ATOM     32  C   UNL     1     -13.108  -3.559  -0.229  0.00  0.00    +0.005 A 
ENDBRANCH  26  27
BRANCH  26  33
ATOM     33  C   UNL     1     -13.290  -1.760  -3.082  0.00  0.00    -0.026 A 
ATOM     34  C   UNL     1     -13.521  -0.397  -3.072  0.00  0.00    +0.005 A 
ATOM     35  C   UNL     1     -14.518   0.141  -3.865  0.00  0.00    +0.000 A 
ATOM     36  C   UNL     1     -15.289  -0.685  -4.661  0.00  0.00    +0.000 A 
ATOM     37  C   UNL     1     -15.062  -2.048  -4.667  0.00  0.00    +0.000 A 
ATOM     38  C   UNL     1     -14.062  -2.586  -3.878  0.00  0.00    +0.005 A 
ENDBRANCH  26  33
ENDBRANCH   4  26
TORSDOF 5
