REMARK  Name = ZINC15314687
REMARK  7 active torsions:
REMARK  status: ('A' for Active; 'I' for Inactive)
REMARK    1  A    between atoms: C_1  and  C_2
REMARK    2  A    between atoms: C_2  and  C_3
REMARK    3  A    between atoms: C_8  and  N_9
REMARK    4  A    between atoms: C_12  and  C_17
REMARK    5  A    between atoms: C_17  and  N_18
REMARK    6  A    between atoms: C_24  and  C_27
REMARK    7  A    between atoms: C_27  and  C_28
REMARK                            x       y       z     vdW  Elec       q    Type
REMARK                         _______ _______ _______ _____ _____    ______ ____
ROOT
ATOM      1  N   UNL     1      -3.301   0.501   3.454  0.00  0.00    -0.283 N 
ATOM      2  C   UNL     1      -2.298   1.264   2.888  0.00  0.00    +0.224 A 
ATOM      3  N   UNL     1      -1.661   0.830   1.803  0.00  0.00    -0.198 NA
ATOM      4  C   UNL     1      -0.702   1.560   1.261  0.00  0.00    +0.154 A 
ATOM      5  N   UNL     1      -0.367   2.721   1.797  0.00  0.00    -0.198 NA
ATOM      6  C   UNL     1      -1.003   3.164   2.880  0.00  0.00    +0.217 A 
ATOM      7  N   UNL     1      -1.968   2.433   3.427  0.00  0.00    -0.181 NA
ATOM      8  N   UNL     1      -0.656   4.378   3.436  0.00  0.00    -0.327 N 
ATOM      9  H   UNL     1      -3.600  -0.310   3.013  0.00  0.00    +0.155 HD
ATOM     10  H   UNL     1      -1.117   4.699   4.227  0.00  0.00    +0.145 HD
ATOM     11  H   UNL     1       0.048   4.912   3.035  0.00  0.00    +0.145 HD
ENDROOT
BRANCH   1  17
ATOM     12  C   UNL     1      -5.170   0.480   4.982  0.00  0.00    -0.026 A 
ATOM     13  C   UNL     1      -5.744   0.873   6.175  0.00  0.00    +0.005 A 
ATOM     14  C   UNL     1      -5.039   1.679   7.051  0.00  0.00    +0.000 A 
ATOM     15  C   UNL     1      -3.759   2.095   6.734  0.00  0.00    +0.002 A 
ATOM     16  C   UNL     1      -3.178   1.702   5.545  0.00  0.00    +0.023 A 
ATOM     17  C   UNL     1      -3.885   0.896   4.661  0.00  0.00    +0.037 A 
BRANCH  12  19
ATOM     18  C   UNL     1      -5.563  -1.862   4.268  0.00  0.00    +0.009 C 
ATOM     19  C   UNL     1      -5.938  -0.398   4.028  0.00  0.00    +0.033 C 
ENDBRANCH  12  19
ENDBRANCH   1  17
BRANCH   4  20
ATOM     20  C   UNL     1       0.017   1.064   0.033  0.00  0.00    +0.194 C 
BRANCH  20  21
ATOM     21  N   UNL     1      -0.682   1.535  -1.165  0.00  0.00    -0.217 N 
ATOM     22  C   UNL     1      -1.669   0.854  -1.784  0.00  0.00    +0.247 C 
ATOM     23  O   UNL     1      -2.128  -0.223  -1.468  0.00  0.00    -0.273 OA
ATOM     24  C   UNL     1      -2.083   1.717  -2.953  0.00  0.00    +0.113 C 
ATOM     25  C   UNL     1      -1.851   0.976  -4.265  0.00  0.00    +0.035 C 
ATOM     26  C   UNL     1      -2.240   1.878  -5.439  0.00  0.00    +0.006 C 
ATOM     27  C   UNL     1      -3.713   2.274  -5.310  0.00  0.00    -0.011 C 
ATOM     28  C   UNL     1      -3.926   3.035  -4.000  0.00  0.00    +0.006 C 
ATOM     29  C   UNL     1      -3.543   2.137  -2.821  0.00  0.00    +0.035 C 
ATOM     30  N   UNL     1      -1.202   2.888  -2.862  0.00  0.00    -0.285 N 
ATOM     31  C   UNL     1      -0.418   2.692  -1.785  0.00  0.00    +0.310 C 
ATOM     32  O   UNL     1       0.435   3.476  -1.417  0.00  0.00    -0.252 OA
ATOM     33  H   UNL     1      -1.187   3.652  -3.460  0.00  0.00    +0.151 HD
BRANCH  27  34
ATOM     34  C   UNL     1      -4.105   3.167  -6.489  0.00  0.00    -0.000 C 
ATOM     35  C   UNL     1      -4.011   2.367  -7.789  0.00  0.00    +0.004 C 
ENDBRANCH  27  34
ENDBRANCH  20  21
ENDBRANCH   4  20
TORSDOF 5
