REMARK  Name = ZINC01221949
REMARK  10 active torsions:
REMARK  status: ('A' for Active; 'I' for Inactive)
REMARK    1  A    between atoms: C_1  and  C_2
REMARK    2  A    between atoms: C_7  and  C_8
REMARK    3  A    between atoms: C_8  and  C_9
REMARK    4  A    between atoms: C_9  and  N_10
REMARK    5  A    between atoms: N_10  and  C_11
REMARK    6  A    between atoms: N_10  and  S_26
REMARK    7  A    between atoms: C_11  and  C_12
REMARK    8  A    between atoms: C_16  and  O_24
REMARK    9  A    between atoms: O_24  and  C_25
REMARK   10  A    between atoms: S_26  and  C_29
REMARK                            x       y       z     vdW  Elec       q    Type
REMARK                         _______ _______ _______ _____ _____    ______ ____
ROOT
ATOM      1  N   UNL     1      -0.888   1.401  -1.173  0.00  0.00    -0.172 NA
ENDROOT
BRANCH   1   2
ATOM      2  S   UNL     1      -0.968   2.793  -2.067  0.00  0.00    +0.063 S 
ATOM      3  O   UNL     1      -2.330   2.961  -2.436  0.00  0.00    -0.153 OA
ATOM      4  O   UNL     1      -0.246   3.781  -1.345  0.00  0.00    -0.153 OA
BRANCH   2   5
ATOM      5  C   UNL     1      -0.074   2.506  -3.559  0.00  0.00    +0.134 A 
ATOM      6  C   UNL     1      -0.723   2.506  -4.747  0.00  0.00    +0.031 A 
ATOM      7  C   UNL     1      -0.048   2.283  -5.947  0.00  0.00    +0.004 A 
ATOM      8  C   UNL     1       1.287   2.055  -5.978  0.00  0.00    +0.031 A 
ATOM      9  C   UNL     1       2.032   2.040  -4.770  0.00  0.00    +0.102 A 
ATOM     10  C   UNL     1       1.326   2.279  -3.514  0.00  0.00    +0.126 A 
ATOM     11  N   UNL     1       2.146   2.243  -2.465  0.00  0.00    -0.189 NA
ATOM     12  S   UNL     1       3.576   1.955  -3.036  0.00  0.00    +0.117 S 
ATOM     13  N   UNL     1       3.334   1.837  -4.580  0.00  0.00    -0.191 NA
ENDBRANCH   2   5
ENDBRANCH   1   2
BRANCH   1  14
ATOM     14  C   UNL     1       0.208   1.203  -0.222  0.00  0.00    +0.114 C 
BRANCH  14  15
ATOM     15  C   UNL     1      -0.257   1.597   1.181  0.00  0.00    +0.052 C 
BRANCH  15  22
ATOM     16  C   UNL     1       1.901   3.454   1.675  0.00  0.00    +0.044 C 
ATOM     17  C   UNL     1       1.850   2.143   2.417  0.00  0.00    -0.047 A 
ATOM     18  C   UNL     1       2.836   1.829   3.334  0.00  0.00    +0.003 A 
ATOM     19  C   UNL     1       2.789   0.627   4.015  0.00  0.00    +0.000 A 
ATOM     20  C   UNL     1       1.757  -0.261   3.779  0.00  0.00    +0.000 A 
ATOM     21  C   UNL     1       0.768   0.055   2.865  0.00  0.00    +0.004 A 
ATOM     22  C   UNL     1       0.818   1.255   2.181  0.00  0.00    -0.043 A 
ENDBRANCH  15  22
ENDBRANCH  14  15
ENDBRANCH   1  14
BRANCH   1  23
ATOM     23  C   UNL     1      -1.915   0.368  -1.333  0.00  0.00    +0.150 C 
BRANCH  23  24
ATOM     24  C   UNL     1      -1.323  -0.821  -2.047  0.00  0.00    +0.033 A 
ATOM     25  C   UNL     1      -0.820  -1.857  -1.331  0.00  0.00    +0.020 A 
ATOM     26  C   UNL     1      -0.257  -2.999  -2.053  0.00  0.00    +0.002 A 
ATOM     27  C   UNL     1       0.271  -4.098  -1.367  0.00  0.00    +0.055 A 
ATOM     28  C   UNL     1       0.799  -5.156  -2.079  0.00  0.00    +0.121 A 
ATOM     29  C   UNL     1       0.806  -5.132  -3.472  0.00  0.00    +0.047 A 
ATOM     30  C   UNL     1       0.289  -4.056  -4.158  0.00  0.00    +0.030 A 
ATOM     31  C   UNL     1      -0.248  -2.979  -3.460  0.00  0.00    +0.049 A 
ATOM     32  N   UNL     1      -0.771  -1.892  -4.130  0.00  0.00    -0.322 N 
ATOM     33  H   UNL     1      -0.764  -1.879  -5.130  0.00  0.00    +0.169 HD
ATOM     34  C   UNL     1      -1.290  -0.850  -3.457  0.00  0.00    +0.254 A 
ATOM     35  O   UNL     1      -1.744   0.094  -4.081  0.00  0.00    -0.268 OA
BRANCH  28  36
ATOM     36  O   UNL     1       1.314  -6.226  -1.418  0.00  0.00    -0.495 OA
ATOM     37  C   UNL     1       1.845  -7.287  -2.215  0.00  0.00    +0.277 C 
ENDBRANCH  28  36
ENDBRANCH  23  24
ENDBRANCH   1  23
TORSDOF 8
