REMARK  Name = ZINC08791104
REMARK  17 active torsions:
REMARK  status: ('A' for Active; 'I' for Inactive)
REMARK    1  A    between atoms: C_1  and  C_2
REMARK    2  A    between atoms: C_2  and  CA_3
REMARK    3  A    between atoms: CA_3  and  C_5
REMARK    4  A    between atoms: CA_3  and  N_16
REMARK    5  A    between atoms: N_7  and  CA_8
REMARK    6  A    between atoms: CA_8  and  CB_10
REMARK    7  A    between atoms: CA_8  and  C_14
REMARK    8  A    between atoms: CB_10  and  CG_11
REMARK    9  A    between atoms: CG_11  and  SD_12
REMARK   10  A    between atoms: SD_12  and  CE_13
REMARK   11  A    between atoms: C_17  and  C_19
REMARK   12  A    between atoms: C_19  and  C_20
REMARK   13  A    between atoms: C_21  and  C_35
REMARK   14  A    between atoms: C_25  and  O_30
REMARK   15  A    between atoms: C_27  and  O_28
REMARK   16  A    between atoms: O_28  and  C_29
REMARK   17  A    between atoms: O_30  and  C_31
REMARK                            x       y       z     vdW  Elec       q    Type
REMARK                         _______ _______ _______ _____ _____    ______ ____
ROOT
ATOM      1  N   MET A   1      -1.417  11.394   0.720  0.00  0.00    -0.304 N 
ATOM      2  C   UNK A   0      -1.339  10.054   0.606  0.00  0.00    +0.218 C 
ATOM      3  O   UNK A   0      -2.162   9.452  -0.052  0.00  0.00    -0.275 OA
ATOM      4  H   MET A   1      -0.760  11.875   1.246  0.00  0.00    +0.149 HD
ENDROOT
BRANCH   1   5
ATOM      5  CA  MET A   1      -2.495  12.125   0.048  0.00  0.00    +0.159 C 
BRANCH   5   6
ATOM      6  C   MET A   1      -2.058  13.545  -0.203  0.00  0.00    +0.234 C 
ATOM      7  O   MET A   1      -0.955  13.911   0.144  0.00  0.00    -0.274 OA
ATOM      8  N   MET A   1      -2.892  14.409  -0.815  0.00  0.00    -0.301 N 
ATOM      9  H   MET A   1      -3.775  14.117  -1.093  0.00  0.00    +0.150 HD
BRANCH   8  10
ATOM     10  CA  MET A   1      -2.468  15.790  -1.059  0.00  0.00    +0.187 C 
BRANCH  10  11
ATOM     11  C   MET A   1      -2.736  16.622   0.168  0.00  0.00    +0.376 C 
ATOM     12  O   MET A   1      -3.232  16.115   1.146  0.00  0.00    -0.244 OA
ATOM     13  OXT MET A   1      -2.425  17.928   0.173  0.00  0.00    -0.244 OA
ENDBRANCH  10  11
BRANCH  10  14
ATOM     14  CB  MET A   1      -3.248  16.361  -2.245  0.00  0.00    +0.044 C 
BRANCH  14  15
ATOM     15  CG  MET A   1      -2.879  15.593  -3.516  0.00  0.00    +0.071 C 
BRANCH  15  16
ATOM     16  SD  MET A   1      -3.804  16.270  -4.921  0.00  0.00    -0.164 S 
ATOM     17  CE  MET A   1      -3.261  15.265  -6.330  0.00  0.00    +0.084 C 
ENDBRANCH  15  16
ENDBRANCH  14  15
ENDBRANCH  10  14
ENDBRANCH   8  10
ENDBRANCH   5   6
BRANCH   5  19
ATOM     18  C   MET A   1      -4.258  10.693   1.088  0.00  0.00    +0.006 C 
ATOM     19  C   MET A   1      -3.741  12.125   0.935  0.00  0.00    +0.028 C 
ENDBRANCH   5  19
ENDBRANCH   1   5
BRANCH   2  20
ATOM     20  C   UNK A   0      -0.231   9.302   1.297  0.00  0.00    +0.138 C 
BRANCH  20  21
ATOM     21  C   UNK A   0      -0.370   7.828   1.013  0.00  0.00    +0.049 A 
ATOM     22  C   UNK A   0      -1.110   7.043   1.839  0.00  0.00    -0.026 A 
ATOM     23  C   UNK A   0      -1.224   5.660   1.547  0.00  0.00    +0.063 A 
ATOM     24  C   UNK A   0      -0.572   5.136   0.415  0.00  0.00    +0.146 A 
ATOM     25  C   UNK A   0      -0.680   3.786   0.126  0.00  0.00    +0.092 A 
ATOM     26  C   UNK A   0      -1.427   2.956   0.949  0.00  0.00    +0.127 A 
ATOM     27  C   UNK A   0      -2.079   3.468   2.066  0.00  0.00    +0.092 A 
ATOM     28  C   UNK A   0      -1.979   4.811   2.375  0.00  0.00    +0.134 A 
ATOM     29  O   UNK A   0       0.155   5.951  -0.382  0.00  0.00    -0.422 OA
ATOM     30  C   UNK A   0       0.266   7.263  -0.110  0.00  0.00    +0.341 A 
ATOM     31  O   UNK A   0       0.927   7.974  -0.845  0.00  0.00    -0.245 OA
ATOM     32  C   UNK A   0      -1.797   7.631   3.044  0.00  0.00    +0.045 C 
BRANCH  28  33
ATOM     33  O   UNK A   0      -2.611   5.308   3.468  0.00  0.00    -0.494 OA
ATOM     34  C   UNK A   0      -3.358   4.385   4.262  0.00  0.00    +0.277 C 
ENDBRANCH  28  33
BRANCH  26  35
ATOM     35  O   UNK A   0      -1.528   1.634   0.658  0.00  0.00    -0.495 OA
ATOM     36  C   UNK A   0      -0.841   1.171  -0.506  0.00  0.00    +0.277 C 
ENDBRANCH  26  35
ENDBRANCH  20  21
ENDBRANCH   2  20
TORSDOF 12
