REMARK  Name = ZINC13300759
REMARK  8 active torsions:
REMARK  status: ('A' for Active; 'I' for Inactive)
REMARK    1  A    between atoms: C_3  and  N_16
REMARK    2  A    between atoms: C_6  and  C_7
REMARK    3  A    between atoms: C_7  and  O_8
REMARK    4  A    between atoms: O_8  and  C_9
REMARK    5  A    between atoms: N_16  and  S_17
REMARK    6  A    between atoms: S_17  and  C_20
REMARK    7  A    between atoms: C_23  and  C_26
REMARK    8  A    between atoms: C_27  and  C_28
REMARK                            x       y       z     vdW  Elec       q    Type
REMARK                         _______ _______ _______ _____ _____    ______ ____
ROOT
ATOM      1  N   UNL     1       3.089   4.194  -1.528  0.00  0.00    -0.216 N 
ATOM      2  H   UNL     1       3.159   3.231  -1.620  0.00  0.00    +0.174 HD
ENDROOT
BRANCH   1   5
ATOM      3  C   UNL     1       2.136   6.422  -4.291  0.00  0.00    +0.009 A 
ATOM      4  C   UNL     1       2.913   5.701  -3.406  0.00  0.00    +0.025 A 
ATOM      5  C   UNL     1       2.307   4.926  -2.425  0.00  0.00    +0.048 A 
ATOM      6  C   UNL     1       0.921   4.875  -2.342  0.00  0.00    +0.025 A 
ATOM      7  C   UNL     1       0.151   5.604  -3.227  0.00  0.00    +0.009 A 
ATOM      8  C   UNL     1       0.757   6.374  -4.202  0.00  0.00    -0.010 A 
BRANCH   8   9
ATOM      9  C   UNL     1      -0.087   7.163  -5.170  0.00  0.00    +0.264 C 
BRANCH   9  10
ATOM     10  O   UNL     1      -0.371   6.361  -6.318  0.00  0.00    -0.487 OA
BRANCH  10  11
ATOM     11  C   UNL     1      -1.128   6.928  -7.294  0.00  0.00    +0.121 A 
ATOM     12  C   UNL     1      -1.592   8.227  -7.148  0.00  0.00    +0.047 A 
ATOM     13  C   UNL     1      -2.356   8.803  -8.144  0.00  0.00    +0.019 A 
ATOM     14  C   UNL     1      -2.668   8.081  -9.282  0.00  0.00    +0.018 A 
ATOM     15  C   UNL     1      -2.211   6.783  -9.428  0.00  0.00    +0.019 A 
ATOM     16  C   UNL     1      -1.442   6.206  -8.437  0.00  0.00    +0.047 A 
ATOM     17 BR   UNL     1      -3.720   8.870 -10.641  0.00  0.00    -0.050 Br
ENDBRANCH  10  11
ENDBRANCH   9  10
ENDBRANCH   8   9
ENDBRANCH   1   5
BRANCH   1  18
ATOM     18  S   UNL     1       3.895   4.971  -0.308  0.00  0.00    +0.072 S 
ATOM     19  O   UNL     1       4.609   6.042  -0.911  0.00  0.00    -0.150 OA
ATOM     20  O   UNL     1       4.539   3.963   0.459  0.00  0.00    -0.150 OA
BRANCH  18  21
ATOM     21  C   UNL     1       2.680   5.702   0.737  0.00  0.00    +0.109 A 
ATOM     22  C   UNL     1       2.090   4.949   1.738  0.00  0.00    +0.029 A 
ATOM     23  C   UNL     1       1.138   5.513   2.560  0.00  0.00    +0.010 A 
ATOM     24  C   UNL     1       0.764   6.848   2.377  0.00  0.00    -0.025 A 
ATOM     25  C   UNL     1       1.368   7.604   1.367  0.00  0.00    +0.010 A 
ATOM     26  C   UNL     1       2.319   7.025   0.553  0.00  0.00    +0.029 A 
BRANCH  24  27
ATOM     27  C   UNL     1      -0.256   7.456   3.246  0.00  0.00    +0.015 C 
ATOM     28  C   UNL     1      -0.615   8.745   3.067  0.00  0.00    +0.096 C 
BRANCH  28  29
ATOM     29  C   UNL     1      -1.628   9.349   3.930  0.00  0.00    +0.380 C 
ATOM     30  O   UNL     1      -2.148   8.690   4.810  0.00  0.00    -0.241 OA
ATOM     31  O   UNL     1      -1.986  10.637   3.751  0.00  0.00    -0.241 OA
ENDBRANCH  28  29
ENDBRANCH  24  27
ENDBRANCH  18  21
ENDBRANCH   1  18
TORSDOF 8
