REMARK  Name = ZINC40896103
REMARK  13 active torsions:
REMARK  status: ('A' for Active; 'I' for Inactive)
REMARK    1  A    between atoms: C_1  and  C_2
REMARK    2  A    between atoms: C_2  and  C_3
REMARK    3  A    between atoms: C_2  and  N_4
REMARK    4  A    between atoms: C_5  and  C_7
REMARK    5  A    between atoms: C_12  and  O_18
REMARK    6  A    between atoms: O_18  and  C_19
REMARK    7  A    between atoms: C_19  and  C_21
REMARK    8  A    between atoms: C_21  and  O_22
REMARK    9  A    between atoms: O_22  and  C_23
REMARK   10  A    between atoms: C_28  and  C_29
REMARK   11  A    between atoms: C_29  and  C_30
REMARK   12  A    between atoms: C_29  and  C_31
REMARK   13  A    between atoms: C_29  and  C_32
REMARK                            x       y       z     vdW  Elec       q    Type
REMARK                         _______ _______ _______ _____ _____    ______ ____
ROOT
ATOM      1  C   UNL     1      -0.088   0.222   4.758  0.00  0.00    +0.122 A 
ATOM      2  C   UNL     1       0.225  -1.132   4.754  0.00  0.00    +0.031 A 
ATOM      3  C   UNL     1       0.923  -1.659   5.867  0.00  0.00    +0.019 A 
ATOM      4  C   UNL     1       1.440  -2.964   5.830  0.00  0.00    +0.015 A 
ATOM      5  C   UNL     1       2.146  -3.445   6.892  0.00  0.00    +0.047 A 
ATOM      6  C   UNL     1       2.355  -2.652   8.021  0.00  0.00    +0.135 A 
ATOM      7  C   UNL     1       1.837  -1.369   8.084  0.00  0.00    +0.093 A 
ATOM      8  C   UNL     1       1.110  -0.866   7.017  0.00  0.00    +0.143 A 
ATOM      9  O   UNL     1       0.561   0.371   7.085  0.00  0.00    -0.422 OA
ATOM     10  C   UNL     1       0.368   1.019   5.910  0.00  0.00    +0.350 A 
ATOM     11  O   UNL     1       0.561   2.217   5.810  0.00  0.00    -0.244 OA
ENDROOT
BRANCH   1  13
ATOM     12  N   UNL     1      -1.124   2.155   3.681  0.00  0.00    -0.309 N 
ATOM     13  C   UNL     1      -0.840   0.838   3.652  0.00  0.00    +0.251 C 
ATOM     14  O   UNL     1      -1.205   0.157   2.713  0.00  0.00    -0.270 OA
ATOM     15  H   UNL     1      -0.833   2.697   4.431  0.00  0.00    +0.149 HD
BRANCH  12  17
ATOM     16  C   UNL     1      -3.373   2.588   2.822  0.00  0.00    +0.027 C 
ATOM     17  C   UNL     1      -1.872   2.767   2.581  0.00  0.00    +0.067 C 
ATOM     18  C   UNL     1      -1.542   4.259   2.507  0.00  0.00    +0.027 C 
ENDBRANCH  12  17
ENDBRANCH   1  13
BRANCH   6  19
ATOM     19  O   UNL     1       3.071  -3.143   9.065  0.00  0.00    -0.423 OA
BRANCH  19  20
ATOM     20  C   UNL     1       2.417  -3.406  10.208  0.00  0.00    +0.350 C 
ATOM     21  O   UNL     1       1.214  -3.306  10.254  0.00  0.00    -0.247 OA
BRANCH  20  22
ATOM     22  C   UNL     1       3.185  -3.828  11.435  0.00  0.00    +0.349 C 
BRANCH  22  23
ATOM     23  O   UNL     1       2.275  -4.049  12.514  0.00  0.00    -0.480 OA
BRANCH  23  24
ATOM     24  C   UNL     1       2.809  -4.437  13.702  0.00  0.00    +0.125 A 
ATOM     25  C   UNL     1       4.181  -4.596  13.828  0.00  0.00    +0.047 A 
ATOM     26  C   UNL     1       4.722  -4.991  15.036  0.00  0.00    +0.019 A 
ATOM     27  C   UNL     1       3.896  -5.228  16.120  0.00  0.00    +0.018 A 
ATOM     28  C   UNL     1       2.527  -5.070  15.997  0.00  0.00    +0.023 A 
ATOM     29  C   UNL     1       1.983  -4.670  14.792  0.00  0.00    +0.001 A 
ATOM     30 BR   UNL     1       4.639  -5.768  17.773  0.00  0.00    -0.050 Br
BRANCH  29  31
ATOM     31  C   UNL     1       0.492  -4.491  14.660  0.00  0.00    -0.009 C 
ATOM     32  C   UNL     1      -0.179  -4.808  15.997  0.00  0.00    +0.015 C 
ATOM     33  C   UNL     1       0.185  -3.045  14.265  0.00  0.00    +0.015 C 
ATOM     34  C   UNL     1      -0.042  -5.438  13.584  0.00  0.00    +0.015 C 
ENDBRANCH  29  31
ENDBRANCH  23  24
ENDBRANCH  22  23
ENDBRANCH  20  22
ENDBRANCH  19  20
ENDBRANCH   6  19
TORSDOF 8
