REMARK  Name = ZINC34702160
REMARK  12 active torsions:
REMARK  status: ('A' for Active; 'I' for Inactive)
REMARK    1  A    between atoms: C_1  and  C_2
REMARK    2  A    between atoms: C_2  and  O_3
REMARK    3  A    between atoms: O_3  and  C_4
REMARK    4  A    between atoms: C_4  and  C_6
REMARK    5  A    between atoms: C_7  and  C_33
REMARK    6  A    between atoms: C_8  and  C_32
REMARK    7  A    between atoms: C_10  and  N_11
REMARK    8  A    between atoms: C_12  and  C_14
REMARK    9  A    between atoms: C_14  and  C_30
REMARK   10  A    between atoms: C_15  and  C_16
REMARK   11  A    between atoms: N_20  and  C_21
REMARK   12  A    between atoms: C_24  and  N_27
REMARK                            x       y       z     vdW  Elec       q    Type
REMARK                         _______ _______ _______ _____ _____    ______ ____
ROOT
ATOM      1  C   UNL     1      -3.268  -3.329   4.562  0.00  0.00    +0.116 C 
ATOM      2  C   UNL     1      -4.067  -3.188   5.686  0.00  0.00    +0.050 C 
ENDROOT
BRANCH   2   3
ATOM      3  C   UNL     1      -5.428  -3.543   5.630  0.00  0.00    +0.048 A 
ATOM      4  C   UNL     1      -6.075  -4.453   6.456  0.00  0.00    +0.027 A 
ATOM      5  C   UNL     1      -7.409  -4.495   6.052  0.00  0.00    +0.020 A 
ATOM      6  C   UNL     1      -7.561  -3.635   5.013  0.00  0.00    +0.092 A 
ATOM      7  N   UNL     1      -6.367  -3.045   4.749  0.00  0.00    -0.316 N 
BRANCH   7   8
ATOM      8  C   UNL     1      -6.128  -2.094   3.749  0.00  0.00    +0.047 A 
ATOM      9  C   UNL     1      -5.585  -0.860   4.079  0.00  0.00    +0.028 A 
ATOM     10  C   UNL     1      -5.350   0.076   3.091  0.00  0.00    +0.035 A 
ATOM     11  C   UNL     1      -5.656  -0.215   1.774  0.00  0.00    +0.126 A 
ATOM     12  C   UNL     1      -6.197  -1.444   1.442  0.00  0.00    +0.035 A 
ATOM     13  C   UNL     1      -6.428  -2.386   2.425  0.00  0.00    +0.028 A 
BRANCH  11  14
ATOM     14  N   UNL     1      -5.404   0.790   0.717  0.00  0.00    +0.056 N 
ATOM     15  O   UNL     1      -4.846   1.828   0.991  0.00  0.00    -0.126 OA
ATOM     16  O   UNL     1      -5.756   0.575  -0.419  0.00  0.00    -0.126 OA
ENDBRANCH  11  14
ENDBRANCH   7   8
ENDBRANCH   2   3
BRANCH   1  18
ATOM     17  N   UNL     1      -3.069  -4.003   2.226  0.00  0.00    -0.275 N 
ATOM     18  C   UNL     1      -3.804  -3.971   3.356  0.00  0.00    +0.259 C 
ATOM     19  O   UNL     1      -4.912  -4.474   3.376  0.00  0.00    -0.269 OA
ATOM     20  H   UNL     1      -2.157  -3.673   2.231  0.00  0.00    +0.156 HD
BRANCH  17  25
ATOM     21  C   UNL     1      -3.052  -4.527  -0.210  0.00  0.00    +0.091 A 
ATOM     22  C   UNL     1      -3.845  -5.126  -1.260  0.00  0.00    -0.025 A 
ATOM     23  C   UNL     1      -5.050  -5.596  -0.889  0.00  0.00    -0.008 A 
ATOM     24  S   UNL     1      -5.114  -5.236   0.852  0.00  0.00    -0.078 S 
ATOM     25  C   UNL     1      -3.616  -4.508   1.059  0.00  0.00    +0.087 A 
ATOM     26  C   UNL     1      -6.095  -6.266  -1.744  0.00  0.00    +0.052 C 
ATOM     27  C   UNL     1      -3.353  -5.218  -2.681  0.00  0.00    +0.045 C 
BRANCH  21  28
ATOM     28  C   UNL     1      -1.722  -3.974  -0.470  0.00  0.00    +0.342 C 
ATOM     29  O   UNL     1      -0.739  -4.684  -0.372  0.00  0.00    -0.245 OA
BRANCH  28  30
ATOM     30  O   UNL     1      -1.586  -2.678  -0.817  0.00  0.00    -0.461 OA
BRANCH  30  32
ATOM     31  C   UNL     1      -0.304  -0.725  -1.435  0.00  0.00    +0.048 C 
ATOM     32  C   UNL     1      -0.258  -2.206  -1.056  0.00  0.00    +0.229 C 
ENDBRANCH  30  32
ENDBRANCH  28  30
ENDBRANCH  21  28
ENDBRANCH  17  25
ENDBRANCH   1  18
BRANCH   1  33
ATOM     33  C   UNL     1      -1.919  -2.849   4.578  0.00  0.00    +0.104 C 
ATOM     34  N   UNL     1      -0.849  -2.468   4.590  0.00  0.00    -0.191 NA
ENDBRANCH   1  33
TORSDOF 9
