REMARK  Name = ZINC16429645
REMARK  16 active torsions:
REMARK  status: ('A' for Active; 'I' for Inactive)
REMARK    1  A    between atoms: C_1  and  C_2
REMARK    2  A    between atoms: C_2  and  C_4
REMARK    3  A    between atoms: C_2  and  C_36
REMARK    4  A    between atoms: C_4  and  C_5
REMARK    5  A    between atoms: N_7  and  C_8
REMARK    6  A    between atoms: N_7  and  C_14
REMARK    7  A    between atoms: C_8  and  C_9
REMARK    8  A    between atoms: C_14  and  C_16
REMARK    9  A    between atoms: C_14  and  C_17
REMARK   10  A    between atoms: N_27  and  C_28
REMARK   11  A    between atoms: C_33  and  O_34
REMARK   12  A    between atoms: O_34  and  C_35
REMARK   13  A    between atoms: C_36  and  C_37
REMARK   14  A    between atoms: C_37  and  C_38
REMARK   15  A    between atoms: C_37  and  C_39
REMARK   16  A    between atoms: C_37  and  C_40
REMARK                            x       y       z     vdW  Elec       q    Type
REMARK                         _______ _______ _______ _____ _____    ______ ____
ROOT
ATOM      1  C   UNL     1      -0.537   1.037  -3.283  0.00  0.00    +0.140 C 
ATOM      2  C   UNL     1      -1.010  -0.075  -4.222  0.00  0.00    +0.036 C 
ENDROOT
BRANCH   1   3
ATOM      3  C   UNL     1       0.728   1.650  -3.826  0.00  0.00    +0.138 A 
ATOM      4  N   UNL     1       1.728   0.866  -4.092  0.00  0.00    -0.231 NA
ATOM      5  C   UNL     1       2.896   1.346  -4.588  0.00  0.00    +0.078 A 
ATOM      6  C   UNL     1       3.970   0.502  -4.878  0.00  0.00    +0.028 A 
ATOM      7  C   UNL     1       5.139   1.033  -5.375  0.00  0.00    +0.002 A 
ATOM      8  C   UNL     1       5.264   2.399  -5.593  0.00  0.00    +0.001 A 
ATOM      9  C   UNL     1       4.219   3.252  -5.314  0.00  0.00    +0.015 A 
ATOM     10  C   UNL     1       3.027   2.735  -4.810  0.00  0.00    +0.065 A 
ATOM     11  C   UNL     1       1.878   3.596  -4.494  0.00  0.00    +0.266 A 
ATOM     12  O   UNL     1       1.926   4.801  -4.662  0.00  0.00    -0.267 OA
ATOM     13  N   UNL     1       0.766   2.998  -4.009  0.00  0.00    -0.259 N 
BRANCH  13  14
ATOM     14  C   UNL     1      -0.358   3.773  -3.692  0.00  0.00    +0.093 A 
ATOM     15  C   UNL     1      -0.459   4.374  -2.445  0.00  0.00    +0.030 A 
ATOM     16  C   UNL     1      -1.566   5.141  -2.136  0.00  0.00    +0.002 A 
ATOM     17  C   UNL     1      -2.579   5.305  -3.063  0.00  0.00    +0.004 A 
ATOM     18  C   UNL     1      -2.488   4.705  -4.305  0.00  0.00    +0.048 A 
ATOM     19  C   UNL     1      -1.379   3.938  -4.625  0.00  0.00    +0.144 A 
BRANCH  19  20
ATOM     20  O   UNL     1      -1.288   3.348  -5.846  0.00  0.00    -0.493 OA
ATOM     21  C   UNL     1      -2.372   3.560  -6.752  0.00  0.00    +0.277 C 
ENDBRANCH  19  20
ENDBRANCH  13  14
ENDBRANCH   1   3
BRANCH   1  24
ATOM     22  C   UNL     1      -0.873   1.009  -0.870  0.00  0.00    +0.217 C 
ATOM     23  O   UNL     1      -1.625   1.952  -0.993  0.00  0.00    -0.276 OA
ATOM     24  N   UNL     1      -0.276   0.477  -1.955  0.00  0.00    -0.284 N 
BRANCH  22  25
ATOM     25  C   UNL     1      -0.604   0.432   0.497  0.00  0.00    +0.099 C 
BRANCH  25  27
ATOM     26  C   UNL     1      -0.885   2.654   1.605  0.00  0.00    +0.008 C 
ATOM     27  C   UNL     1      -1.399   1.214   1.545  0.00  0.00    -0.005 C 
BRANCH  27  28
ATOM     28  C   UNL     1      -1.226   0.553   2.914  0.00  0.00    +0.010 C 
BRANCH  28  29
ATOM     29  C   UNL     1      -2.411   0.916   3.810  0.00  0.00    -0.037 C 
ATOM     30  C   UNL     1      -3.705   0.396   3.180  0.00  0.00    +0.010 C 
ATOM     31  C   UNL     1      -2.223   0.279   5.188  0.00  0.00    +0.010 C 
ATOM     32  C   UNL     1      -2.491   2.437   3.958  0.00  0.00    +0.010 C 
ENDBRANCH  28  29
ENDBRANCH  27  28
ENDBRANCH  25  27
ENDBRANCH  22  25
BRANCH  24  33
ATOM     33  C   UNL     1       0.633  -0.662  -1.806  0.00  0.00    +0.182 C 
BRANCH  33  34
ATOM     34  C   UNL     1      -0.166  -1.940  -1.758  0.00  0.00    +0.122 A 
ATOM     35  C   UNL     1      -0.453  -2.727  -2.811  0.00  0.00    +0.046 A 
ATOM     36  C   UNL     1      -1.216  -3.809  -2.316  0.00  0.00    +0.041 A 
ATOM     37  C   UNL     1      -1.349  -3.619  -0.991  0.00  0.00    +0.195 A 
ATOM     38  O   UNL     1      -0.706  -2.488  -0.658  0.00  0.00    -0.466 OA
ENDBRANCH  33  34
ENDBRANCH  24  33
ENDBRANCH   1  24
TORSDOF 10
