REMARK  Name = ZINC23201748
REMARK  10 active torsions:
REMARK  status: ('A' for Active; 'I' for Inactive)
REMARK    1  A    between atoms: C_1  and  C_2
REMARK    2  A    between atoms: C_5  and  N_11
REMARK    3  A    between atoms: C_6  and  N_8
REMARK    4  A    between atoms: C_12  and  C_14
REMARK    5  A    between atoms: C_14  and  C_16
REMARK    6  A    between atoms: C_14  and  S_22
REMARK    7  A    between atoms: S_22  and  C_23
REMARK    8  A    between atoms: C_26  and  C_31
REMARK    9  A    between atoms: N_27  and  C_28
REMARK   10  A    between atoms: C_28  and  C_29
REMARK                            x       y       z     vdW  Elec       q    Type
REMARK                         _______ _______ _______ _____ _____    ______ ____
ROOT
ATOM      1  C   UNL     1       3.535   3.462  -0.051  0.00  0.00    +0.170 C 
ENDROOT
BRANCH   1   2
ATOM      2  C   UNL     1       3.206   4.176   1.234  0.00  0.00    -0.025 A 
ATOM      3  C   UNL     1       3.576   3.623   2.446  0.00  0.00    +0.005 A 
ATOM      4  C   UNL     1       3.279   4.280   3.625  0.00  0.00    +0.000 A 
ATOM      5  C   UNL     1       2.603   5.486   3.593  0.00  0.00    +0.000 A 
ATOM      6  C   UNL     1       2.228   6.036   2.381  0.00  0.00    +0.000 A 
ATOM      7  C   UNL     1       2.530   5.381   1.202  0.00  0.00    +0.005 A 
ENDBRANCH   1   2
BRANCH   1   9
ATOM      8  N   UNL     1       5.785   4.337  -0.591  0.00  0.00    -0.282 N 
ATOM      9  C   UNL     1       5.029   3.303  -0.170  0.00  0.00    +0.235 C 
ATOM     10  O   UNL     1       5.551   2.245   0.112  0.00  0.00    -0.274 OA
ATOM     11  H   UNL     1       5.305   5.272  -0.917  0.00  0.00    +0.155 HD
BRANCH   8  16
ATOM     12  C   UNL     1      11.437   3.866  -0.678  0.00  0.00    +0.044 C 
ATOM     13  C   UNL     1       9.936   3.991  -0.655  0.00  0.00    -0.048 A 
ATOM     14  C   UNL     1       9.147   2.893  -0.948  0.00  0.00    +0.005 A 
ATOM     15  C   UNL     1       7.771   3.005  -0.928  0.00  0.00    +0.026 A 
ATOM     16  C   UNL     1       7.179   4.221  -0.612  0.00  0.00    +0.064 A 
ATOM     17  C   UNL     1       7.973   5.322  -0.324  0.00  0.00    +0.148 A 
ATOM     18  C   UNL     1       9.349   5.203  -0.340  0.00  0.00    +0.038 A 
BRANCH  17  19
ATOM     19  N   UNL     1       7.346   6.622   0.007  0.00  0.00    +0.058 N 
ATOM     20  O   UNL     1       8.040   7.610   0.164  0.00  0.00    -0.126 OA
ATOM     21  O   UNL     1       6.136   6.702   0.123  0.00  0.00    -0.126 OA
ENDBRANCH  17  19
ENDBRANCH   8  16
ENDBRANCH   1   9
BRANCH   1  22
ATOM     22  S   UNL     1       2.753   1.829  -0.051  0.00  0.00    -0.068 S 
BRANCH  22  23
ATOM     23  C   UNL     1       1.056   2.303  -0.057  0.00  0.00    +0.193 A 
ATOM     24  N   UNL     1       0.590   3.531  -0.060  0.00  0.00    -0.122 NA
ATOM     25  N   UNL     1      -0.695   3.517  -0.064  0.00  0.00    -0.125 NA
ATOM     26  C   UNL     1      -1.130   2.276  -0.070  0.00  0.00    +0.201 A 
ATOM     27  N   UNL     1      -0.021   1.460  -0.059  0.00  0.00    -0.296 N 
BRANCH  26  28
ATOM     28  C   UNL     1      -2.536   1.842  -0.082  0.00  0.00    +0.172 A 
ATOM     29  C   UNL     1      -3.617   2.622   0.199  0.00  0.00    +0.053 A 
ATOM     30  C   UNL     1      -4.754   1.802   0.065  0.00  0.00    +0.042 A 
ATOM     31  C   UNL     1      -4.319   0.574  -0.278  0.00  0.00    +0.196 A 
ATOM     32  O   UNL     1      -2.978   0.601  -0.366  0.00  0.00    -0.460 OA
ENDBRANCH  26  28
BRANCH  27  33
ATOM     33  C   UNL     1       0.001  -0.005  -0.057  0.00  0.00    +0.152 C 
BRANCH  33  34
ATOM     34  C   UNL     1       0.004  -0.505   1.364  0.00  0.00    -0.013 C 
ATOM     35  C   UNL     1      -0.914  -1.350   1.763  0.00  0.00    +0.005 C 
ENDBRANCH  33  34
ENDBRANCH  27  33
ENDBRANCH  22  23
ENDBRANCH   1  22
TORSDOF 9
