REMARK  Name = ZINC62613787
REMARK  14 active torsions:
REMARK  status: ('A' for Active; 'I' for Inactive)
REMARK    1  A    between atoms: C_1  and  C_2
REMARK    2  A    between atoms: C_2  and  O_3
REMARK    3  A    between atoms: O_3  and  C_4
REMARK    4  A    between atoms: C_4  and  C_6
REMARK    5  A    between atoms: C_7  and  C_36
REMARK    6  A    between atoms: C_8  and  C_31
REMARK    7  A    between atoms: C_10  and  N_11
REMARK    8  A    between atoms: C_17  and  C_20
REMARK    9  A    between atoms: C_20  and  N_21
REMARK   10  A    between atoms: C_23  and  C_30
REMARK   11  A    between atoms: C_26  and  C_29
REMARK   12  A    between atoms: C_31  and  O_33
REMARK   13  A    between atoms: O_33  and  C_34
REMARK   14  A    between atoms: C_34  and  C_35
REMARK                            x       y       z     vdW  Elec       q    Type
REMARK                         _______ _______ _______ _____ _____    ______ ____
ROOT
ATOM      1  N   UNL     1      -5.476  -3.393   3.529  0.00  0.00    -0.263 N 
ATOM      2  C   UNL     1      -4.245  -2.850   3.611  0.00  0.00    +0.307 C 
ATOM      3  O   UNL     1      -3.619  -2.608   2.597  0.00  0.00    -0.252 OA
ATOM      4  N   UNL     1      -3.708  -2.575   4.816  0.00  0.00    -0.285 N 
ATOM      5  C   UNL     1      -2.417  -1.881   4.920  0.00  0.00    +0.109 C 
ATOM      6  C   UNL     1      -2.587  -0.657   5.826  0.00  0.00    +0.024 C 
ATOM      7  C   UNL     1      -3.173  -1.099   7.168  0.00  0.00    +0.006 C 
ATOM      8  C   UNL     1      -4.550  -1.728   6.944  0.00  0.00    +0.024 C 
ATOM      9  C   UNL     1      -4.405  -2.959   6.051  0.00  0.00    +0.109 C 
ATOM     10  H   UNL     1      -5.949  -3.644   4.337  0.00  0.00    +0.157 HD
ENDROOT
BRANCH   1  15
ATOM     11  C   UNL     1      -7.318  -4.135   2.016  0.00  0.00    +0.091 A 
ATOM     12  C   UNL     1      -7.696  -4.230   0.684  0.00  0.00    -0.014 A 
ATOM     13  C   UNL     1      -6.788  -3.781  -0.238  0.00  0.00    +0.102 A 
ATOM     14  S   UNL     1      -5.431  -3.238   0.779  0.00  0.00    -0.066 S 
ATOM     15  C   UNL     1      -6.062  -3.591   2.295  0.00  0.00    +0.088 A 
ATOM     16  C   UNL     1      -9.031  -4.797   0.274  0.00  0.00    +0.046 C 
BRANCH  11  17
ATOM     17  C   UNL     1      -8.208  -4.585   3.092  0.00  0.00    +0.342 C 
ATOM     18  O   UNL     1      -9.004  -3.809   3.586  0.00  0.00    -0.245 OA
BRANCH  17  19
ATOM     19  O   UNL     1      -8.143  -5.857   3.533  0.00  0.00    -0.461 OA
BRANCH  19  21
ATOM     20  C   UNL     1      -8.821  -7.696   4.947  0.00  0.00    +0.048 C 
ATOM     21  C   UNL     1      -9.040  -6.226   4.583  0.00  0.00    +0.229 C 
ENDBRANCH  19  21
ENDBRANCH  17  19
ENDBRANCH  11  17
BRANCH  13  22
ATOM     22  C   UNL     1      -6.904  -3.754  -1.696  0.00  0.00    +0.346 C 
ATOM     23  O   UNL     1      -7.913  -4.170  -2.233  0.00  0.00    -0.244 OA
BRANCH  22  24
ATOM     24  O   UNL     1      -5.892  -3.268  -2.444  0.00  0.00    -0.461 OA
BRANCH  24  25
ATOM     25  C   UNL     1      -6.074  -3.272  -3.862  0.00  0.00    +0.229 C 
ATOM     26  C   UNL     1      -4.831  -2.688  -4.537  0.00  0.00    +0.048 C 
ENDBRANCH  24  25
ENDBRANCH  22  24
ENDBRANCH  13  22
ENDBRANCH   1  15
BRANCH   7  27
ATOM     27  C   UNL     1      -3.312   0.116   8.088  0.00  0.00    +0.088 C 
BRANCH  27  28
ATOM     28  N   UNL     1      -3.792  -0.320   9.406  0.00  0.00    -0.297 NA
ATOM     29  C   UNL     1      -4.207   0.830  10.223  0.00  0.00    +0.115 C 
ATOM     30  C   UNL     1      -4.755   0.327  11.561  0.00  0.00    +0.130 C 
ATOM     31  O   UNL     1      -3.759  -0.467  12.211  0.00  0.00    -0.371 OA
ATOM     32  C   UNL     1      -3.332  -1.596  11.444  0.00  0.00    +0.130 C 
ATOM     33  C   UNL     1      -2.770  -1.113  10.104  0.00  0.00    +0.115 C 
ATOM     34  C   UNL     1      -4.523  -2.523  11.194  0.00  0.00    +0.039 C 
ATOM     35  C   UNL     1      -5.115   1.522  12.447  0.00  0.00    +0.039 C 
ENDBRANCH  27  28
ENDBRANCH   7  27
TORSDOF 9
