REMARK  Name = ZINC59170395
REMARK  11 active torsions:
REMARK  status: ('A' for Active; 'I' for Inactive)
REMARK    1  A    between atoms: C_1  and  C_2
REMARK    2  A    between atoms: C_2  and  N_3
REMARK    3  A    between atoms: N_3  and  C_4
REMARK    4  A    between atoms: N_3  and  C_6
REMARK    5  A    between atoms: C_4  and  C_5
REMARK    6  A    between atoms: C_11  and  C_28
REMARK    7  A    between atoms: N_13  and  N_14
REMARK    8  A    between atoms: N_14  and  S_15
REMARK    9  A    between atoms: S_15  and  C_18
REMARK   10  A    between atoms: C_21  and  C_24
REMARK   11  A    between atoms: N_30  and  C_31
REMARK                            x       y       z     vdW  Elec       q    Type
REMARK                         _______ _______ _______ _____ _____    ______ ____
ROOT
ATOM      1  C   UNL     1      -2.231  -0.853   1.053  0.00  0.00    +0.033 A 
ATOM      2  C   UNL     1      -1.419  -1.153   2.146  0.00  0.00    +0.024 A 
ATOM      3  C   UNL     1      -1.970  -1.379   3.375  0.00  0.00    +0.013 A 
ATOM      4  C   UNL     1      -3.358  -1.310   3.540  0.00  0.00    +0.018 A 
ATOM      5  C   UNL     1      -3.967  -1.555   4.850  0.00  0.00    +0.030 A 
ATOM      6  C   UNL     1      -5.330  -1.742   4.895  0.00  0.00    +0.099 A 
ATOM      7  C   UNL     1      -6.066  -1.679   3.611  0.00  0.00    +0.225 A 
ATOM      8  N   UNL     1      -7.192  -2.314   3.449  0.00  0.00    -0.260 N 
ATOM      9  O   UNL     1      -5.528  -0.932   2.603  0.00  0.00    -0.437 OA
ATOM     10  C   UNL     1      -4.182  -1.005   2.439  0.00  0.00    +0.139 A 
ATOM     11  C   UNL     1      -3.611  -0.774   1.202  0.00  0.00    +0.070 A 
ATOM     12  H   UNL     1      -7.592  -2.790   4.194  0.00  0.00    +0.189 HD
ENDROOT
BRANCH   6  13
ATOM     13  C   UNL     1      -6.027  -1.996   6.165  0.00  0.00    +0.253 C 
ATOM     14  O   UNL     1      -7.242  -2.055   6.191  0.00  0.00    -0.270 OA
ATOM     15  N   UNL     1      -5.319  -2.162   7.300  0.00  0.00    -0.281 N 
ATOM     16  H   UNL     1      -4.361  -2.012   7.301  0.00  0.00    +0.155 HD
BRANCH  15  17
ATOM     17  C   UNL     1      -5.967  -2.549   8.478  0.00  0.00    +0.034 A 
ATOM     18  C   UNL     1      -7.074  -3.386   8.420  0.00  0.00    +0.023 A 
ATOM     19  C   UNL     1      -7.711  -3.767   9.584  0.00  0.00    +0.002 A 
ATOM     20  C   UNL     1      -7.248  -3.316  10.807  0.00  0.00    +0.000 A 
ATOM     21  C   UNL     1      -6.147  -2.482  10.868  0.00  0.00    +0.002 A 
ATOM     22  C   UNL     1      -5.501  -2.102   9.707  0.00  0.00    +0.023 A 
ENDBRANCH  15  17
ENDBRANCH   6  13
BRANCH   8  23
ATOM     23  N   UNL     1      -7.825  -2.311   2.199  0.00  0.00    -0.157 N 
ATOM     24  H   UNL     1      -7.389  -1.899   1.436  0.00  0.00    +0.194 HD
BRANCH  23  25
ATOM     25  S   UNL     1      -9.316  -3.010   2.024  0.00  0.00    +0.085 S 
ATOM     26  O   UNL     1      -9.795  -2.629   0.742  0.00  0.00    -0.149 OA
ATOM     27  O   UNL     1      -9.175  -4.369   2.412  0.00  0.00    -0.149 OA
BRANCH  25  28
ATOM     28  C   UNL     1     -10.386  -2.257   3.205  0.00  0.00    +0.110 A 
ATOM     29  C   UNL     1     -10.432  -2.737   4.500  0.00  0.00    +0.029 A 
ATOM     30  C   UNL     1     -11.272  -2.147   5.426  0.00  0.00    +0.005 A 
ATOM     31  C   UNL     1     -12.064  -1.076   5.057  0.00  0.00    -0.050 A 
ATOM     32  C   UNL     1     -12.016  -0.595   3.762  0.00  0.00    +0.005 A 
ATOM     33  C   UNL     1     -11.174  -1.182   2.837  0.00  0.00    +0.029 A 
ATOM     34  C   UNL     1     -12.979  -0.433   6.067  0.00  0.00    +0.044 C 
ENDBRANCH  25  28
ENDBRANCH  23  25
ENDBRANCH   8  23
BRANCH   1  35
ATOM     35  N   UNL     1      -1.657  -0.626  -0.193  0.00  0.00    -0.330 N 
BRANCH  35  37
ATOM     36  C   UNL     1       0.417   0.668  -0.104  0.00  0.00    +0.024 C 
ATOM     37  C   UNL     1      -0.203  -0.708  -0.356  0.00  0.00    +0.102 C 
ENDBRANCH  35  37
BRANCH  35  38
ATOM     38  C   UNL     1      -2.505  -0.304  -1.344  0.00  0.00    +0.102 C 
ATOM     39  C   UNL     1      -2.915  -1.597  -2.052  0.00  0.00    +0.024 C 
ENDBRANCH  35  38
ENDBRANCH   1  35
TORSDOF 8
