REMARK  Name = ZINC63254425
REMARK  8 active torsions:
REMARK  status: ('A' for Active; 'I' for Inactive)
REMARK    1  A    between atoms: C_4  and  C_7
REMARK    2  A    between atoms: N_9  and  C_10
REMARK    3  A    between atoms: C_10  and  C_19
REMARK    4  A    between atoms: C_11  and  C_12
REMARK    5  A    between atoms: C_15  and  O_18
REMARK    6  A    between atoms: N_21  and  C_22
REMARK    7  A    between atoms: C_22  and  C_23
REMARK    8  A    between atoms: C_23  and  C_24
REMARK                            x       y       z     vdW  Elec       q    Type
REMARK                         _______ _______ _______ _____ _____    ______ ____
ROOT
ATOM      1  C   UNL     1       4.889  -2.686  -0.087  0.00  0.00    +0.097 C 
ATOM      2  C   UNL     1       4.886  -4.036   0.010  0.00  0.00    +0.036 C 
ENDROOT
BRANCH   2   3
ATOM      3  C   UNL     1       6.131  -4.754   0.316  0.00  0.00    -0.023 A 
ATOM      4  C   UNL     1       7.110  -4.152   1.116  0.00  0.00    +0.011 A 
ATOM      5  C   UNL     1       8.275  -4.829   1.400  0.00  0.00    +0.046 A 
ATOM      6  C   UNL     1       8.480  -6.107   0.895  0.00  0.00    +0.117 A 
ATOM      7  C   UNL     1       7.512  -6.709   0.100  0.00  0.00    +0.046 A 
ATOM      8  C   UNL     1       6.341  -6.043  -0.186  0.00  0.00    +0.011 A 
BRANCH   6   9
ATOM      9  O   UNL     1       9.631  -6.769   1.177  0.00  0.00    -0.507 OA
ATOM     10  H   UNL     1       9.589  -7.307   1.980  0.00  0.00    +0.292 HD
ENDBRANCH   6   9
ENDBRANCH   2   3
BRANCH   1  13
ATOM     11  C   UNL     1       3.692  -0.659  -0.437  0.00  0.00    +0.248 C 
ATOM     12  O   UNL     1       4.741  -0.046  -0.395  0.00  0.00    -0.270 OA
ATOM     13  N   UNL     1       3.683  -1.993  -0.240  0.00  0.00    -0.277 N 
ATOM     14  H   UNL     1       2.840  -2.472  -0.203  0.00  0.00    +0.155 HD
BRANCH  11  18
ATOM     15  C   UNL     1       0.057   1.399  -1.207  0.00  0.00    +0.000 A 
ATOM     16  C   UNL     1       1.249   2.100  -1.159  0.00  0.00    +0.001 A 
ATOM     17  C   UNL     1       2.433   1.438  -0.909  0.00  0.00    +0.013 A 
ATOM     18  C   UNL     1       2.427   0.057  -0.704  0.00  0.00    +0.037 A 
ATOM     19  C   UNL     1       1.221  -0.644  -0.754  0.00  0.00    +0.013 A 
ATOM     20  C   UNL     1       0.044   0.030  -1.005  0.00  0.00    +0.001 A 
ENDBRANCH  11  18
ENDBRANCH   1  13
BRANCH   1  21
ATOM     21  C   UNL     1       6.158  -1.948  -0.034  0.00  0.00    +0.258 C 
ATOM     22  O   UNL     1       6.413  -1.246   0.927  0.00  0.00    -0.269 OA
ATOM     23  N   UNL     1       7.040  -2.050  -1.048  0.00  0.00    -0.310 N 
ATOM     24  H   UNL     1       6.806  -2.550  -1.845  0.00  0.00    +0.149 HD
BRANCH  23  25
ATOM     25  C   UNL     1       8.350  -1.403  -0.946  0.00  0.00    +0.109 C 
BRANCH  25  26
ATOM     26  C   UNL     1       9.151  -1.671  -2.222  0.00  0.00    +0.052 C 
BRANCH  26  27
ATOM     27  C   UNL     1      10.500  -1.006  -2.117  0.00  0.00    -0.040 C 
ATOM     28  C   UNL     1      11.657  -1.574  -1.709  0.00  0.00    -0.001 A 
ATOM     29  C   UNL     1      11.994  -2.929  -1.257  0.00  0.00    +0.010 A 
ATOM     30  C   UNL     1      13.270  -3.205  -0.904  0.00  0.00    +0.001 A 
ATOM     31  C   UNL     1      14.277  -2.231  -0.960  0.00  0.00    +0.002 A 
ATOM     32  C   UNL     1      14.045  -0.964  -1.365  0.00  0.00    +0.026 A 
ATOM     33  C   UNL     1      12.738  -0.564  -1.759  0.00  0.00    +0.043 A 
ATOM     34  N   UNL     1      12.267   0.584  -2.182  0.00  0.00    -0.380 N 
ATOM     35  C   UNL     1      10.834   0.430  -2.454  0.00  0.00    +0.144 C 
ATOM     36  H   UNL     1      12.781   1.398  -2.299  0.00  0.00    +0.160 HD
ENDBRANCH  26  27
ENDBRANCH  25  26
ENDBRANCH  23  25
ENDBRANCH   1  21
TORSDOF 8
