REMARK  Name = ZINC35671572
REMARK  7 active torsions:
REMARK  status: ('A' for Active; 'I' for Inactive)
REMARK    1  A    between atoms: C_1  and  C_2
REMARK    2  A    between atoms: C_2  and  C_3
REMARK    3  A    between atoms: C_2  and  C_4
REMARK    4  A    between atoms: C_7  and  C_10
REMARK    5  A    between atoms: C_10  and  C_12
REMARK    6  A    between atoms: C_10  and  N_28
REMARK    7  A    between atoms: C_12  and  N_13
REMARK                            x       y       z     vdW  Elec       q    Type
REMARK                         _______ _______ _______ _____ _____    ______ ____
ROOT
ATOM      1  C   UNL     1      -5.441  -2.010   0.048  0.00  0.00    -0.017 C 
ENDROOT
BRANCH   1   2
ATOM      2  N   UNL     1      -5.324  -3.359  -0.520  0.00  0.00    +0.385 N 
ATOM      3  C   UNL     1      -6.666  -3.901  -0.770  0.00  0.00    -0.078 C 
ATOM      4  C   UNL     1      -6.550  -5.273  -1.437  0.00  0.00    -0.019 C 
ATOM      5  C   UNL     1      -5.779  -6.220  -0.512  0.00  0.00    -0.004 C 
ATOM      6  C   UNL     1      -4.410  -5.610  -0.199  0.00  0.00    -0.019 C 
ATOM      7  C   UNL     1      -4.605  -4.225   0.422  0.00  0.00    -0.078 C 
ATOM      8  H   UNL     1      -4.815  -3.314  -1.390  0.00  0.00    -0.081 HD
ENDBRANCH   1   2
BRANCH   1  12
ATOM      9  C   UNL     1      -1.544  -0.488   0.911  0.00  0.00    -0.045 A 
ATOM     10  C   UNL     1      -2.586  -0.257   1.789  0.00  0.00    +0.004 A 
ATOM     11  C   UNL     1      -3.847  -0.749   1.509  0.00  0.00    +0.002 A 
ATOM     12  C   UNL     1      -4.066  -1.472   0.352  0.00  0.00    -0.059 A 
ATOM     13  C   UNL     1      -3.024  -1.703  -0.526  0.00  0.00    +0.002 A 
ATOM     14  C   UNL     1      -1.764  -1.207  -0.249  0.00  0.00    +0.004 A 
BRANCH   9  16
ATOM     15  C   UNL     1      -0.230   1.572   1.331  0.00  0.00    +0.012 C 
ATOM     16  C   UNL     1      -0.169   0.048   1.216  0.00  0.00    +0.013 C 
ATOM     17  C   UNL     1       0.329  -0.543   2.536  0.00  0.00    +0.012 C 
ENDBRANCH   9  16
ENDBRANCH   1  12
BRANCH   1  18
ATOM     18  C   UNL     1      -6.136  -1.091  -0.959  0.00  0.00    +0.115 C 
BRANCH  18  19
ATOM     19  N   UNL     1      -6.326   0.233  -0.361  0.00  0.00    -0.300 N 
ATOM     20  C   UNL     1      -7.400   0.478   0.437  0.00  0.00    +0.202 A 
ATOM     21  N   UNL     1      -7.622   1.626   0.993  0.00  0.00    -0.235 NA
ATOM     22  C   UNL     1      -6.777   2.695   0.814  0.00  0.00    +0.107 A 
ATOM     23  C   UNL     1      -6.904   3.990   1.359  0.00  0.00    +0.081 A 
ATOM     24  C   UNL     1      -5.926   4.901   1.032  0.00  0.00    +0.070 A 
ATOM     25  S   UNL     1      -4.809   4.023  -0.014  0.00  0.00    -0.073 S 
ATOM     26  C   UNL     1      -5.657   2.463  -0.009  0.00  0.00    +0.105 A 
ATOM     27  C   UNL     1      -5.431   1.223  -0.594  0.00  0.00    +0.268 A 
ATOM     28  O   UNL     1      -4.455   1.032  -1.301  0.00  0.00    -0.266 OA
ATOM     29  S   UNL     1      -5.885   6.564   1.586  0.00  0.00    -0.107 S 
ATOM     30  C   UNL     1      -7.652   6.876   1.912  0.00  0.00    +0.171 C 
ATOM     31  C   UNL     1      -8.265   5.645   2.516  0.00  0.00    +0.227 C 
ATOM     32  O   UNL     1      -9.113   5.820   3.365  0.00  0.00    -0.275 OA
ATOM     33  N   UNL     1      -7.972   4.383   2.213  0.00  0.00    -0.282 N 
ATOM     34  H   UNL     1      -8.522   3.685   2.601  0.00  0.00    +0.155 HD
ENDBRANCH  18  19
ENDBRANCH   1  18
TORSDOF 5
