REMARK  Name = ZINC39887250
REMARK  7 active torsions:
REMARK  status: ('A' for Active; 'I' for Inactive)
REMARK    1  A    between atoms: C_1  and  C_2
REMARK    2  A    between atoms: C_2  and  C_3
REMARK    3  A    between atoms: C_6  and  N_9
REMARK    4  A    between atoms: C_10  and  C_20
REMARK    5  A    between atoms: C_15  and  C_18
REMARK    6  A    between atoms: C_23  and  C_25
REMARK    7  A    between atoms: C_27  and  C_32
REMARK                            x       y       z     vdW  Elec       q    Type
REMARK                         _______ _______ _______ _____ _____    ______ ____
ROOT
ATOM      1  N   UNL     1      -5.320  -1.966   0.042  0.00  0.00    -0.267 N 
ATOM      2  C   UNL     1      -6.066  -2.126  -1.210  0.00  0.00    +0.234 C 
ATOM      3  N   UNL     1      -7.415  -1.578  -1.056  0.00  0.00    -0.286 N 
ATOM      4  C   UNL     1      -8.031  -1.600   0.143  0.00  0.00    +0.258 C 
ATOM      5  O   UNL     1      -9.169  -1.182   0.254  0.00  0.00    -0.269 OA
ATOM      6  C   UNL     1      -7.324  -2.130   1.311  0.00  0.00    +0.142 C 
ATOM      7  C   UNL     1      -5.930  -2.306   1.224  0.00  0.00    +0.103 C 
ATOM      8  S   UNL     1      -5.000  -2.935   2.582  0.00  0.00    -0.033 SA
ATOM      9  H   UNL     1      -7.869  -1.196  -1.823  0.00  0.00    +0.151 HD
ENDROOT
BRANCH   1  13
ATOM     10  C   UNL     1      -1.412  -0.524   0.012  0.00  0.00    -0.048 A 
ATOM     11  C   UNL     1      -1.699  -1.753  -0.554  0.00  0.00    +0.005 A 
ATOM     12  C   UNL     1      -2.993  -2.234  -0.546  0.00  0.00    +0.024 A 
ATOM     13  C   UNL     1      -4.008  -1.483   0.032  0.00  0.00    +0.037 A 
ATOM     14  C   UNL     1      -3.717  -0.249   0.601  0.00  0.00    +0.024 A 
ATOM     15  C   UNL     1      -2.419   0.224   0.593  0.00  0.00    +0.005 A 
BRANCH  10  17
ATOM     16  C   UNL     1       0.729  -0.474   1.262  0.00  0.00    +0.009 C 
ATOM     17  C   UNL     1       0.002  -0.003   0.001  0.00  0.00    +0.032 C 
ENDBRANCH  10  17
ENDBRANCH   1  13
BRANCH   2  18
ATOM     18  C   UNL     1      -6.157  -3.590  -1.557  0.00  0.00    +0.144 A 
ATOM     19  C   UNL     1      -7.160  -4.174  -2.240  0.00  0.00    +0.049 A 
ATOM     20  C   UNL     1      -6.848  -5.545  -2.340  0.00  0.00    +0.050 A 
ATOM     21  C   UNL     1      -5.659  -5.723  -1.705  0.00  0.00    +0.137 A 
ATOM     22  O   UNL     1      -5.249  -4.527  -1.240  0.00  0.00    -0.456 OA
BRANCH  21  23
ATOM     23  C   UNL     1      -4.939  -7.005  -1.557  0.00  0.00    +0.036 A 
ATOM     24  C   UNL     1      -3.585  -7.090  -1.883  0.00  0.00    +0.025 A 
ATOM     25  C   UNL     1      -2.918  -8.289  -1.742  0.00  0.00    +0.056 A 
ATOM     26  C   UNL     1      -3.589  -9.407  -1.278  0.00  0.00    +0.014 A 
ATOM     27  C   UNL     1      -4.931  -9.331  -0.953  0.00  0.00    +0.021 A 
ATOM     28  C   UNL     1      -5.609  -8.135  -1.084  0.00  0.00    +0.052 A 
ATOM     29 CL   UNL     1      -7.292  -8.039  -0.667  0.00  0.00    -0.083 Cl
BRANCH  25  30
ATOM     30  C   UNL     1      -1.456  -8.383  -2.094  0.00  0.00    +0.417 C 
ATOM     31  F   UNL     1      -0.684  -8.089  -0.965  0.00  0.00    -0.166 F 
ATOM     32  F   UNL     1      -1.164  -9.678  -2.534  0.00  0.00    -0.166 F 
ATOM     33  F   UNL     1      -1.162  -7.468  -3.111  0.00  0.00    -0.166 F 
ENDBRANCH  25  30
ENDBRANCH  21  23
ENDBRANCH   2  18
BRANCH   6  34
ATOM     34  C   UNL     1      -8.032  -2.465   2.510  0.00  0.00    +0.107 C 
ATOM     35  N   UNL     1      -8.594  -2.731   3.461  0.00  0.00    -0.191 NA
ENDBRANCH   6  34
TORSDOF 6
