REMARK  Name = ZINC04291055
REMARK  8 active torsions:
REMARK  status: ('A' for Active; 'I' for Inactive)
REMARK    1  A    between atoms: C_1  and  C_2
REMARK    2  A    between atoms: C_2  and  C_3
REMARK    3  A    between atoms: N_9  and  C_10
REMARK    4  A    between atoms: C_10  and  C_11
REMARK    5  A    between atoms: C_12  and  O_34
REMARK    6  A    between atoms: C_18  and  C_30
REMARK    7  A    between atoms: C_19  and  O_22
REMARK    8  A    between atoms: O_22  and  C_23
REMARK                            x       y       z     vdW  Elec       q    Type
REMARK                         _______ _______ _______ _____ _____    ______ ____
ROOT
ATOM      1  C   UNL     1      -0.998   1.663   3.545  0.00  0.00    +0.020 A 
ATOM      2  C   UNL     1      -2.365   1.791   3.367  0.00  0.00    +0.122 A 
ATOM      3  C   UNL     1      -3.201   2.038   4.454  0.00  0.00    +0.046 A 
ATOM      4  C   UNL     1      -2.683   2.157   5.712  0.00  0.00    +0.019 A 
ATOM      5  C   UNL     1      -1.307   2.030   5.908  0.00  0.00    +0.068 A 
ATOM      6  C   UNL     1      -0.456   1.775   4.818  0.00  0.00    +0.144 A 
ATOM      7  O   UNL     1       0.871   1.650   5.020  0.00  0.00    -0.447 OA
ATOM      8  C   UNL     1       1.425   1.753   6.235  0.00  0.00    +0.254 A 
ATOM      9  C   UNL     1       0.703   1.990   7.348  0.00  0.00    +0.222 A 
ATOM     10  C   UNL     1      -0.709   2.152   7.248  0.00  0.00    +0.235 A 
ATOM     11  O   UNL     1      -1.395   2.369   8.233  0.00  0.00    -0.283 OA
ENDROOT
BRANCH   8  12
ATOM     12  C   UNL     1       2.919   1.598   6.364  0.00  0.00    +0.454 C 
ATOM     13  F   UNL     1       3.305   1.875   7.679  0.00  0.00    -0.163 F 
ATOM     14  F   UNL     1       3.281   0.286   6.038  0.00  0.00    -0.163 F 
ATOM     15  F   UNL     1       3.557   2.487   5.493  0.00  0.00    -0.163 F 
ENDBRANCH   8  12
BRANCH   2  16
ATOM     16  O   UNL     1      -2.895   1.675   2.123  0.00  0.00    -0.506 OA
ATOM     17  H   UNL     1      -3.146   0.772   1.885  0.00  0.00    +0.292 HD
ENDBRANCH   2  16
BRANCH   1  18
ATOM     18  C   UNL     1      -0.102   1.396   2.363  0.00  0.00    -0.035 C 
BRANCH  18  24
ATOM     19  C   UNL     1       0.810  -0.311   0.950  0.00  0.00    -0.068 C 
ATOM     20  C   UNL     1       0.882  -1.819   0.696  0.00  0.00    -0.015 C 
ATOM     21  C   UNL     1       1.557  -2.500   1.891  0.00  0.00    -0.003 C 
ATOM     22  C   UNL     1       0.778  -2.163   3.165  0.00  0.00    -0.019 C 
ATOM     23  C   UNL     1       0.709  -0.642   3.327  0.00  0.00    -0.078 C 
ATOM     24  N   UNL     1       0.031  -0.054   2.166  0.00  0.00    +0.384 N 
ATOM     25  H   UNL     1      -0.886  -0.463   2.070  0.00  0.00    -0.081 HD
BRANCH  19  27
ATOM     26  C   UNL     1       0.981   0.155  -1.499  0.00  0.00    +0.002 C 
ATOM     27  C   UNL     1       0.137   0.374  -0.241  0.00  0.00    -0.019 C 
ENDBRANCH  19  27
ENDBRANCH  18  24
ENDBRANCH   1  18
BRANCH   9  28
ATOM     28  O   UNL     1       1.319   2.086   8.558  0.00  0.00    -0.447 OA
BRANCH  28  29
ATOM     29  C   UNL     1       1.064   1.123   9.482  0.00  0.00    +0.147 A 
ATOM     30  C   UNL     1       0.287   0.024   9.144  0.00  0.00    +0.048 A 
ATOM     31  C   UNL     1       0.029  -0.954  10.085  0.00  0.00    +0.004 A 
ATOM     32  C   UNL     1       0.543  -0.838  11.364  0.00  0.00    +0.002 A 
ATOM     33  C   UNL     1       1.317   0.256  11.704  0.00  0.00    +0.024 A 
ATOM     34  C   UNL     1       1.584   1.235  10.765  0.00  0.00    +0.083 A 
ATOM     35 CL   UNL     1       2.562   2.604  11.190  0.00  0.00    -0.080 Cl
ENDBRANCH  28  29
ENDBRANCH   9  28
TORSDOF 7
