REMARK  Name = ZINC62535030
REMARK  1 active torsions:
REMARK  status: ('A' for Active; 'I' for Inactive)
REMARK    1  A    between atoms: C_5  and  N_8
REMARK                            x       y       z     vdW  Elec       q    Type
REMARK                         _______ _______ _______ _____ _____    ______ ____
ROOT
ATOM      1  C   UNL     1      -0.017   1.379   0.010  0.00  0.00    +0.069 A 
ATOM      2  C   UNL     1       1.173   2.088   0.002  0.00  0.00    +0.145 A 
ATOM      3  C   UNL     1       2.388   1.407  -0.016  0.00  0.00    +0.096 A 
ATOM      4  C   UNL     1       2.408   0.021  -0.021  0.00  0.00    +0.088 A 
ATOM      5  C   UNL     1       1.213  -0.686  -0.012  0.00  0.00    +0.064 A 
ATOM      6  C   UNL     1       0.002  -0.004   0.002  0.00  0.00    +0.067 A 
ATOM      7 CL   UNL     1      -1.491  -0.890   0.011  0.00  0.00    -0.081 Cl
ATOM      8 CL   UNL     1       3.922  -0.828  -0.038  0.00  0.00    -0.080 Cl
ATOM      9  N   UNL     1       3.585   2.138  -0.034  0.00  0.00    -0.281 N 
ATOM     10  C   UNL     1       3.760   3.146   0.848  0.00  0.00    +0.221 C 
ATOM     11  O   UNL     1       4.761   3.830   0.803  0.00  0.00    -0.275 OA
ATOM     12  C   UNL     1       2.704   3.418   1.889  0.00  0.00    +0.137 C 
ATOM     13  C   UNL     1       1.494   4.091   1.244  0.00  0.00    +0.238 C 
ATOM     14  O   UNL     1       1.163   3.449   0.015  0.00  0.00    -0.490 OA
ATOM     15  H   UNL     1       4.281   1.921  -0.674  0.00  0.00    +0.155 HD
ENDROOT
BRANCH   5  16
ATOM     16  N   UNL     1       1.228  -2.087  -0.018  0.00  0.00    -0.356 N 
ATOM     17  H   UNL     1       2.073  -2.563  -0.028  0.00  0.00    +0.142 HD
ATOM     18  H   UNL     1       0.393  -2.581  -0.012  0.00  0.00    +0.142 HD
ENDBRANCH   5  16
TORSDOF 1
