REMARK  Name = ZINC12576124
REMARK  5 active torsions:
REMARK  status: ('A' for Active; 'I' for Inactive)
REMARK    1  A    between atoms: C_1  and  C_2
REMARK    2  A    between atoms: C_3  and  C_33
REMARK    3  A    between atoms: C_8  and  C_26
REMARK    4  A    between atoms: C_16  and  C_17
REMARK    5  A    between atoms: N_35  and  C_36
REMARK                            x       y       z     vdW  Elec       q    Type
REMARK                         _______ _______ _______ _____ _____    ______ ____
ROOT
ATOM      1  C   UNL     1      -5.323   8.093  -2.560  0.00  0.00    +0.067 C 
ATOM      2  C   UNL     1      -4.232   7.164  -3.026  0.00  0.00    +0.060 A 
ATOM      3  C   UNL     1      -3.844   7.124  -4.358  0.00  0.00    +0.098 A 
ATOM      4  S   UNL     1      -2.563   5.880  -4.290  0.00  0.00    -0.046 S 
ATOM      5  C   UNL     1      -2.659   5.548  -2.589  0.00  0.00    +0.182 A 
ATOM      6  N   UNL     1      -3.623   6.365  -2.190  0.00  0.00    -0.228 NA
ATOM      7  N   UNL     1      -1.922   4.655  -1.842  0.00  0.00    -0.193 N 
ATOM      8  C   UNL     1      -0.845   3.763  -2.357  0.00  0.00    +0.139 C 
ATOM      9  C   UNL     1      -0.059   3.468  -1.068  0.00  0.00    +0.066 C 
ATOM     10  C   UNL     1       0.332   1.992  -0.968  0.00  0.00    +0.012 C 
ATOM     11  C   UNL     1       0.954   1.756   0.407  0.00  0.00    +0.005 C 
ATOM     12  C   UNL     1      -0.009   2.001   1.550  0.00  0.00    +0.037 C 
ATOM     13  C   UNL     1      -1.003   3.091   1.295  0.00  0.00    -0.024 C 
ATOM     14  C   UNL     1      -1.822   3.492   2.289  0.00  0.00    +0.013 C 
ATOM     15  C   UNL     1      -1.096   3.704   0.023  0.00  0.00    +0.068 C 
ATOM     16  N   UNL     1      -2.045   4.429  -0.466  0.00  0.00    -0.181 NA
ENDROOT
BRANCH  14  17
ATOM     17  C   UNL     1      -1.852   2.753   3.562  0.00  0.00    -0.025 A 
ATOM     18  C   UNL     1      -1.871   1.355   3.561  0.00  0.00    +0.011 A 
ATOM     19  C   UNL     1      -1.894   0.668   4.756  0.00  0.00    +0.039 A 
ATOM     20  C   UNL     1      -1.908   1.362   5.957  0.00  0.00    +0.123 A 
ATOM     21  C   UNL     1      -1.895   2.748   5.964  0.00  0.00    +0.039 A 
ATOM     22  C   UNL     1      -1.867   3.446   4.776  0.00  0.00    +0.011 A 
ATOM     23  F   UNL     1      -1.936   0.683   7.125  0.00  0.00    -0.205 F 
ENDBRANCH  14  17
BRANCH   8  24
ATOM     24  C   UNL     1       0.021   4.471  -3.367  0.00  0.00    -0.024 A 
ATOM     25  C   UNL     1       0.237   5.832  -3.258  0.00  0.00    +0.008 A 
ATOM     26  C   UNL     1       1.036   6.482  -4.180  0.00  0.00    +0.038 A 
ATOM     27  C   UNL     1       1.610   5.771  -5.220  0.00  0.00    +0.123 A 
ATOM     28  C   UNL     1       1.388   4.409  -5.332  0.00  0.00    +0.038 A 
ATOM     29  C   UNL     1       0.594   3.760  -4.405  0.00  0.00    +0.008 A 
ATOM     30  F   UNL     1       2.386   6.406  -6.125  0.00  0.00    -0.205 F 
ENDBRANCH   8  24
BRANCH   3  31
ATOM     31  C   UNL     1      -4.346   7.888  -5.500  0.00  0.00    +0.252 C 
ATOM     32  O   UNL     1      -5.237   8.703  -5.343  0.00  0.00    -0.270 OA
ATOM     33  N   UNL     1      -3.821   7.690  -6.726  0.00  0.00    -0.314 N 
ATOM     34  C   UNL     1      -4.323   8.455  -7.870  0.00  0.00    +0.128 C 
ATOM     35  H   UNL     1      -3.111   7.041  -6.850  0.00  0.00    +0.149 HD
ENDBRANCH   3  31
TORSDOF 3
