REMARK  Name = ZINC09739261
REMARK  8 active torsions:
REMARK  status: ('A' for Active; 'I' for Inactive)
REMARK    1  A    between atoms: C_1  and  C_2
REMARK    2  A    between atoms: C_5  and  C_8
REMARK    3  A    between atoms: C_8  and  N_64
REMARK    4  A    between atoms: C_11  and  C_14
REMARK    5  A    between atoms: C_14  and  N_15
REMARK    6  A    between atoms: C_16  and  C_18
REMARK    7  A    between atoms: C_23  and  N_24
REMARK    8  A    between atoms: C_25  and  C_27
REMARK                            x       y       z     vdW  Elec       q    Type
REMARK                         _______ _______ _______ _____ _____    ______ ____
ROOT
ATOM      1  N   UNL     1       3.133   5.121   6.056  0.00  0.00    -0.311 N 
ATOM      2  C   UNL     1       3.174   5.374   7.380  0.00  0.00    +0.246 C 
ATOM      3  O   UNL     1       2.339   6.098   7.886  0.00  0.00    -0.270 OA
ATOM      4  H   UNL     1       3.800   4.543   5.652  0.00  0.00    +0.149 HD
ENDROOT
BRANCH   2   5
ATOM      5  C   UNL     1       4.232   4.772   8.213  0.00  0.00    +0.058 A 
ATOM      6  C   UNL     1       5.131   3.859   7.657  0.00  0.00    +0.015 A 
ATOM      7  C   UNL     1       6.117   3.300   8.441  0.00  0.00    +0.001 A 
ATOM      8  C   UNL     1       6.223   3.640   9.780  0.00  0.00    +0.002 A 
ATOM      9  C   UNL     1       5.343   4.541  10.344  0.00  0.00    +0.024 A 
ATOM     10  C   UNL     1       4.346   5.119   9.568  0.00  0.00    +0.046 A 
BRANCH  10  11
ATOM     11  N   UNL     1       3.461   6.032  10.133  0.00  0.00    -0.278 N 
ATOM     12  C   UNL     1       3.887   6.879  11.090  0.00  0.00    +0.283 C 
ATOM     13  O   UNL     1       5.066   6.913  11.393  0.00  0.00    -0.266 OA
ATOM     14  H   UNL     1       2.537   6.059   9.837  0.00  0.00    +0.155 HD
BRANCH  12  15
ATOM     15  C   UNL     1       2.964   7.730  11.744  0.00  0.00    +0.188 C 
ATOM     16  C   UNL     1       1.704   7.720  11.294  0.00  0.00    +0.091 C 
ATOM     17  S   UNL     1       0.453   8.744  11.993  0.00  0.00    -0.126 S 
ATOM     18  C   UNL     1       1.274   9.202  13.543  0.00  0.00    +0.115 C 
ATOM     19  C   UNL     1       2.713   9.621  13.209  0.00  0.00    +0.240 C 
ATOM     20  O   UNL     1       3.434   8.473  12.767  0.00  0.00    -0.486 OA
ENDBRANCH  12  15
ENDBRANCH  10  11
ENDBRANCH   2   5
BRANCH   1  21
ATOM     21  C   UNL     1       2.083   5.719   5.229  0.00  0.00    +0.108 C 
BRANCH  21  24
ATOM     22  C   UNL     1       2.163   3.334   2.207  0.00  0.00    -0.078 C 
ATOM     23  C   UNL     1       2.041   3.763   3.671  0.00  0.00    -0.014 C 
ATOM     24  C   UNL     1       2.264   5.274   3.776  0.00  0.00    +0.003 C 
ATOM     25  C   UNL     1       1.244   5.995   2.889  0.00  0.00    -0.014 C 
ATOM     26  C   UNL     1       1.389   5.502   1.448  0.00  0.00    -0.078 C 
ATOM     27  N   UNL     1       1.139   4.045   1.412  0.00  0.00    +0.382 N 
ATOM     28  H   UNL     1       0.214   3.856   1.815  0.00  0.00    -0.081 HD
BRANCH  27  29
ATOM     29  C   UNL     1       1.161   3.564   0.015  0.00  0.00    -0.043 C 
BRANCH  29  34
ATOM     30  C   UNL     1       1.223  -2.215   0.003  0.00  0.00    +0.044 C 
ATOM     31  C   UNL     1       1.207  -0.708   0.006  0.00  0.00    -0.050 A 
ATOM     32  C   UNL     1       0.003  -0.029   0.018  0.00  0.00    +0.003 A 
ATOM     33  C   UNL     1      -0.012   1.353   0.020  0.00  0.00    +0.002 A 
ATOM     34  C   UNL     1       1.177   2.057   0.013  0.00  0.00    -0.064 A 
ATOM     35  C   UNL     1       2.382   1.379   0.001  0.00  0.00    +0.002 A 
ATOM     36  C   UNL     1       2.397  -0.004  -0.002  0.00  0.00    +0.003 A 
ENDBRANCH  29  34
ENDBRANCH  27  29
ENDBRANCH  21  24
ENDBRANCH   1  21
TORSDOF 7
