REMARK  Name = ZINC05383761
REMARK  8 active torsions:
REMARK  status: ('A' for Active; 'I' for Inactive)
REMARK    1  A    between atoms: C_1  and  C_2
REMARK    2  A    between atoms: C_2  and  C_3
REMARK    3  A    between atoms: C_2  and  C_4
REMARK    4  A    between atoms: C_2  and  C_5
REMARK    5  A    between atoms: C_12  and  N_16
REMARK    6  A    between atoms: C_13  and  C_14
REMARK    7  A    between atoms: C_17  and  C_19
REMARK    8  A    between atoms: C_22  and  N_26
REMARK                            x       y       z     vdW  Elec       q    Type
REMARK                         _______ _______ _______ _____ _____    ______ ____
ROOT
ATOM      1  C   UNL     1       0.718  -0.497  -1.257  0.00  0.00    -0.000 C 
ATOM      2  C   UNL     1      -0.017   0.013  -2.499  0.00  0.00    +0.009 C 
ATOM      3  C   UNL     1       0.537  -0.670  -3.751  0.00  0.00    +0.037 C 
ATOM      4  C   UNL     1       2.051  -0.516  -3.760  0.00  0.00    -0.018 A 
ATOM      5  C   UNL     1       2.731  -0.199  -2.636  0.00  0.00    -0.004 A 
ATOM      6  S   UNL     1       4.425  -0.135  -3.141  0.00  0.00    -0.077 S 
ATOM      7  C   UNL     1       4.254  -0.512  -4.768  0.00  0.00    +0.090 A 
ATOM      8  C   UNL     1       2.889  -0.689  -4.933  0.00  0.00    +0.084 A 
ATOM      9  C   UNL     1       2.158   0.038  -1.273  0.00  0.00    +0.047 C 
ENDROOT
BRANCH   1  11
ATOM     10  C   UNL     1      -0.019   1.526   0.010  0.00  0.00    +0.011 C 
ATOM     11  C   UNL     1       0.002  -0.004   0.002  0.00  0.00    -0.035 C 
ATOM     12  C   UNL     1       0.742  -0.511   1.242  0.00  0.00    +0.011 C 
ATOM     13  C   UNL     1      -1.433  -0.534   0.013  0.00  0.00    +0.011 C 
ENDBRANCH   1  11
BRANCH   7  14
ATOM     14  N   UNL     1       5.249  -0.622  -5.728  0.00  0.00    -0.275 N 
ATOM     15  C   UNL     1       6.537  -0.415  -5.389  0.00  0.00    +0.250 C 
ATOM     16  O   UNL     1       6.826  -0.132  -4.242  0.00  0.00    -0.270 OA
ATOM     17  H   UNL     1       5.019  -0.847  -6.643  0.00  0.00    +0.156 HD
BRANCH  15  18
ATOM     18  C   UNL     1       7.598  -0.531  -6.411  0.00  0.00    +0.055 A 
ATOM     19  C   UNL     1       7.269  -0.850  -7.730  0.00  0.00    +0.017 A 
ATOM     20  C   UNL     1       8.263  -0.957  -8.679  0.00  0.00    +0.033 A 
ATOM     21  C   UNL     1       9.586  -0.750  -8.327  0.00  0.00    +0.128 A 
ATOM     22  C   UNL     1       9.920  -0.434  -7.023  0.00  0.00    +0.053 A 
ATOM     23  C   UNL     1       8.934  -0.318  -6.063  0.00  0.00    +0.055 A 
ATOM     24 CL   UNL     1       9.354   0.086  -4.428  0.00  0.00    -0.083 Cl
BRANCH  21  25
ATOM     25  N   UNL     1      10.648  -0.868  -9.352  0.00  0.00    +0.056 N 
ATOM     26  O   UNL     1      10.359  -1.145 -10.493  0.00  0.00    -0.126 OA
ATOM     27  O   UNL     1      11.804  -0.688  -9.048  0.00  0.00    -0.126 OA
ENDBRANCH  21  25
ENDBRANCH  15  18
ENDBRANCH   7  14
BRANCH   8  28
ATOM     28  C   UNL     1       2.329  -1.027  -6.207  0.00  0.00    +0.102 C 
ATOM     29  N   UNL     1       1.885  -1.296  -7.217  0.00  0.00    -0.191 NA
ENDBRANCH   8  28
TORSDOF 5
