REMARK  Name = ZINC20854878
REMARK  9 active torsions:
REMARK  status: ('A' for Active; 'I' for Inactive)
REMARK    1  A    between atoms: C_1  and  C_2
REMARK    2  A    between atoms: C_11  and  C_38
REMARK    3  A    between atoms: N_13  and  C_17
REMARK    4  A    between atoms: C_21  and  C_23
REMARK    5  A    between atoms: N_25  and  C_26
REMARK    6  A    between atoms: C_26  and  C_27
REMARK    7  A    between atoms: C_27  and  C_28
REMARK    8  A    between atoms: C_31  and  S_34
REMARK    9  A    between atoms: S_34  and  N_37
REMARK                            x       y       z     vdW  Elec       q    Type
REMARK                         _______ _______ _______ _____ _____    ______ ____
ROOT
ATOM      1  C   UNL     1      -4.574  -4.204   0.027  0.00  0.00    +0.042 A 
ATOM      2  C   UNL     1      -5.581  -3.333  -0.373  0.00  0.00    +0.024 A 
ATOM      3  C   UNL     1      -5.364  -1.968  -0.364  0.00  0.00    +0.003 A 
ATOM      4  C   UNL     1      -4.149  -1.460   0.049  0.00  0.00    +0.013 A 
ATOM      5  C   UNL     1      -3.130  -2.326   0.447  0.00  0.00    +0.038 A 
ATOM      6  C   UNL     1      -3.348  -3.704   0.437  0.00  0.00    +0.036 A 
ENDROOT
BRANCH   1  18
ATOM      7  C   UNL     1      -1.331 -10.815   2.421  0.00  0.00    +0.044 C 
ATOM      8  C   UNL     1      -1.786  -9.715   1.498  0.00  0.00    -0.050 A 
ATOM      9  C   UNL     1      -0.858  -8.874   0.912  0.00  0.00    +0.007 A 
ATOM     10  C   UNL     1      -1.274  -7.869   0.064  0.00  0.00    +0.046 A 
ATOM     11  C   UNL     1      -2.628  -7.696  -0.206  0.00  0.00    +0.128 A 
ATOM     12  C   UNL     1      -3.553  -8.537   0.387  0.00  0.00    +0.015 A 
ATOM     13  C   UNL     1      -3.132  -9.545   1.235  0.00  0.00    +0.012 A 
ATOM     14  C   UNL     1      -5.033  -8.371   0.125  0.00  0.00    +0.114 C 
ATOM     15  C   UNL     1      -5.224  -7.661  -1.226  0.00  0.00    +0.096 C 
ATOM     16  C   UNL     1      -4.383  -6.360  -1.151  0.00  0.00    +0.185 C 
ATOM     17  O   UNL     1      -2.999  -6.706  -1.058  0.00  0.00    -0.468 OA
ATOM     18  N   UNL     1      -4.798  -5.585   0.016  0.00  0.00    -0.216 N 
ATOM     19  C   UNL     1      -5.392  -6.157   1.075  0.00  0.00    +0.310 C 
ATOM     20  O   UNL     1      -5.784  -5.446   1.980  0.00  0.00    -0.252 OA
ATOM     21  N   UNL     1      -5.569  -7.485   1.172  0.00  0.00    -0.292 N 
ATOM     22  C   UNL     1      -4.625  -5.538  -2.418  0.00  0.00    +0.079 C 
ATOM     23  H   UNL     1      -6.110  -7.911   2.029  0.00  0.00    +0.151 HD
ENDBRANCH   1  18
BRANCH   5  24
ATOM     24  C   UNL     1      -1.825  -1.785   0.882  0.00  0.00    +0.244 C 
ATOM     25  O   UNL     1      -0.940  -2.541   1.233  0.00  0.00    -0.270 OA
ATOM     26  N   UNL     1      -1.616  -0.453   0.891  0.00  0.00    -0.311 N 
ATOM     27  H   UNL     1      -2.417   0.231   0.573  0.00  0.00    +0.149 HD
BRANCH  26  28
ATOM     28  C   UNL     1      -0.323   0.083   1.322  0.00  0.00    +0.109 C 
BRANCH  28  29
ATOM     29  C   UNL     1      -0.350   1.610   1.237  0.00  0.00    +0.054 C 
BRANCH  29  30
ATOM     30  C   UNL     1       0.980   2.162   1.681  0.00  0.00    -0.046 A 
ATOM     31  C   UNL     1       1.189   2.476   3.011  0.00  0.00    +0.005 A 
ATOM     32  C   UNL     1       2.411   2.978   3.420  0.00  0.00    +0.029 A 
ATOM     33  C   UNL     1       3.420   3.174   2.496  0.00  0.00    +0.105 A 
ATOM     34  C   UNL     1       3.210   2.865   1.165  0.00  0.00    +0.029 A 
ATOM     35  C   UNL     1       1.990   2.360   0.758  0.00  0.00    +0.005 A 
BRANCH  33  36
ATOM     36  S   UNL     1       4.976   3.818   3.015  0.00  0.00    +0.056 S 
ATOM     37  O   UNL     1       5.101   3.513   4.398  0.00  0.00    -0.153 OA
ATOM     38  O   UNL     1       5.932   3.396   2.053  0.00  0.00    -0.153 OA
BRANCH  36  39
ATOM     39  N   UNL     1       4.886   5.468   2.901  0.00  0.00    -0.204 NA
ATOM     40  H   UNL     1       5.842   5.910   3.218  0.00  0.00    +0.144 HD
ATOM     41  H   UNL     1       4.079   5.837   3.550  0.00  0.00    +0.144 HD
ENDBRANCH  36  39
ENDBRANCH  33  36
ENDBRANCH  29  30
ENDBRANCH  28  29
ENDBRANCH  26  28
ENDBRANCH   5  24
TORSDOF 7
