REMARK  Name = ZINC09428498
REMARK  12 active torsions:
REMARK  status: ('A' for Active; 'I' for Inactive)
REMARK    1  A    between atoms: C_1  and  C_2
REMARK    2  A    between atoms: C_2  and  C_38
REMARK    3  A    between atoms: C_7  and  C_37
REMARK    4  A    between atoms: C_10  and  N_11
REMARK    5  A    between atoms: C_10  and  N_73
REMARK    6  A    between atoms: N_19  and  N_20
REMARK    7  A    between atoms: C_21  and  C_23
REMARK    8  A    between atoms: C_23  and  O_24
REMARK    9  A    between atoms: O_24  and  N_25
REMARK   10  A    between atoms: C_26  and  C_27
REMARK   11  A    between atoms: C_30  and  O_33
REMARK   12  A    between atoms: O_33  and  C_34
REMARK                            x       y       z     vdW  Elec       q    Type
REMARK                         _______ _______ _______ _____ _____    ______ ____
ROOT
ATOM      1  N   UNL     1       3.875  -0.642  -0.039  0.00  0.00    -0.282 N 
ATOM      2  C   UNL     1       4.591   0.550  -0.038  0.00  0.00    +0.044 A 
ATOM      3  C   UNL     1       5.958   0.805  -0.050  0.00  0.00    +0.024 A 
ATOM      4  C   UNL     1       6.420   2.106  -0.047  0.00  0.00    +0.002 A 
ATOM      5  C   UNL     1       5.533   3.169  -0.033  0.00  0.00    +0.001 A 
ATOM      6  C   UNL     1       4.172   2.935  -0.022  0.00  0.00    +0.012 A 
ATOM      7  C   UNL     1       3.697   1.628  -0.030  0.00  0.00    +0.028 A 
ATOM      8  C   UNL     1       2.336   1.043  -0.015  0.00  0.00    +0.153 C 
ATOM      9  N   UNL     1       1.193   1.683  -0.000  0.00  0.00    -0.174 NA
ATOM     10  C   UNL     1       2.550  -0.419  -0.025  0.00  0.00    +0.270 C 
ATOM     11  O   UNL     1       1.680  -1.270  -0.022  0.00  0.00    -0.268 OA
ENDROOT
BRANCH   9  12
ATOM     12  N   UNL     1      -0.011   0.966   0.007  0.00  0.00    -0.203 N 
ATOM     13  C   UNL     1      -1.187   1.624   0.017  0.00  0.00    +0.272 C 
ATOM     14  O   UNL     1      -1.204   2.836   0.023  0.00  0.00    -0.270 OA
ATOM     15  H   UNL     1       0.002  -0.004   0.002  0.00  0.00    +0.177 HD
BRANCH  13  16
ATOM     16  C   UNL     1      -2.482   0.853   0.018  0.00  0.00    +0.359 C 
BRANCH  16  17
ATOM     17  O   UNL     1      -3.581   1.766   0.029  0.00  0.00    -0.384 OA
BRANCH  17  18
ATOM     18  N   UNL     1      -4.851   1.140   0.031  0.00  0.00    -0.092 NA
ATOM     19  C   UNL     1      -5.926   1.859   0.040  0.00  0.00    +0.160 C 
BRANCH  19  20
ATOM     20  C   UNL     1      -7.250   1.206   0.043  0.00  0.00    -0.004 A 
ATOM     21  C   UNL     1      -7.343  -0.187   0.030  0.00  0.00    +0.013 A 
ATOM     22  C   UNL     1      -8.581  -0.793   0.037  0.00  0.00    +0.046 A 
ATOM     23  C   UNL     1      -9.735  -0.019   0.047  0.00  0.00    +0.120 A 
ATOM     24  C   UNL     1      -9.646   1.367   0.055  0.00  0.00    +0.046 A 
ATOM     25  C   UNL     1      -8.412   1.981   0.053  0.00  0.00    +0.013 A 
BRANCH  23  26
ATOM     26  O   UNL     1     -10.953  -0.620   0.049  0.00  0.00    -0.495 OA
ATOM     27  C   UNL     1     -10.972  -2.049   0.041  0.00  0.00    +0.277 C 
ENDBRANCH  23  26
ENDBRANCH  19  20
ENDBRANCH  17  18
ENDBRANCH  16  17
ENDBRANCH  13  16
ENDBRANCH   9  12
BRANCH   1  28
ATOM     28  C   UNL     1       4.487  -1.973  -0.052  0.00  0.00    +0.039 C 
BRANCH  28  39
ATOM     29  C   UNL     1       3.524  -5.321   0.367  0.00  0.00    +0.011 C 
ATOM     30  C   UNL     1       4.472  -5.489  -0.838  0.00  0.00    -0.036 C 
ATOM     31  C   UNL     1       5.652  -4.557  -0.670  0.00  0.00    -0.009 C 
ATOM     32  C   UNL     1       5.746  -3.392  -1.641  0.00  0.00    -0.065 C 
ATOM     33  C   UNL     1       5.431  -3.946  -3.060  0.00  0.00    -0.011 C 
ATOM     34  C   UNL     1       3.894  -4.124  -2.929  0.00  0.00    -0.048 C 
ATOM     35  C   UNL     1       3.662  -5.394  -2.113  0.00  0.00    +0.011 C 
ATOM     36  C   UNL     1       3.458  -2.913  -2.069  0.00  0.00    -0.070 C 
ATOM     37  C   UNL     1       3.189  -4.154  -4.292  0.00  0.00    +0.009 C 
ATOM     38  C   UNL     1       5.018  -6.938  -0.751  0.00  0.00    +0.011 C 
ATOM     39  N   UNL     1       4.685  -2.372  -1.486  0.00  0.00    +0.393 N 
ATOM     40  H   UNL     1       4.958  -1.533  -2.012  0.00  0.00    -0.079 HD
ENDBRANCH  28  39
ENDBRANCH   1  28
TORSDOF 8
