REMARK  Name = ZINC01699142
REMARK  12 active torsions:
REMARK  status: ('A' for Active; 'I' for Inactive)
REMARK    1  A    between atoms: C_3  and  S_14
REMARK    2  A    between atoms: C_6  and  N_7
REMARK    3  A    between atoms: N_7  and  C_8
REMARK    4  A    between atoms: C_8  and  N_10
REMARK    5  A    between atoms: N_10  and  C_11
REMARK    6  A    between atoms: C_11  and  C_12
REMARK    7  A    between atoms: S_14  and  C_17
REMARK    8  A    between atoms: C_20  and  N_23
REMARK    9  A    between atoms: N_23  and  C_24
REMARK   10  A    between atoms: C_24  and  N_26
REMARK   11  A    between atoms: N_26  and  C_27
REMARK   12  A    between atoms: C_27  and  C_28
REMARK                            x       y       z     vdW  Elec       q    Type
REMARK                         _______ _______ _______ _____ _____    ______ ____
ROOT
ATOM      1  S   UNL     1      -4.453   4.991  -0.071  0.00  0.00    +0.025 S 
ATOM      2  O   UNL     1      -4.624   6.202  -0.794  0.00  0.00    -0.164 OA
ATOM      3  O   UNL     1      -5.231   3.831  -0.332  0.00  0.00    -0.164 OA
ENDROOT
BRANCH   1   6
ATOM      4  C   UNL     1      -0.490   5.112  -0.717  0.00  0.00    +0.025 A 
ATOM      5  C   UNL     1      -1.814   5.477  -0.567  0.00  0.00    +0.029 A 
ATOM      6  C   UNL     1      -2.767   4.521  -0.268  0.00  0.00    +0.094 A 
ATOM      7  C   UNL     1      -2.398   3.196  -0.122  0.00  0.00    +0.029 A 
ATOM      8  C   UNL     1      -1.077   2.824  -0.277  0.00  0.00    +0.025 A 
ATOM      9  C   UNL     1      -0.118   3.782  -0.578  0.00  0.00    +0.033 A 
BRANCH   9  10
ATOM     10  N   UNL     1       1.221   3.408  -0.734  0.00  0.00    -0.297 N 
ATOM     11  H   UNL     1       1.922   3.928  -0.310  0.00  0.00    +0.154 HD
BRANCH  10  12
ATOM     12  C   UNL     1       1.536   2.323  -1.468  0.00  0.00    +0.135 C 
ATOM     13  S   UNL     1       0.296   1.344  -2.125  0.00  0.00    -0.019 S 
BRANCH  12  14
ATOM     14  N   UNL     1       2.829   2.009  -1.685  0.00  0.00    -0.316 N 
ATOM     15  H   UNL     1       3.532   2.564  -1.312  0.00  0.00    +0.148 HD
BRANCH  14  16
ATOM     16  C   UNL     1       3.172   0.829  -2.483  0.00  0.00    +0.228 C 
BRANCH  16  17
ATOM     17  C   UNL     1       4.671   0.703  -2.574  0.00  0.00    +0.373 C 
ATOM     18  O   UNL     1       5.380   1.515  -2.028  0.00  0.00    -0.245 OA
ATOM     19  O   UNL     1       5.219  -0.312  -3.261  0.00  0.00    -0.245 OA
ENDBRANCH  16  17
ENDBRANCH  14  16
ENDBRANCH  12  14
ENDBRANCH  10  12
ENDBRANCH   9  10
ENDBRANCH   1   6
BRANCH   1  20
ATOM     20  C   UNL     1      -4.690   5.383   1.631  0.00  0.00    +0.094 A 
ATOM     21  C   UNL     1      -5.080   4.396   2.518  0.00  0.00    +0.029 A 
ATOM     22  C   UNL     1      -5.261   4.699   3.853  0.00  0.00    +0.025 A 
ATOM     23  C   UNL     1      -5.062   5.998   4.303  0.00  0.00    +0.033 A 
ATOM     24  C   UNL     1      -4.675   6.987   3.408  0.00  0.00    +0.025 A 
ATOM     25  C   UNL     1      -4.490   6.677   2.075  0.00  0.00    +0.029 A 
BRANCH  23  26
ATOM     26  N   UNL     1      -5.250   6.309   5.654  0.00  0.00    -0.297 N 
ATOM     27  H   UNL     1      -4.884   5.729   6.340  0.00  0.00    +0.154 HD
BRANCH  26  28
ATOM     28  C   UNL     1      -5.939   7.414   6.001  0.00  0.00    +0.135 C 
ATOM     29  S   UNL     1      -6.491   8.494   4.793  0.00  0.00    -0.019 S 
BRANCH  28  30
ATOM     30  N   UNL     1      -6.193   7.669   7.300  0.00  0.00    -0.316 N 
ATOM     31  H   UNL     1      -5.880   7.057   7.985  0.00  0.00    +0.148 HD
BRANCH  30  32
ATOM     32  C   UNL     1      -6.942   8.870   7.678  0.00  0.00    +0.228 C 
BRANCH  32  33
ATOM     33  C   UNL     1      -7.089   8.919   9.177  0.00  0.00    +0.373 C 
ATOM     34  O   UNL     1      -6.616   8.041   9.860  0.00  0.00    -0.245 OA
ATOM     35  O   UNL     1      -7.744   9.938   9.754  0.00  0.00    -0.245 OA
ENDBRANCH  32  33
ENDBRANCH  30  32
ENDBRANCH  28  30
ENDBRANCH  26  28
ENDBRANCH  23  26
ENDBRANCH   1  20
TORSDOF 12
