REMARK  Name = ZINC14881534
REMARK  11 active torsions:
REMARK  status: ('A' for Active; 'I' for Inactive)
REMARK    1  A    between atoms: C_1  and  C_2
REMARK    2  A    between atoms: C_3  and  C_7
REMARK    3  A    between atoms: C_7  and  N_8
REMARK    4  A    between atoms: N_8  and  C_9
REMARK    5  A    between atoms: C_10  and  C_12
REMARK    6  A    between atoms: C_15  and  S_26
REMARK    7  A    between atoms: C_18  and  C_19
REMARK    8  A    between atoms: C_18  and  N_60
REMARK    9  A    between atoms: S_26  and  C_27
REMARK   10  A    between atoms: C_30  and  O_33
REMARK   11  A    between atoms: O_33  and  C_34
REMARK                            x       y       z     vdW  Elec       q    Type
REMARK                         _______ _______ _______ _____ _____    ______ ____
ROOT
ATOM      1  C   UNL     1       6.119   1.852   0.305  0.00  0.00    +0.021 C 
ATOM      2  C   UNL     1       5.696   0.780  -0.716  0.00  0.00    +0.006 C 
ATOM      3  C   UNL     1       4.180   1.000  -0.928  0.00  0.00    +0.034 C 
ATOM      4  C   UNL     1       3.757   1.755   0.357  0.00  0.00    -0.063 C 
ATOM      5  N   UNL     1       4.910   2.628   0.603  0.00  0.00    +0.391 N 
ATOM      6  H   UNL     1       4.862   3.447  -0.014  0.00  0.00    -0.080 HD
ENDROOT
BRANCH   1   9
ATOM      7  N   UNL     1       8.359   2.218  -0.678  0.00  0.00    -0.300 N 
ATOM      8  C   UNL     1       8.613   0.785  -0.514  0.00  0.00    +0.132 C 
ATOM      9  C   UNL     1       7.178   2.741  -0.293  0.00  0.00    +0.202 C 
ATOM     10  O   UNL     1       6.968   3.928  -0.429  0.00  0.00    -0.277 OA
BRANCH   7  11
ATOM     11  C   UNL     1       9.389   3.083  -1.260  0.00  0.00    +0.168 C 
BRANCH  11  14
ATOM     12  C   UNL     1       9.213   5.806   0.315  0.00  0.00    +0.071 C 
ATOM     13  C   UNL     1      10.262   4.745   0.525  0.00  0.00    +0.106 A 
ATOM     14  C   UNL     1      10.341   3.527  -0.179  0.00  0.00    +0.124 A 
ATOM     15  N   UNL     1      11.359   2.844   0.252  0.00  0.00    -0.052 NA
ATOM     16  O   UNL     1      11.990   3.615   1.262  0.00  0.00    -0.242 OA
ATOM     17  N   UNL     1      11.235   4.810   1.384  0.00  0.00    -0.054 NA
ENDBRANCH  11  14
ENDBRANCH   7  11
ENDBRANCH   1   9
BRANCH   5  18
ATOM     18  C   UNL     1       4.928   3.087   2.025  0.00  0.00    -0.042 C 
BRANCH  18  19
ATOM     19  C   UNL     1       3.587   3.677   2.380  0.00  0.00    -0.063 A 
ATOM     20  C   UNL     1       3.359   5.029   2.206  0.00  0.00    +0.002 A 
ATOM     21  C   UNL     1       2.128   5.570   2.526  0.00  0.00    +0.002 A 
ATOM     22  C   UNL     1       1.128   4.761   3.032  0.00  0.00    +0.020 A 
ATOM     23  C   UNL     1       1.357   3.409   3.212  0.00  0.00    +0.041 A 
ATOM     24  C   UNL     1       2.588   2.867   2.885  0.00  0.00    +0.021 A 
ATOM     25 CL   UNL     1       0.102   2.392   3.847  0.00  0.00    -0.084 Cl
ENDBRANCH  18  19
ENDBRANCH   5  18
BRANCH   3  26
ATOM     26  S   UNL     1       3.313  -0.588  -1.055  0.00  0.00    -0.124 S 
BRANCH  26  27
ATOM     27  C   UNL     1       1.653  -0.138  -1.437  0.00  0.00    +0.008 A 
ATOM     28  C   UNL     1       0.688  -1.122  -1.609  0.00  0.00    +0.018 A 
ATOM     29  C   UNL     1      -0.612  -0.768  -1.913  0.00  0.00    +0.047 A 
ATOM     30  C   UNL     1      -0.956   0.570  -2.036  0.00  0.00    +0.120 A 
ATOM     31  C   UNL     1       0.006   1.553  -1.864  0.00  0.00    +0.047 A 
ATOM     32  C   UNL     1       1.308   1.202  -1.565  0.00  0.00    +0.018 A 
BRANCH  30  33
ATOM     33  O   UNL     1      -2.238   0.917  -2.329  0.00  0.00    -0.495 OA
ATOM     34  C   UNL     1      -3.178  -0.147  -2.493  0.00  0.00    +0.277 C 
ENDBRANCH  30  33
ENDBRANCH  26  27
ENDBRANCH   3  26
TORSDOF 8
