REMARK  Name = ZINC13064987
REMARK  12 active torsions:
REMARK  status: ('A' for Active; 'I' for Inactive)
REMARK    1  A    between atoms: C_1  and  C_2
REMARK    2  A    between atoms: C_2  and  C_3
REMARK    3  A    between atoms: C_3  and  C_5
REMARK    4  A    between atoms: C_3  and  N_72
REMARK    5  A    between atoms: N_9  and  C_10
REMARK    6  A    between atoms: C_10  and  C_11
REMARK    7  A    between atoms: C_11  and  C_12
REMARK    8  A    between atoms: C_18  and  C_19
REMARK    9  A    between atoms: C_18  and  N_72
REMARK   10  A    between atoms: C_22  and  C_32
REMARK   11  A    between atoms: C_24  and  C_31
REMARK   12  A    between atoms: C_33  and  N_72
REMARK                            x       y       z     vdW  Elec       q    Type
REMARK                         _______ _______ _______ _____ _____    ______ ____
ROOT
ATOM      1  N   UNL     1      -0.629   2.137  -1.216  0.00  0.00    +0.391 N 
ATOM      2  H   UNL     1      -1.556   1.743  -1.019  0.00  0.00    -0.080 HD
ENDROOT
BRANCH   1   3
ATOM      3  C   UNL     1      -0.225   1.755  -2.585  0.00  0.00    -0.067 C 
ATOM      4  C   UNL     1       1.242   2.147  -2.861  0.00  0.00    -0.015 C 
ATOM      5  C   UNL     1       1.241   2.599  -4.343  0.00  0.00    -0.002 C 
ATOM      6  C   UNL     1      -0.111   3.345  -4.473  0.00  0.00    -0.002 C 
ATOM      7  C   UNL     1      -1.084   2.516  -3.610  0.00  0.00    -0.015 C 
ENDBRANCH   1   3
BRANCH   1   8
ATOM      8  C   UNL     1       0.338   1.600  -0.235  0.00  0.00    +0.003 C 
BRANCH   8   9
ATOM      9  C   UNL     1       0.804   0.240  -0.687  0.00  0.00    +0.138 A 
ATOM     10  N   UNL     1       0.056  -0.724  -1.165  0.00  0.00    -0.115 NA
ATOM     11  N   UNL     1       0.821  -1.724  -1.437  0.00  0.00    -0.023 NA
ATOM     12  N   UNL     1       2.038  -1.423  -1.144  0.00  0.00    -0.044 NA
ATOM     13  N   UNL     1       2.069  -0.218  -0.684  0.00  0.00    -0.231 N 
BRANCH  13  14
ATOM     14  C   UNL     1       3.258   0.513  -0.239  0.00  0.00    +0.152 C 
BRANCH  14  15
ATOM     15  C   UNL     1       3.484   0.258   1.253  0.00  0.00    +0.058 C 
BRANCH  15  16
ATOM     16  C   UNL     1       4.707   1.010   1.711  0.00  0.00    -0.046 A 
ATOM     17  C   UNL     1       5.949   0.405   1.661  0.00  0.00    +0.004 A 
ATOM     18  C   UNL     1       7.072   1.096   2.077  0.00  0.00    +0.000 A 
ATOM     19  C   UNL     1       6.951   2.389   2.552  0.00  0.00    +0.000 A 
ATOM     20  C   UNL     1       5.709   2.992   2.607  0.00  0.00    +0.000 A 
ATOM     21  C   UNL     1       4.587   2.302   2.186  0.00  0.00    +0.004 A 
ENDBRANCH  15  16
ENDBRANCH  14  15
ENDBRANCH  13  14
ENDBRANCH   8   9
BRANCH   8  23
ATOM     22  C   UNL     1      -1.466   0.424   1.031  0.00  0.00    +0.002 C 
ATOM     23  C   UNL     1      -0.359   1.476   1.121  0.00  0.00    -0.011 C 
ENDBRANCH   8  23
ENDBRANCH   1   8
BRANCH   1  24
ATOM     24  C   UNL     1      -0.699   3.610  -1.102  0.00  0.00    -0.036 C 
BRANCH  24  25
ATOM     25  C   UNL     1       0.682   4.192  -0.945  0.00  0.00    +0.001 A 
ATOM     26  C   UNL     1       1.312   4.736  -2.015  0.00  0.00    +0.017 A 
ATOM     27  C   UNL     1       2.651   5.298  -1.829  0.00  0.00    +0.002 A 
ATOM     28  C   UNL     1       3.348   5.876  -2.894  0.00  0.00    -0.041 A 
ATOM     29  C   UNL     1       4.598   6.388  -2.688  0.00  0.00    +0.007 A 
ATOM     30  C   UNL     1       5.182   6.338  -1.430  0.00  0.00    -0.048 A 
ATOM     31  C   UNL     1       4.514   5.773  -0.365  0.00  0.00    +0.029 A 
ATOM     32  C   UNL     1       3.240   5.245  -0.551  0.00  0.00    +0.050 A 
ATOM     33  N   UNL     1       2.549   4.675   0.496  0.00  0.00    -0.322 N 
ATOM     34  H   UNL     1       2.956   4.640   1.375  0.00  0.00    +0.169 HD
ATOM     35  C   UNL     1       1.317   4.166   0.315  0.00  0.00    +0.251 A 
ATOM     36  O   UNL     1       0.735   3.668   1.264  0.00  0.00    -0.268 OA
ATOM     37  C   UNL     1       6.562   6.909  -1.226  0.00  0.00    +0.044 C 
ATOM     38  C   UNL     1       2.723   5.934  -4.264  0.00  0.00    +0.044 C 
ENDBRANCH  24  25
ENDBRANCH   1  24
TORSDOF 9
