REMARK  Name = ZINC35246839
REMARK  12 active torsions:
REMARK  status: ('A' for Active; 'I' for Inactive)
REMARK    1  A    between atoms: C_1  and  C_2
REMARK    2  A    between atoms: C_2  and  O_3
REMARK    3  A    between atoms: O_3  and  C_4
REMARK    4  A    between atoms: C_4  and  C_6
REMARK    5  A    between atoms: C_13  and  C_15
REMARK    6  A    between atoms: C_18  and  C_20
REMARK    7  A    between atoms: C_20  and  N_21
REMARK    8  A    between atoms: N_21  and  C_22
REMARK    9  A    between atoms: N_21  and  C_30
REMARK   10  A    between atoms: C_22  and  C_23
REMARK   11  A    between atoms: C_26  and  C_29
REMARK   12  A    between atoms: C_30  and  C_31
REMARK                            x       y       z     vdW  Elec       q    Type
REMARK                         _______ _______ _______ _____ _____    ______ ____
ROOT
ATOM      1  C   UNL     1      -9.687  -5.261  -2.856  0.00  0.00    -0.002 C 
ENDROOT
BRANCH   1   5
ATOM      2  C   UNL     1      -6.882  -2.941  -3.152  0.00  0.00    +0.190 A 
ATOM      3  C   UNL     1      -7.783  -2.308  -3.960  0.00  0.00    +0.055 A 
ATOM      4  C   UNL     1      -8.948  -3.090  -3.956  0.00  0.00    +0.043 A 
ATOM      5  C   UNL     1      -8.710  -4.153  -3.156  0.00  0.00    +0.090 A 
ATOM      6  O   UNL     1      -7.463  -4.062  -2.678  0.00  0.00    -0.457 OA
BRANCH   2  13
ATOM      7  C   UNL     1      -3.148  -2.466  -0.243  0.00  0.00    +0.115 C 
ATOM      8  C   UNL     1      -3.629  -3.651   0.598  0.00  0.00    +0.018 C 
ATOM      9  C   UNL     1      -5.126  -3.868   0.367  0.00  0.00    +0.020 C 
ATOM     10  C   UNL     1      -5.369  -4.193  -1.110  0.00  0.00    +0.108 C 
ATOM     11  N   UNL     1      -4.779  -3.128  -1.932  0.00  0.00    -0.294 N 
ATOM     12  C   UNL     1      -3.368  -2.775  -1.727  0.00  0.00    +0.122 C 
ATOM     13  C   UNL     1      -5.519  -2.485  -2.857  0.00  0.00    +0.282 C 
ATOM     14  O   UNL     1      -5.057  -1.527  -3.448  0.00  0.00    -0.267 OA
BRANCH   7  15
ATOM     15  C   UNL     1      -1.680  -2.233   0.010  0.00  0.00    +0.312 C 
ATOM     16  O   UNL     1      -1.081  -2.941   0.785  0.00  0.00    -0.250 OA
BRANCH  15  17
ATOM     17  O   UNL     1      -1.039  -1.240  -0.625  0.00  0.00    -0.465 OA
BRANCH  17  19
ATOM     18  C   UNL     1       0.905   0.097  -1.148  0.00  0.00    +0.048 C 
ATOM     19  C   UNL     1       0.351  -1.076  -0.337  0.00  0.00    +0.229 C 
ENDBRANCH  17  19
ENDBRANCH  15  17
ENDBRANCH   7  15
ENDBRANCH   2  13
ENDBRANCH   1   5
BRANCH   1  20
ATOM     20  N   UNL     1      -9.531  -6.334  -3.847  0.00  0.00    +0.390 N 
ATOM     21  H   UNL     1      -9.629  -5.951  -4.775  0.00  0.00    -0.080 HD
BRANCH  20  22
ATOM     22  C   UNL     1     -10.561  -7.357  -3.627  0.00  0.00    -0.042 C 
BRANCH  22  23
ATOM     23  C   UNL     1     -11.917  -6.781  -3.942  0.00  0.00    -0.064 A 
ATOM     24  C   UNL     1     -12.703  -6.268  -2.927  0.00  0.00    +0.002 A 
ATOM     25  C   UNL     1     -13.947  -5.739  -3.216  0.00  0.00    +0.003 A 
ATOM     26  C   UNL     1     -14.405  -5.723  -4.520  0.00  0.00    -0.050 A 
ATOM     27  C   UNL     1     -13.619  -6.235  -5.535  0.00  0.00    +0.003 A 
ATOM     28  C   UNL     1     -12.373  -6.760  -5.247  0.00  0.00    +0.002 A 
ATOM     29  C   UNL     1     -15.762  -5.148  -4.835  0.00  0.00    +0.044 C 
ENDBRANCH  22  23
ENDBRANCH  20  22
BRANCH  20  30
ATOM     30  C   UNL     1      -8.200  -6.940  -3.706  0.00  0.00    -0.042 C 
BRANCH  30  31
ATOM     31  C   UNL     1      -7.947  -7.871  -4.864  0.00  0.00    -0.061 A 
ATOM     32  C   UNL     1      -8.195  -9.225  -4.729  0.00  0.00    +0.002 A 
ATOM     33  C   UNL     1      -7.963 -10.079  -5.790  0.00  0.00    +0.003 A 
ATOM     34  C   UNL     1      -7.484  -9.582  -6.987  0.00  0.00    +0.038 A 
ATOM     35  C   UNL     1      -7.235  -8.227  -7.123  0.00  0.00    +0.124 A 
ATOM     36  C   UNL     1      -7.473  -7.371  -6.061  0.00  0.00    +0.040 A 
ATOM     37  F   UNL     1      -6.766  -7.740  -8.293  0.00  0.00    -0.205 F 
ENDBRANCH  30  31
ENDBRANCH  20  30
ENDBRANCH   1  20
TORSDOF 10
