REMARK  Name = ZINC06052723
REMARK  6 active torsions:
REMARK  status: ('A' for Active; 'I' for Inactive)
REMARK    1  A    between atoms: C_1  and  C_2
REMARK    2  A    between atoms: C_7  and  C_8
REMARK    3  A    between atoms: C_10  and  C_17
REMARK    4  A    between atoms: C_11  and  C_16
REMARK    5  A    between atoms: N_19  and  C_20
REMARK    6  A    between atoms: C_23  and  N_26
REMARK                            x       y       z     vdW  Elec       q    Type
REMARK                         _______ _______ _______ _____ _____    ______ ____
ROOT
ATOM      1  C   UNL     1      -0.332   4.040  -0.538  0.00  0.00    +0.142 C 
ATOM      2  C   UNL     1      -1.706   4.017   0.099  0.00  0.00    +0.056 C 
ATOM      3  C   UNL     1      -2.134   2.852   0.627  0.00  0.00    +0.019 C 
ATOM      4  N   UNL     1      -1.349   1.733   0.598  0.00  0.00    -0.273 N 
ATOM      5  C   UNL     1      -0.129   1.697   0.048  0.00  0.00    +0.304 C 
ATOM      6  O   UNL     1       0.493   0.653   0.065  0.00  0.00    -0.252 OA
ATOM      7  N   UNL     1       0.432   2.781  -0.523  0.00  0.00    -0.288 N 
ATOM      8  C   UNL     1      -3.498   2.783   1.266  0.00  0.00    +0.061 C 
ATOM      9  H   UNL     1      -1.698   0.919   0.993  0.00  0.00    +0.156 HD
ATOM     10  H   UNL     1       1.318   2.733  -0.916  0.00  0.00    +0.151 HD
ENDROOT
BRANCH   1  17
ATOM     11  C   UNL     1       1.659   5.540  -1.999  0.00  0.00    +0.044 C 
ATOM     12  C   UNL     1       1.441   5.807  -0.532  0.00  0.00    -0.045 A 
ATOM     13  C   UNL     1       2.191   6.772   0.114  0.00  0.00    +0.004 A 
ATOM     14  C   UNL     1       1.994   7.014   1.460  0.00  0.00    +0.000 A 
ATOM     15  C   UNL     1       1.045   6.293   2.161  0.00  0.00    +0.000 A 
ATOM     16  C   UNL     1       0.293   5.330   1.514  0.00  0.00    +0.006 A 
ATOM     17  C   UNL     1       0.489   5.089   0.167  0.00  0.00    -0.020 A 
ENDBRANCH   1  17
BRANCH   2  18
ATOM     18  C   UNL     1      -2.517   5.178   0.134  0.00  0.00    +0.248 C 
ATOM     19  O   UNL     1      -3.633   5.127   0.616  0.00  0.00    -0.270 OA
ATOM     20  N   UNL     1      -2.052   6.340  -0.367  0.00  0.00    -0.282 N 
ATOM     21  H   UNL     1      -1.174   6.374  -0.779  0.00  0.00    +0.155 HD
BRANCH  20  22
ATOM     22  C   UNL     1      -2.834   7.497  -0.292  0.00  0.00    +0.034 A 
ATOM     23  C   UNL     1      -4.216   7.410  -0.399  0.00  0.00    +0.025 A 
ATOM     24  C   UNL     1      -4.987   8.553  -0.319  0.00  0.00    +0.034 A 
ATOM     25  C   UNL     1      -4.383   9.785  -0.145  0.00  0.00    +0.126 A 
ATOM     26  C   UNL     1      -3.006   9.875  -0.044  0.00  0.00    +0.034 A 
ATOM     27  C   UNL     1      -2.231   8.735  -0.117  0.00  0.00    +0.025 A 
BRANCH  25  28
ATOM     28  N   UNL     1      -5.211  11.009  -0.065  0.00  0.00    +0.056 N 
ATOM     29  O   UNL     1      -4.680  12.095   0.088  0.00  0.00    -0.126 OA
ATOM     30  O   UNL     1      -6.423  10.931  -0.154  0.00  0.00    -0.126 OA
ENDBRANCH  25  28
ENDBRANCH  20  22
ENDBRANCH   2  18
TORSDOF 4
