REMARK  Name = ZINC63866895
REMARK  13 active torsions:
REMARK  status: ('A' for Active; 'I' for Inactive)
REMARK    1  A    between atoms: C_1  and  C_2
REMARK    2  A    between atoms: C_5  and  C_29
REMARK    3  A    between atoms: C_6  and  N_8
REMARK    4  A    between atoms: C_9  and  C_11
REMARK    5  A    between atoms: C_11  and  C_27
REMARK    6  A    between atoms: C_12  and  C_13
REMARK    7  A    between atoms: C_15  and  C_26
REMARK    8  A    between atoms: C_16  and  O_20
REMARK    9  A    between atoms: C_17  and  C_19
REMARK   10  A    between atoms: O_20  and  C_21
REMARK   11  A    between atoms: C_21  and  C_22
REMARK   12  A    between atoms: C_22  and  O_24
REMARK   13  A    between atoms: O_24  and  C_25
REMARK                            x       y       z     vdW  Elec       q    Type
REMARK                         _______ _______ _______ _____ _____    ______ ____
ROOT
ATOM      1  C   UNL     1       1.054  -2.875   5.234  0.00  0.00    +0.114 C 
ATOM      2  C   UNL     1       0.246  -2.211   6.132  0.00  0.00    +0.032 C 
ENDROOT
BRANCH   2   3
ATOM      3  C   UNL     1       0.223  -0.747   6.151  0.00  0.00    -0.023 A 
ATOM      4  C   UNL     1       0.094  -0.029   4.953  0.00  0.00    +0.015 A 
ATOM      5  C   UNL     1       0.072   1.337   4.978  0.00  0.00    -0.008 A 
ATOM      6  C   UNL     1       0.178   2.015   6.188  0.00  0.00    +0.127 A 
ATOM      7  C   UNL     1       0.306   1.309   7.379  0.00  0.00    -0.008 A 
ATOM      8  C   UNL     1       0.322  -0.057   7.368  0.00  0.00    +0.015 A 
ATOM      9  C   UNL     1       0.420   2.052   8.685  0.00  0.00    +0.047 C 
ATOM     10  C   UNL     1      -0.065   2.110   3.692  0.00  0.00    +0.047 C 
BRANCH   6  11
ATOM     11  O   UNL     1       0.156   3.372   6.206  0.00  0.00    -0.480 OA
BRANCH  11  12
ATOM     12  C   UNL     1      -1.122   3.998   6.337  0.00  0.00    +0.349 C 
BRANCH  12  13
ATOM     13  C   UNL     1      -0.950   5.495   6.338  0.00  0.00    +0.345 C 
ATOM     14  O   UNL     1       0.154   5.977   6.236  0.00  0.00    -0.247 OA
BRANCH  13  15
ATOM     15  O   UNL     1      -2.022   6.294   6.451  0.00  0.00    -0.466 OA
ATOM     16  C   UNL     1      -1.785   7.704   6.445  0.00  0.00    +0.280 C 
ENDBRANCH  13  15
ENDBRANCH  12  13
ENDBRANCH  11  12
ENDBRANCH   6  11
ENDBRANCH   2   3
BRANCH   1  18
ATOM     17  N   UNL     1       2.741  -2.751   3.473  0.00  0.00    -0.281 N 
ATOM     18  C   UNL     1       2.047  -2.129   4.447  0.00  0.00    +0.259 C 
ATOM     19  O   UNL     1       2.243  -0.950   4.675  0.00  0.00    -0.269 OA
ATOM     20  H   UNL     1       2.530  -3.668   3.239  0.00  0.00    +0.155 HD
BRANCH  17  26
ATOM     21  C   UNL     1       6.123   0.816   3.409  0.00  0.00    +0.044 C 
ATOM     22  C   UNL     1       5.421  -0.342   2.747  0.00  0.00    -0.049 A 
ATOM     23  C   UNL     1       5.788  -0.736   1.473  0.00  0.00    +0.004 A 
ATOM     24  C   UNL     1       5.146  -1.797   0.862  0.00  0.00    +0.005 A 
ATOM     25  C   UNL     1       4.135  -2.467   1.522  0.00  0.00    -0.029 A 
ATOM     26  C   UNL     1       3.764  -2.075   2.802  0.00  0.00    +0.037 A 
ATOM     27  C   UNL     1       4.415  -1.012   3.415  0.00  0.00    +0.027 A 
ATOM     28  C   UNL     1       3.436  -3.624   0.856  0.00  0.00    +0.045 C 
ENDBRANCH  17  26
ENDBRANCH   1  18
BRANCH   1  29
ATOM     29  C   UNL     1       0.925  -4.291   5.068  0.00  0.00    +0.104 C 
ATOM     30  N   UNL     1       0.824  -5.415   4.935  0.00  0.00    -0.191 NA
ENDBRANCH   1  29
TORSDOF 8
