REMARK  Name = ZINC35641569
REMARK  11 active torsions:
REMARK  status: ('A' for Active; 'I' for Inactive)
REMARK    1  A    between atoms: C_1  and  C_2
REMARK    2  A    between atoms: C_2  and  N_3
REMARK    3  A    between atoms: C_4  and  C_23
REMARK    4  A    between atoms: C_5  and  C_18
REMARK    5  A    between atoms: C_6  and  C_11
REMARK    6  A    between atoms: C_15  and  C_17
REMARK    7  A    between atoms: C_18  and  O_20
REMARK    8  A    between atoms: O_20  and  C_21
REMARK    9  A    between atoms: C_21  and  C_22
REMARK   10  A    between atoms: C_23  and  N_24
REMARK   11  A    between atoms: C_27  and  C_30
REMARK                            x       y       z     vdW  Elec       q    Type
REMARK                         _______ _______ _______ _____ _____    ______ ____
ROOT
ATOM      1  N   UNL     1       0.679  -0.647   1.400  0.00  0.00    -0.261 N 
ATOM      2  C   UNL     1       1.997  -0.781   1.069  0.00  0.00    +0.010 C 
ATOM      3  C   UNL     1       2.903  -1.212   1.973  0.00  0.00    +0.076 C 
ATOM      4  C   UNL     1       2.407  -1.540   3.366  0.00  0.00    +0.143 C 
ATOM      5  N   UNL     1       0.968  -1.362   3.622  0.00  0.00    -0.288 N 
ATOM      6  C   UNL     1       0.188  -0.918   2.616  0.00  0.00    +0.307 C 
ATOM      7  O   UNL     1      -1.001  -0.763   2.818  0.00  0.00    -0.252 OA
ATOM      8  H   UNL     1       0.590  -1.556   4.494  0.00  0.00    +0.151 HD
ENDROOT
BRANCH   4   9
ATOM      9  C   UNL     1       2.754  -2.978   3.656  0.00  0.00    -0.022 A 
ATOM     10  C   UNL     1       1.968  -3.995   3.147  0.00  0.00    +0.006 A 
ATOM     11  C   UNL     1       2.287  -5.314   3.413  0.00  0.00    +0.001 A 
ATOM     12  C   UNL     1       3.392  -5.615   4.187  0.00  0.00    +0.003 A 
ATOM     13  C   UNL     1       4.178  -4.598   4.695  0.00  0.00    -0.050 A 
ATOM     14  C   UNL     1       3.862  -3.280   4.426  0.00  0.00    +0.009 A 
ATOM     15  C   UNL     1       5.382  -4.927   5.539  0.00  0.00    +0.044 C 
ENDBRANCH   4   9
BRANCH   1  17
ATOM     16  C   UNL     1      -0.407   1.344   0.483  0.00  0.00    +0.025 C 
ATOM     17  C   UNL     1      -0.249  -0.174   0.370  0.00  0.00    +0.111 C 
ENDBRANCH   1  17
BRANCH   3  18
ATOM     18  C   UNL     1       4.268  -1.352   1.631  0.00  0.00    +0.339 C 
ATOM     19  O   UNL     1       4.657  -1.014   0.528  0.00  0.00    -0.245 OA
BRANCH  18  20
ATOM     20  O   UNL     1       5.139  -1.861   2.526  0.00  0.00    -0.462 OA
BRANCH  20  21
ATOM     21  C   UNL     1       6.503  -1.974   2.113  0.00  0.00    +0.229 C 
ATOM     22  C   UNL     1       7.334  -2.567   3.253  0.00  0.00    +0.048 C 
ENDBRANCH  20  21
ENDBRANCH  18  20
ENDBRANCH   3  18
BRANCH   2  23
ATOM     23  C   UNL     1       2.448  -0.443  -0.329  0.00  0.00    -0.026 C 
BRANCH  23  24
ATOM     24  N   UNL     1       2.255  -1.609  -1.201  0.00  0.00    +0.383 N 
ATOM     25  C   UNL     1       3.138  -2.697  -0.764  0.00  0.00    -0.078 C 
ATOM     26  C   UNL     1       2.884  -3.941  -1.617  0.00  0.00    -0.016 C 
ATOM     27  C   UNL     1       3.166  -3.611  -3.086  0.00  0.00    -0.018 C 
ATOM     28  C   UNL     1       2.292  -2.427  -3.510  0.00  0.00    -0.016 C 
ATOM     29  C   UNL     1       2.569  -1.239  -2.587  0.00  0.00    -0.078 C 
ATOM     30  C   UNL     1       2.837  -4.827  -3.955  0.00  0.00    +0.007 C 
ATOM     31  H   UNL     1       1.295  -1.915  -1.145  0.00  0.00    -0.081 HD
ENDBRANCH  23  24
ENDBRANCH   2  23
TORSDOF 7
