REMARK  Name = ZINC09956968
REMARK  7 active torsions:
REMARK  status: ('A' for Active; 'I' for Inactive)
REMARK    1  A    between atoms: C_1  and  C_2
REMARK    2  A    between atoms: C_3  and  C_32
REMARK    3  A    between atoms: C_11  and  C_13
REMARK    4  A    between atoms: C_13  and  C_15
REMARK    5  A    between atoms: C_13  and  S_16
REMARK    6  A    between atoms: S_16  and  C_17
REMARK    7  A    between atoms: C_20  and  C_22
REMARK                            x       y       z     vdW  Elec       q    Type
REMARK                         _______ _______ _______ _____ _____    ______ ____
ROOT
ATOM      1  S   UNL     1       0.002  -0.004   0.002  0.00  0.00    -0.055 S 
ENDROOT
BRANCH   1   2
ATOM      2  C   UNL     1      -0.022   1.758   0.012  0.00  0.00    +0.278 A 
ATOM      3  N   UNL     1      -1.089   2.519   0.020  0.00  0.00    -0.101 NA
ATOM      4  N   UNL     1      -0.735   3.756   0.029  0.00  0.00    -0.106 NA
ATOM      5  C   UNL     1       0.575   3.834   0.017  0.00  0.00    +0.251 A 
ATOM      6  O   UNL     1       1.054   2.570   0.006  0.00  0.00    -0.411 OA
BRANCH   5   7
ATOM      7  C   UNL     1       1.377   5.072   0.015  0.00  0.00    +0.063 A 
ATOM      8  C   UNL     1       2.732   5.162   0.008  0.00  0.00    +0.097 A 
ATOM      9  N   UNL     1       3.107   6.473   0.006  0.00  0.00    -0.360 N 
ATOM     10  H   UNL     1       4.024   6.788  -0.001  0.00  0.00    +0.165 HD
ATOM     11  C   UNL     1       1.994   7.287   0.020  0.00  0.00    +0.047 A 
ATOM     12  C   UNL     1       0.863   6.453   0.026  0.00  0.00    +0.012 A 
ATOM     13  C   UNL     1      -0.414   7.009   0.041  0.00  0.00    +0.011 A 
ATOM     14  C   UNL     1      -0.561   8.379   0.049  0.00  0.00    +0.001 A 
ATOM     15  C   UNL     1       0.555   9.204   0.043  0.00  0.00    +0.002 A 
ATOM     16  C   UNL     1       1.824   8.668   0.028  0.00  0.00    +0.026 A 
ENDBRANCH   5   7
ENDBRANCH   1   2
BRANCH   1  17
ATOM     17  C   UNL     1      -1.776  -0.343   0.017  0.00  0.00    +0.119 C 
ATOM     18  C   UNL     1      -2.403   0.168  -1.282  0.00  0.00    +0.027 C 
BRANCH  17  29
ATOM     19  C   UNL     1      -3.557  -6.720   1.069  0.00  0.00    +0.045 C 
ATOM     20  C   UNL     1      -2.459  -5.986   0.342  0.00  0.00    -0.026 A 
ATOM     21  C   UNL     1      -1.509  -6.666  -0.319  0.00  0.00    -0.008 A 
ATOM     22  S   UNL     1      -0.473  -5.380  -0.991  0.00  0.00    -0.073 S 
ATOM     23  C   UNL     1      -1.345  -3.968  -0.364  0.00  0.00    +0.116 A 
ATOM     24  C   UNL     1      -2.417  -4.535   0.349  0.00  0.00    +0.075 A 
ATOM     25  C   UNL     1      -3.307  -3.603   0.976  0.00  0.00    +0.260 A 
ATOM     26  O   UNL     1      -4.266  -3.997   1.617  0.00  0.00    -0.267 OA
ATOM     27  N   UNL     1      -3.063  -2.285   0.850  0.00  0.00    -0.309 N 
ATOM     28  H   UNL     1      -3.660  -1.649   1.275  0.00  0.00    +0.170 HD
ATOM     29  C   UNL     1      -2.003  -1.828   0.135  0.00  0.00    +0.124 A 
ATOM     30  N   UNL     1      -1.175  -2.652  -0.448  0.00  0.00    -0.225 NA
ATOM     31  C   UNL     1      -1.355  -8.158  -0.460  0.00  0.00    +0.052 C 
ENDBRANCH  17  29
ENDBRANCH   1  17
TORSDOF 4
