REMARK  Name = ZINC37400798
REMARK  13 active torsions:
REMARK  status: ('A' for Active; 'I' for Inactive)
REMARK    1  A    between atoms: C_1  and  C_2
REMARK    2  A    between atoms: C_2  and  N_3
REMARK    3  A    between atoms: N_6  and  C_7
REMARK    4  A    between atoms: N_6  and  C_30
REMARK    5  A    between atoms: C_7  and  C_8
REMARK    6  A    between atoms: C_11  and  O_28
REMARK    7  A    between atoms: C_12  and  O_14
REMARK    8  A    between atoms: O_14  and  S_15
REMARK    9  A    between atoms: S_15  and  C_18
REMARK   10  A    between atoms: C_21  and  N_24
REMARK   11  A    between atoms: C_25  and  C_27
REMARK   12  A    between atoms: O_28  and  C_29
REMARK   13  A    between atoms: C_30  and  C_31
REMARK                            x       y       z     vdW  Elec       q    Type
REMARK                         _______ _______ _______ _____ _____    ______ ____
ROOT
ATOM      1  C   UNL     1      -3.204  -4.266   1.467  0.00  0.00    -0.026 A 
ATOM      2  C   UNL     1      -2.059  -4.694   2.111  0.00  0.00    +0.009 A 
ATOM      3  C   UNL     1      -2.124  -5.149   3.415  0.00  0.00    +0.050 A 
ATOM      4  C   UNL     1      -3.340  -5.176   4.079  0.00  0.00    +0.164 A 
ATOM      5  C   UNL     1      -4.493  -4.744   3.431  0.00  0.00    +0.198 A 
ATOM      6  C   UNL     1      -4.420  -4.285   2.126  0.00  0.00    +0.057 A 
ENDROOT
BRANCH   4   7
ATOM      7  O   UNL     1      -3.406  -5.624   5.362  0.00  0.00    -0.491 OA
ATOM      8  C   UNL     1      -2.183  -6.051   5.963  0.00  0.00    +0.277 C 
ENDBRANCH   4   7
BRANCH   1   9
ATOM      9  C   UNL     1      -3.127  -3.771   0.046  0.00  0.00    +0.144 C 
BRANCH   9  13
ATOM     10  N   UNL     1      -1.374  -0.538   0.034  0.00  0.00    -0.299 N 
ATOM     11  C   UNL     1      -1.608  -1.866   0.035  0.00  0.00    +0.303 C 
ATOM     12  O   UNL     1      -0.676  -2.647   0.029  0.00  0.00    -0.253 OA
ATOM     13  N   UNL     1      -2.874  -2.328   0.044  0.00  0.00    -0.279 N 
ATOM     14  H   UNL     1      -2.118   0.085   0.039  0.00  0.00    +0.150 HD
BRANCH  10  16
ATOM     15  C   UNL     1      -0.013   1.493   0.025  0.00  0.00    +0.024 C 
ATOM     16  C   UNL     1       0.002  -0.037   0.025  0.00  0.00    +0.102 C 
ENDBRANCH  10  16
BRANCH  13  17
ATOM     17  C   UNL     1      -3.997  -1.387   0.052  0.00  0.00    +0.141 C 
BRANCH  17  18
ATOM     18  C   UNL     1      -4.398  -1.059  -1.387  0.00  0.00    +0.136 C 
ATOM     19  C   UNL     1      -5.562  -0.037  -1.402  0.00  0.00    +0.035 C 
ATOM     20  C   UNL     1      -5.366   0.614  -2.799  0.00  0.00    +0.031 C 
ATOM     21  C   UNL     1      -3.830   0.597  -2.955  0.00  0.00    +0.160 C 
ATOM     22  O   UNL     1      -3.315  -0.407  -2.070  0.00  0.00    -0.375 OA
ENDBRANCH  17  18
ENDBRANCH  13  17
ENDBRANCH   9  13
ENDBRANCH   1   9
BRANCH   5  23
ATOM     23  O   UNL     1      -5.689  -4.769   4.079  0.00  0.00    -0.339 OA
BRANCH  23  24
ATOM     24  S   UNL     1      -6.009  -3.487   4.836  0.00  0.00    +0.151 S 
ATOM     25  O   UNL     1      -7.169  -3.754   5.612  0.00  0.00    -0.131 OA
ATOM     26  O   UNL     1      -4.790  -3.043   5.415  0.00  0.00    -0.131 OA
BRANCH  24  27
ATOM     27  C   UNL     1      -6.469  -2.277   3.640  0.00  0.00    +0.128 A 
ATOM     28  C   UNL     1      -5.504  -1.465   3.074  0.00  0.00    +0.032 A 
ATOM     29  C   UNL     1      -5.862  -0.516   2.137  0.00  0.00    +0.025 A 
ATOM     30  C   UNL     1      -7.192  -0.377   1.764  0.00  0.00    +0.033 A 
ATOM     31  C   UNL     1      -8.159  -1.195   2.334  0.00  0.00    +0.025 A 
ATOM     32  C   UNL     1      -7.794  -2.146   3.267  0.00  0.00    +0.032 A 
BRANCH  30  33
ATOM     33  N   UNL     1      -7.558   0.584   0.815  0.00  0.00    -0.286 N 
ATOM     34  C   UNL     1      -8.559   0.329  -0.051  0.00  0.00    +0.214 C 
ATOM     35  O   UNL     1      -9.197  -0.698   0.044  0.00  0.00    -0.276 OA
ATOM     36  C   UNL     1      -8.885   1.321  -1.139  0.00  0.00    +0.109 C 
ATOM     37  H   UNL     1      -7.091   1.434   0.781  0.00  0.00    +0.155 HD
ENDBRANCH  30  33
ENDBRANCH  24  27
ENDBRANCH  23  24
ENDBRANCH   5  23
TORSDOF 10
