REMARK  Name = ZINC06378321
REMARK  7 active torsions:
REMARK  status: ('A' for Active; 'I' for Inactive)
REMARK    1  A    between atoms: C_1  and  C_2
REMARK    2  A    between atoms: C_3  and  C_18
REMARK    3  A    between atoms: C_4  and  C_10
REMARK    4  A    between atoms: C_13  and  C_16
REMARK    5  A    between atoms: N_20  and  C_21
REMARK    6  A    between atoms: C_24  and  O_27
REMARK    7  A    between atoms: O_27  and  C_28
REMARK                            x       y       z     vdW  Elec       q    Type
REMARK                         _______ _______ _______ _____ _____    ______ ____
ROOT
ATOM      1  C   UNL     1       0.175   4.481  -0.741  0.00  0.00    +0.061 C 
ATOM      2  C   UNL     1      -0.059   3.138  -0.099  0.00  0.00    +0.019 C 
ATOM      3  C   UNL     1      -1.306   2.794   0.283  0.00  0.00    +0.056 C 
ATOM      4  C   UNL     1      -1.499   1.432   0.918  0.00  0.00    +0.142 C 
ATOM      5  N   UNL     1      -0.299   0.595   1.079  0.00  0.00    -0.288 N 
ATOM      6  C   UNL     1       0.883   1.078   0.647  0.00  0.00    +0.304 C 
ATOM      7  O   UNL     1       1.879   0.392   0.771  0.00  0.00    -0.252 OA
ATOM      8  N   UNL     1       0.995   2.289   0.086  0.00  0.00    -0.273 N 
ATOM      9  H   UNL     1      -0.358  -0.285   1.482  0.00  0.00    +0.151 HD
ATOM     10  H   UNL     1       1.874   2.579  -0.204  0.00  0.00    +0.156 HD
ENDROOT
BRANCH   4  11
ATOM     11  C   UNL     1      -2.104   1.643   2.283  0.00  0.00    -0.022 A 
ATOM     12  C   UNL     1      -1.306   2.057   3.334  0.00  0.00    +0.007 A 
ATOM     13  C   UNL     1      -1.854   2.257   4.584  0.00  0.00    +0.019 A 
ATOM     14  C   UNL     1      -3.216   2.029   4.789  0.00  0.00    +0.052 A 
ATOM     15  C   UNL     1      -4.015   1.605   3.725  0.00  0.00    +0.019 A 
ATOM     16  C   UNL     1      -3.455   1.415   2.479  0.00  0.00    +0.007 A 
BRANCH  14  17
ATOM     17  C   UNL     1      -3.791   2.229   6.085  0.00  0.00    +0.099 C 
ATOM     18  N   UNL     1      -4.247   2.388   7.114  0.00  0.00    -0.191 NA
ENDBRANCH  14  17
ENDBRANCH   4  11
BRANCH   3  19
ATOM     19  C   UNL     1      -2.400   3.675   0.092  0.00  0.00    +0.248 C 
ATOM     20  O   UNL     1      -3.202   3.465  -0.800  0.00  0.00    -0.270 OA
ATOM     21  N   UNL     1      -2.553   4.744   0.898  0.00  0.00    -0.282 N 
ATOM     22  H   UNL     1      -1.875   4.955   1.559  0.00  0.00    +0.155 HD
BRANCH  21  23
ATOM     23  C   UNL     1      -3.691   5.552   0.781  0.00  0.00    +0.034 A 
ATOM     24  C   UNL     1      -4.253   5.783  -0.468  0.00  0.00    +0.027 A 
ATOM     25  C   UNL     1      -5.379   6.575  -0.582  0.00  0.00    +0.047 A 
ATOM     26  C   UNL     1      -5.940   7.150   0.549  0.00  0.00    +0.120 A 
ATOM     27  C   UNL     1      -5.375   6.924   1.796  0.00  0.00    +0.047 A 
ATOM     28  C   UNL     1      -4.254   6.127   1.912  0.00  0.00    +0.027 A 
BRANCH  26  29
ATOM     29  O   UNL     1      -7.045   7.934   0.435  0.00  0.00    -0.495 OA
ATOM     30  C   UNL     1      -7.574   8.124  -0.879  0.00  0.00    +0.277 C 
ENDBRANCH  26  29
ENDBRANCH  21  23
ENDBRANCH   3  19
TORSDOF 5
