REMARK  Name = ZINC63141023
REMARK  8 active torsions:
REMARK  status: ('A' for Active; 'I' for Inactive)
REMARK    1  A    between atoms: C_1  and  C_2
REMARK    2  A    between atoms: C_2  and  C_3
REMARK    3  A    between atoms: C_2  and  O_4
REMARK    4  A    between atoms: O_4  and  C_5
REMARK    5  A    between atoms: C_8  and  C_13
REMARK    6  A    between atoms: C_10  and  O_11
REMARK    7  A    between atoms: O_11  and  C_12
REMARK    8  A    between atoms: N_32  and  C_35
REMARK                            x       y       z     vdW  Elec       q    Type
REMARK                         _______ _______ _______ _____ _____    ______ ____
ROOT
ATOM      1  C   UNL     1      -2.336  -5.229  -2.885  0.00  0.00    +0.134 C 
ATOM      2  C   UNL     1      -2.040  -6.432  -1.990  0.00  0.00    +0.131 C 
ATOM      3  C   UNL     1      -1.975  -7.640  -2.922  0.00  0.00    -0.034 C 
ATOM      4  C   UNL     1      -2.932  -8.473  -2.536  0.00  0.00    -0.001 A 
ATOM      5  C   UNL     1      -3.334  -9.800  -3.030  0.00  0.00    +0.010 A 
ATOM      6  C   UNL     1      -4.382 -10.385  -2.393  0.00  0.00    +0.001 A 
ATOM      7  C   UNL     1      -5.063  -9.790  -1.327  0.00  0.00    +0.002 A 
ATOM      8  C   UNL     1      -4.760  -8.574  -0.806  0.00  0.00    +0.026 A 
ATOM      9  C   UNL     1      -3.674  -7.861  -1.392  0.00  0.00    +0.043 A 
ATOM     10  N   UNL     1      -3.165  -6.686  -1.080  0.00  0.00    -0.375 N 
ATOM     11  C   UNL     1      -0.974  -7.707  -4.043  0.00  0.00    +0.065 C 
ATOM     12  C   UNL     1      -0.864  -6.362  -4.712  0.00  0.00    +0.167 C 
ATOM     13  N   UNL     1      -1.513  -5.230  -4.086  0.00  0.00    -0.279 N 
ATOM     14  C   UNL     1      -1.364  -4.031  -4.740  0.00  0.00    +0.234 C 
ATOM     15  O   UNL     1      -1.804  -2.998  -4.282  0.00  0.00    -0.274 OA
ATOM     16  C   UNL     1      -0.625  -4.060  -6.061  0.00  0.00    +0.204 C 
ATOM     17  N   UNL     1      -1.107  -5.215  -6.842  0.00  0.00    -0.288 N 
ATOM     18  C   UNL     1      -1.218  -6.401  -6.178  0.00  0.00    +0.237 C 
ATOM     19  O   UNL     1      -1.572  -7.421  -6.729  0.00  0.00    -0.274 OA
ATOM     20  H   UNL     1      -3.472  -6.088  -0.381  0.00  0.00    +0.160 HD
ENDROOT
BRANCH   1  24
ATOM     21  C   UNL     1      -1.580  -1.640  -0.687  0.00  0.00    +0.162 A 
ATOM     22  C   UNL     1      -0.532  -2.329  -1.276  0.00  0.00    +0.050 A 
ATOM     23  C   UNL     1      -0.780  -3.489  -1.986  0.00  0.00    +0.009 A 
ATOM     24  C   UNL     1      -2.072  -3.964  -2.110  0.00  0.00    -0.021 A 
ATOM     25  C   UNL     1      -3.122  -3.282  -1.525  0.00  0.00    +0.055 A 
ATOM     26  C   UNL     1      -2.880  -2.122  -0.807  0.00  0.00    +0.162 A 
BRANCH  26  27
ATOM     27  O   UNL     1      -3.912  -1.452  -0.226  0.00  0.00    -0.491 OA
ATOM     28  C   UNL     1      -5.219  -2.005  -0.391  0.00  0.00    +0.277 C 
ENDBRANCH  26  27
BRANCH  21  29
ATOM     29  O   UNL     1      -1.339  -0.499   0.012  0.00  0.00    -0.486 OA
BRANCH  29  31
ATOM     30  C   UNL     1      -0.011   1.505   0.263  0.00  0.00    +0.051 C 
ATOM     31  C   UNL     1       0.001  -0.002  -0.000  0.00  0.00    +0.167 C 
ATOM     32  C   UNL     1       0.815  -0.703   1.089  0.00  0.00    +0.051 C 
ENDBRANCH  29  31
ENDBRANCH  21  29
ENDBRANCH   1  24
BRANCH  17  33
ATOM     33  C   UNL     1      -1.453  -5.094  -8.260  0.00  0.00    +0.077 C 
ATOM     34  C   UNL     1      -0.225  -4.633  -9.047  0.00  0.00    +0.022 C 
ATOM     35  C   UNL     1      -0.587  -4.506 -10.528  0.00  0.00    +0.002 C 
ATOM     36  C   UNL     1      -1.712  -3.482 -10.693  0.00  0.00    +0.000 C 
ATOM     37  C   UNL     1      -2.940  -3.944  -9.906  0.00  0.00    +0.002 C 
ATOM     38  C   UNL     1      -2.578  -4.070  -8.425  0.00  0.00    +0.022 C 
ENDBRANCH  17  33
TORSDOF 5
