REMARK  Name = ZINC08872538
REMARK  8 active torsions:
REMARK  status: ('A' for Active; 'I' for Inactive)
REMARK    1  A    between atoms: C_1  and  C_2
REMARK    2  A    between atoms: C_9  and  N_29
REMARK    3  A    between atoms: C_10  and  C_13
REMARK    4  A    between atoms: N_17  and  C_21
REMARK    5  A    between atoms: C_21  and  C_22
REMARK    6  A    between atoms: C_22  and  C_23
REMARK    7  A    between atoms: C_31  and  C_38
REMARK    8  A    between atoms: C_34  and  C_37
REMARK                            x       y       z     vdW  Elec       q    Type
REMARK                         _______ _______ _______ _____ _____    ______ ____
ROOT
ATOM      1  C   UNL     1       4.673  -4.486  -0.388  0.00  0.00    +0.047 C 
ATOM      2  C   UNL     1       3.274  -3.945  -0.241  0.00  0.00    -0.007 A 
ATOM      3  C   UNL     1       2.205  -4.790  -0.268  0.00  0.00    +0.008 A 
ATOM      4  C   UNL     1       0.910  -4.271  -0.132  0.00  0.00    +0.019 A 
ATOM      5  C   UNL     1       0.725  -2.941   0.026  0.00  0.00    +0.096 A 
ATOM      6  N   UNL     1       1.788  -2.088   0.054  0.00  0.00    -0.267 N 
ATOM      7  C   UNL     1       3.063  -2.564  -0.077  0.00  0.00    +0.145 A 
ATOM      8  N   UNL     1       4.115  -1.745  -0.053  0.00  0.00    -0.213 NA
ATOM      9  C   UNL     1       3.973  -0.436   0.095  0.00  0.00    +0.136 A 
ATOM     10  C   UNL     1       2.678   0.114   0.241  0.00  0.00    +0.081 A 
ATOM     11  C   UNL     1       1.569  -0.765   0.213  0.00  0.00    +0.267 A 
ATOM     12  O   UNL     1       0.434  -0.335   0.331  0.00  0.00    -0.267 OA
ENDROOT
BRANCH  10  13
ATOM     13  C   UNL     1       2.495   1.507   0.405  0.00  0.00    +0.037 C 
ATOM     14  C   UNL     1       1.867   2.232  -0.566  0.00  0.00    +0.077 C 
ATOM     15  C   UNL     1       1.363   1.808  -1.829  0.00  0.00    +0.258 C 
ATOM     16  O   UNL     1       1.460   0.647  -2.186  0.00  0.00    -0.269 OA
ATOM     17  N   UNL     1       0.792   2.712  -2.607  0.00  0.00    -0.255 N 
ATOM     18  C   UNL     1       0.680   3.999  -2.209  0.00  0.00    +0.121 C 
ATOM     19  S   UNL     1      -0.019   5.322  -3.041  0.00  0.00    -0.027 S 
ATOM     20  S   UNL     1       1.452   3.970  -0.599  0.00  0.00    -0.061 S 
BRANCH  17  21
ATOM     21  C   UNL     1       0.268   2.312  -3.915  0.00  0.00    +0.119 C 
BRANCH  21  22
ATOM     22  C   UNL     1      -1.194   1.881  -3.769  0.00  0.00    +0.054 C 
BRANCH  22  23
ATOM     23  C   UNL     1      -1.733   1.470  -5.114  0.00  0.00    -0.046 A 
ATOM     24  C   UNL     1      -2.337   2.406  -5.933  0.00  0.00    +0.004 A 
ATOM     25  C   UNL     1      -2.827   2.029  -7.169  0.00  0.00    +0.000 A 
ATOM     26  C   UNL     1      -2.723   0.714  -7.583  0.00  0.00    +0.000 A 
ATOM     27  C   UNL     1      -2.123  -0.223  -6.762  0.00  0.00    +0.000 A 
ATOM     28  C   UNL     1      -1.628   0.155  -5.528  0.00  0.00    +0.004 A 
ENDBRANCH  22  23
ENDBRANCH  21  22
ENDBRANCH  17  21
ENDBRANCH  10  13
BRANCH   9  29
ATOM     29  N   UNL     1       5.080   0.384   0.111  0.00  0.00    -0.310 N 
ATOM     30  C   UNL     1       5.093   1.276  -1.058  0.00  0.00    +0.138 C 
ATOM     31  C   UNL     1       6.304   2.208  -0.969  0.00  0.00    +0.133 C 
ATOM     32  O   UNL     1       7.496   1.424  -0.874  0.00  0.00    -0.371 OA
ATOM     33  C   UNL     1       7.519   0.544   0.253  0.00  0.00    +0.133 C 
ATOM     34  C   UNL     1       6.319  -0.405   0.177  0.00  0.00    +0.138 C 
ATOM     35  C   UNL     1       7.441   1.363   1.543  0.00  0.00    +0.039 C 
ATOM     36  C   UNL     1       6.368   3.085  -2.221  0.00  0.00    +0.039 C 
ENDBRANCH   9  29
TORSDOF 5
