REMARK  Name = ZINC21537304
REMARK  9 active torsions:
REMARK  status: ('A' for Active; 'I' for Inactive)
REMARK    1  A    between atoms: C_1  and  C_2
REMARK    2  A    between atoms: C_5  and  N_9
REMARK    3  A    between atoms: C_6  and  C_8
REMARK    4  A    between atoms: C_10  and  C_12
REMARK    5  A    between atoms: C_12  and  S_13
REMARK    6  A    between atoms: S_13  and  C_14
REMARK    7  A    between atoms: C_16  and  C_25
REMARK    8  A    between atoms: C_28  and  O_31
REMARK    9  A    between atoms: O_31  and  C_32
REMARK                            x       y       z     vdW  Elec       q    Type
REMARK                         _______ _______ _______ _____ _____    ______ ____
ROOT
ATOM      1  C   UNL     1      -0.356  -8.692  -2.728  0.00  0.00    +0.192 A 
ATOM      2  N   UNL     1      -0.337  -9.249  -1.528  0.00  0.00    -0.202 NA
ATOM      3  C   UNL     1      -0.413 -10.576  -1.388  0.00  0.00    +0.165 A 
ATOM      4  N   UNL     1      -0.510 -11.373  -2.445  0.00  0.00    -0.208 NA
ATOM      5  C   UNL     1      -0.532 -10.853  -3.676  0.00  0.00    +0.162 A 
ATOM      6  N   UNL     1      -0.460  -9.484  -3.835  0.00  0.00    -0.210 N 
ATOM      7  N   UNL     1      -0.509  -9.208  -5.205  0.00  0.00    -0.256 N 
ATOM      8  H   UNL     1      -0.473  -8.326  -5.607  0.00  0.00    +0.191 HD
ATOM      9  C   UNL     1      -0.614 -10.374  -5.872  0.00  0.00    +0.267 A 
ATOM     10  O   UNL     1      -0.681 -10.498  -7.084  0.00  0.00    -0.266 OA
ATOM     11  C   UNL     1      -0.624 -11.415  -4.943  0.00  0.00    +0.119 A 
ENDROOT
BRANCH   3  12
ATOM     12  C   UNL     1      -0.389 -11.166  -0.032  0.00  0.00    +0.019 A 
ATOM     13  C   UNL     1      -0.462 -12.551   0.129  0.00  0.00    +0.015 A 
ATOM     14  C   UNL     1      -0.440 -13.098   1.393  0.00  0.00    +0.046 A 
ATOM     15  C   UNL     1      -0.344 -12.273   2.507  0.00  0.00    +0.120 A 
ATOM     16  C   UNL     1      -0.272 -10.894   2.351  0.00  0.00    +0.046 A 
ATOM     17  C   UNL     1      -0.287 -10.341   1.089  0.00  0.00    +0.015 A 
BRANCH  15  18
ATOM     18  O   UNL     1      -0.322 -12.815   3.752  0.00  0.00    -0.495 OA
ATOM     19  C   UNL     1      -0.222 -11.910   4.853  0.00  0.00    +0.277 C 
ENDBRANCH  15  18
ENDBRANCH   3  12
BRANCH   1  20
ATOM     20  S   UNL     1      -0.255  -6.941  -2.895  0.00  0.00    -0.077 S 
BRANCH  20  21
ATOM     21  C   UNL     1      -0.134  -6.343  -1.187  0.00  0.00    +0.173 C 
BRANCH  21  23
ATOM     22  N   UNL     1       0.059  -4.170  -0.021  0.00  0.00    -0.285 N 
ATOM     23  C   UNL     1      -0.040  -4.839  -1.187  0.00  0.00    +0.227 C 
ATOM     24  O   UNL     1      -0.054  -4.230  -2.236  0.00  0.00    -0.275 OA
ATOM     25  H   UNL     1       0.135  -4.658   0.814  0.00  0.00    +0.155 HD
BRANCH  22  30
ATOM     26  C   UNL     1       0.025   1.503   0.005  0.00  0.00    +0.044 C 
ATOM     27  C   UNL     1       0.034  -0.004  -0.002  0.00  0.00    -0.050 A 
ATOM     28  C   UNL     1       0.632  -0.685  -1.046  0.00  0.00    +0.005 A 
ATOM     29  C   UNL     1       0.641  -2.066  -1.055  0.00  0.00    +0.024 A 
ATOM     30  C   UNL     1       0.051  -2.771  -0.014  0.00  0.00    +0.036 A 
ATOM     31  C   UNL     1      -0.548  -2.083   1.033  0.00  0.00    -0.029 A 
ATOM     32  C   UNL     1      -0.550  -0.702   1.039  0.00  0.00    +0.008 A 
ATOM     33  C   UNL     1      -1.190  -2.843   2.165  0.00  0.00    +0.045 C 
ENDBRANCH  22  30
ENDBRANCH  21  23
ENDBRANCH  20  21
ENDBRANCH   1  20
TORSDOF 6
