REMARK  Name = ZINC05095124
REMARK  7 active torsions:
REMARK  status: ('A' for Active; 'I' for Inactive)
REMARK    1  A    between atoms: C_1  and  S_2
REMARK    2  A    between atoms: S_2  and  C_3
REMARK    3  A    between atoms: C_6  and  C_9
REMARK    4  A    between atoms: C_13  and  C_23
REMARK    5  A    between atoms: C_18  and  N_22
REMARK    6  A    between atoms: C_19  and  C_20
REMARK    7  A    between atoms: C_27  and  N_29
REMARK                            x       y       z     vdW  Elec       q    Type
REMARK                         _______ _______ _______ _____ _____    ______ ____
ROOT
ATOM      1  C   UNL     1       2.998  -1.452   5.038  0.00  0.00    +0.082 C 
ATOM      2  C   UNL     1       2.100  -2.303   5.943  0.00  0.00    +0.140 C 
ATOM      3  C   UNL     1       0.652  -1.892   5.803  0.00  0.00    +0.084 C 
ATOM      4  N   UNL     1       0.029  -2.925   5.304  0.00  0.00    -0.150 NA
ATOM      5  N   UNL     1       0.891  -3.991   5.049  0.00  0.00    -0.115 NA
ATOM      6  C   UNL     1       2.123  -3.709   5.350  0.00  0.00    +0.227 C 
ATOM      7  O   UNL     1       3.286  -4.370   5.162  0.00  0.00    -0.425 OA
ATOM      8  C   UNL     1       4.314  -3.587   4.746  0.00  0.00    +0.200 C 
ATOM      9  C   UNL     1       4.230  -2.240   4.682  0.00  0.00    +0.095 C 
ENDROOT
BRANCH   1  13
ATOM     10  C   UNL     1       0.877  -0.427   1.472  0.00  0.00    +0.008 A 
ATOM     11  C   UNL     1       1.349   0.574   2.313  0.00  0.00    +0.015 A 
ATOM     12  C   UNL     1       2.035   0.239   3.464  0.00  0.00    +0.005 A 
ATOM     13  C   UNL     1       2.250  -1.090   3.781  0.00  0.00    -0.038 A 
ATOM     14  C   UNL     1       1.782  -2.088   2.946  0.00  0.00    +0.005 A 
ATOM     15  C   UNL     1       1.090  -1.761   1.796  0.00  0.00    +0.015 A 
BRANCH  10  17
ATOM     16  C   UNL     1      -0.022   1.810   0.012  0.00  0.00    +0.090 C 
ATOM     17  S   UNL     1       0.002  -0.004   0.002  0.00  0.00    -0.129 S 
ENDBRANCH  10  17
ENDBRANCH   1  13
BRANCH   3  18
ATOM     18  C   UNL     1       0.064  -0.590   6.157  0.00  0.00    +0.001 A 
ATOM     19  C   UNL     1       0.870   0.426   6.680  0.00  0.00    +0.010 A 
ATOM     20  C   UNL     1       0.312   1.643   7.010  0.00  0.00    +0.003 A 
ATOM     21  C   UNL     1      -1.043   1.860   6.824  0.00  0.00    +0.033 A 
ATOM     22  C   UNL     1      -1.847   0.860   6.307  0.00  0.00    +0.127 A 
ATOM     23  C   UNL     1      -1.302  -0.361   5.968  0.00  0.00    +0.042 A 
BRANCH  22  24
ATOM     24  N   UNL     1      -3.294   1.102   6.113  0.00  0.00    +0.056 N 
ATOM     25  O   UNL     1      -3.772   2.173   6.405  0.00  0.00    -0.126 OA
ATOM     26  O   UNL     1      -3.998   0.229   5.661  0.00  0.00    -0.126 OA
ENDBRANCH  22  24
ENDBRANCH   3  18
BRANCH   8  27
ATOM     27  N   UNL     1       5.491  -4.189   4.375  0.00  0.00    -0.328 N 
ATOM     28  H   UNL     1       5.574  -5.154   4.413  0.00  0.00    +0.145 HD
ATOM     29  H   UNL     1       6.238  -3.649   4.074  0.00  0.00    +0.145 HD
ENDBRANCH   8  27
BRANCH   9  30
ATOM     30  C   UNL     1       5.386  -1.516   4.247  0.00  0.00    +0.100 C 
ATOM     31  N   UNL     1       6.303  -0.941   3.903  0.00  0.00    -0.191 NA
ENDBRANCH   9  30
TORSDOF 6
