REMARK  Name = ZINC38966633
REMARK  6 active torsions:
REMARK  status: ('A' for Active; 'I' for Inactive)
REMARK    1  A    between atoms: C_1  and  O_2
REMARK    2  A    between atoms: O_2  and  C_3
REMARK    3  A    between atoms: C_8  and  N_9
REMARK    4  A    between atoms: N_9  and  C_10
REMARK    5  A    between atoms: N_13  and  S_14
REMARK    6  A    between atoms: S_14  and  C_17
REMARK                            x       y       z     vdW  Elec       q    Type
REMARK                         _______ _______ _______ _____ _____    ______ ____
ROOT
ATOM      1  C   UNL     1      -0.133  -4.240   0.091  0.00  0.00    +0.237 C 
ATOM      2  C   UNL     1       0.758  -4.657   1.239  0.00  0.00    +0.192 C 
ATOM      3  N   UNL     1       0.549  -4.197   2.437  0.00  0.00    -0.110 NA
ATOM      4  N   UNL     1       1.769  -5.509   1.003  0.00  0.00    -0.226 NA
ATOM      5  C   UNL     1       2.001  -5.989  -0.201  0.00  0.00    +0.089 A 
ATOM      6  C   UNL     1       3.077  -6.887  -0.414  0.00  0.00    +0.030 A 
ATOM      7  C   UNL     1       3.320  -7.382  -1.647  0.00  0.00    +0.002 A 
ATOM      8  C   UNL     1       2.542  -7.046  -2.767  0.00  0.00    +0.002 A 
ATOM      9  C   UNL     1       1.493  -6.199  -2.676  0.00  0.00    +0.027 A 
ATOM     10  C   UNL     1       1.162  -5.617  -1.367  0.00  0.00    +0.063 A 
ATOM     11  N   UNL     1       0.157  -4.796  -1.240  0.00  0.00    -0.359 N 
ATOM     12  H   UNL     1      -0.387  -4.558  -2.007  0.00  0.00    +0.162 HD
ENDROOT
BRANCH   3  13
ATOM     13  S   UNL     1       1.533  -4.662   3.686  0.00  0.00    +0.103 S 
ATOM     14  O   UNL     1       1.310  -6.051   3.883  0.00  0.00    -0.146 OA
ATOM     15  O   UNL     1       2.820  -4.128   3.408  0.00  0.00    -0.146 OA
BRANCH  13  16
ATOM     16  C   UNL     1       0.952  -3.848   5.137  0.00  0.00    +0.141 A 
ATOM     17  C   UNL     1       0.449  -4.574   6.162  0.00  0.00    +0.031 A 
ATOM     18  C   UNL     1      -0.019  -3.963   7.326  0.00  0.00    +0.004 A 
ATOM     19  C   UNL     1       0.009  -2.619   7.480  0.00  0.00    +0.031 A 
ATOM     20  C   UNL     1       0.524  -1.793   6.444  0.00  0.00    +0.102 A 
ATOM     21  C   UNL     1       1.018  -2.431   5.230  0.00  0.00    +0.127 A 
ATOM     22  N   UNL     1       1.482  -1.561   4.332  0.00  0.00    -0.189 NA
ATOM     23  S   UNL     1       1.297  -0.109   4.998  0.00  0.00    +0.117 S 
ATOM     24  N   UNL     1       0.630  -0.464   6.419  0.00  0.00    -0.191 NA
ENDBRANCH  13  16
ENDBRANCH   3  13
BRANCH   1  25
ATOM     25  N   UNL     1      -0.075  -2.780  -0.013  0.00  0.00    -0.315 N 
ATOM     26  H   UNL     1       0.783  -2.330  -0.056  0.00  0.00    +0.149 HD
BRANCH  25  32
ATOM     27  C   UNL     1      -1.209  -0.642  -0.009  0.00  0.00    +0.141 A 
ATOM     28  C   UNL     1      -2.383   0.091  -0.052  0.00  0.00    +0.047 A 
ATOM     29  C   UNL     1      -3.602  -0.558  -0.129  0.00  0.00    +0.004 A 
ATOM     30  C   UNL     1      -3.653  -1.939  -0.163  0.00  0.00    +0.002 A 
ATOM     31  C   UNL     1      -2.486  -2.678  -0.121  0.00  0.00    +0.026 A 
ATOM     32  C   UNL     1      -1.259  -2.034  -0.050  0.00  0.00    +0.071 A 
BRANCH  27  34
ATOM     33  C   UNL     1      -0.035   1.423   0.104  0.00  0.00    +0.277 C 
ATOM     34  O   UNL     1      -0.010  -0.005   0.067  0.00  0.00    -0.493 OA
ENDBRANCH  27  34
ENDBRANCH  25  32
ENDBRANCH   1  25
TORSDOF 5
