REMARK  Name = ZINC39330539
REMARK  13 active torsions:
REMARK  status: ('A' for Active; 'I' for Inactive)
REMARK    1  A    between atoms: C_1  and  C_2
REMARK    2  A    between atoms: C_5  and  C_8
REMARK    3  A    between atoms: C_8  and  C_10
REMARK    4  A    between atoms: C_11  and  C_12
REMARK    5  A    between atoms: N_15  and  C_22
REMARK    6  A    between atoms: C_22  and  C_23
REMARK    7  A    between atoms: C_23  and  C_25
REMARK    8  A    between atoms: C_23  and  O_39
REMARK    9  A    between atoms: C_25  and  N_26
REMARK   10  A    between atoms: N_26  and  C_27
REMARK   11  A    between atoms: C_27  and  C_28
REMARK   12  A    between atoms: C_28  and  C_29
REMARK   13  A    between atoms: C_32  and  C_38
REMARK                            x       y       z     vdW  Elec       q    Type
REMARK                         _______ _______ _______ _____ _____    ______ ____
ROOT
ATOM      1  C   UNL     1      -1.323 -10.607   2.832  0.00  0.00    +0.134 C 
ENDROOT
BRANCH   1   4
ATOM      2  C   UNL     1       0.109  -7.085   2.541  0.00  0.00    +0.061 C 
ATOM      3  C   UNL     1      -1.104  -8.026   2.628  0.00  0.00    +0.117 C 
ATOM      4  N   UNL     1      -0.539  -9.374   2.727  0.00  0.00    -0.326 N 
ATOM      5  C   UNL     1       0.855  -9.312   2.706  0.00  0.00    +0.034 A 
ATOM      6  C   UNL     1       1.309  -8.004   2.600  0.00  0.00    -0.018 A 
ATOM      7  C   UNL     1       2.663  -7.729   2.565  0.00  0.00    +0.006 A 
ATOM      8  C   UNL     1       3.582  -8.760   2.636  0.00  0.00    +0.000 A 
ATOM      9  C   UNL     1       3.144 -10.067   2.742  0.00  0.00    +0.002 A 
ATOM     10  C   UNL     1       1.788 -10.349   2.776  0.00  0.00    +0.023 A 
BRANCH   2  12
ATOM     11  C   UNL     1       0.075  -4.993   1.247  0.00  0.00    +0.048 C 
ATOM     12  C   UNL     1       0.093  -6.325   1.240  0.00  0.00    -0.013 C 
BRANCH  11  13
ATOM     13  C   UNL     1       0.059  -4.251  -0.021  0.00  0.00    +0.186 C 
ATOM     14  O   UNL     1       0.062  -4.854  -1.078  0.00  0.00    -0.287 OA
BRANCH  13  19
ATOM     15  C   UNL     1      -0.018   1.503   0.010  0.00  0.00    +0.044 C 
ATOM     16  C   UNL     1       0.002  -0.004   0.002  0.00  0.00    -0.050 A 
ATOM     17  C   UNL     1       0.006  -0.686  -1.202  0.00  0.00    +0.004 A 
ATOM     18  C   UNL     1       0.024  -2.065  -1.217  0.00  0.00    +0.012 A 
ATOM     19  C   UNL     1       0.040  -2.773  -0.013  0.00  0.00    +0.022 A 
ATOM     20  C   UNL     1       0.036  -2.078   1.198  0.00  0.00    +0.012 A 
ATOM     21  C   UNL     1       0.023  -0.699   1.198  0.00  0.00    +0.004 A 
ENDBRANCH  13  19
ENDBRANCH  11  13
ENDBRANCH   2  12
ENDBRANCH   1   4
BRANCH   1  22
ATOM     22  C   UNL     1      -1.612 -11.148   1.430  0.00  0.00    +0.115 C 
BRANCH  22  23
ATOM     23  O   UNL     1      -2.351 -10.176   0.687  0.00  0.00    -0.392 OA
ATOM     24  H   UNL     1      -3.201  -9.941   1.084  0.00  0.00    +0.210 HD
ENDBRANCH  22  23
BRANCH  22  25
ATOM     25  C   UNL     1      -2.431 -12.436   1.540  0.00  0.00    -0.049 C 
BRANCH  25  26
ATOM     26  N   UNL     1      -2.607 -13.020   0.204  0.00  0.00    +0.381 N 
ATOM     27  H   UNL     1      -3.092 -12.363  -0.389  0.00  0.00    -0.086 HD
ATOM     28  H   UNL     1      -1.704 -13.229  -0.194  0.00  0.00    -0.086 HD
BRANCH  26  29
ATOM     29  C   UNL     1      -3.393 -14.256   0.309  0.00  0.00    -0.078 C 
BRANCH  29  30
ATOM     30  C   UNL     1      -3.577 -14.864  -1.083  0.00  0.00    +0.018 C 
BRANCH  30  31
ATOM     31  C   UNL     1      -4.383 -16.133  -0.975  0.00  0.00    -0.024 A 
ATOM     32  C   UNL     1      -5.844 -16.237  -0.950  0.00  0.00    +0.003 A 
ATOM     33  C   UNL     1      -6.884 -15.308  -1.010  0.00  0.00    +0.013 A 
ATOM     34  C   UNL     1      -8.181 -15.738  -0.963  0.00  0.00    -0.050 A 
ATOM     35  C   UNL     1      -8.472 -17.090  -0.853  0.00  0.00    +0.005 A 
ATOM     36  C   UNL     1      -7.461 -18.024  -0.792  0.00  0.00    +0.026 A 
ATOM     37  C   UNL     1      -6.134 -17.610  -0.839  0.00  0.00    +0.047 A 
ATOM     38  N   UNL     1      -4.930 -18.277  -0.801  0.00  0.00    -0.360 N 
ATOM     39  C   UNL     1      -3.899 -17.382  -0.889  0.00  0.00    +0.087 A 
ATOM     40  C   UNL     1      -9.303 -14.734  -1.028  0.00  0.00    +0.044 C 
ATOM     41  H   UNL     1      -4.829 -19.239  -0.728  0.00  0.00    +0.165 HD
ENDBRANCH  30  31
ENDBRANCH  29  30
ENDBRANCH  26  29
ENDBRANCH  25  26
ENDBRANCH  22  25
ENDBRANCH   1  22
TORSDOF 11
