REMARK  Name = ZINC36483676
REMARK  9 active torsions:
REMARK  status: ('A' for Active; 'I' for Inactive)
REMARK    1  A    between atoms: C_1  and  C_2
REMARK    2  A    between atoms: C_5  and  S_8
REMARK    3  A    between atoms: S_8  and  C_11
REMARK    4  A    between atoms: C_11  and  N_12
REMARK    5  A    between atoms: C_13  and  C_15
REMARK    6  A    between atoms: C_15  and  C_17
REMARK    7  A    between atoms: C_15  and  N_23
REMARK    8  A    between atoms: N_23  and  C_24
REMARK    9  A    between atoms: C_31  and  C_33
REMARK                            x       y       z     vdW  Elec       q    Type
REMARK                         _______ _______ _______ _____ _____    ______ ____
ROOT
ATOM      1  C   UNL     1       2.804  -6.180   3.574  0.00  0.00    +0.198 C 
ENDROOT
BRANCH   1   2
ATOM      2  C   UNL     1       1.595  -5.323   3.843  0.00  0.00    -0.018 A 
ATOM      3  C   UNL     1       0.741  -5.639   4.883  0.00  0.00    +0.006 A 
ATOM      4  C   UNL     1      -0.368  -4.852   5.130  0.00  0.00    +0.000 A 
ATOM      5  C   UNL     1      -0.624  -3.749   4.338  0.00  0.00    +0.000 A 
ATOM      6  C   UNL     1       0.231  -3.432   3.298  0.00  0.00    +0.000 A 
ATOM      7  C   UNL     1       1.343  -4.216   3.054  0.00  0.00    +0.006 A 
ENDBRANCH   1   2
BRANCH   1   9
ATOM      8  N   UNL     1       1.489  -8.050   2.631  0.00  0.00    -0.294 N 
ATOM      9  C   UNL     1       2.394  -7.630   3.536  0.00  0.00    +0.240 C 
ATOM     10  O   UNL     1       2.878  -8.418   4.320  0.00  0.00    -0.273 OA
ATOM     11  H   UNL     1       1.101  -7.420   2.003  0.00  0.00    +0.150 HD
BRANCH   8  12
ATOM     12  C   UNL     1       1.090  -9.459   2.594  0.00  0.00    +0.278 C 
BRANCH  12  13
ATOM     13  S   UNL     1      -0.423  -9.685   3.569  0.00  0.00    +0.013 S 
ATOM     14  O   UNL     1      -0.296  -9.036   4.827  0.00  0.00    -0.168 OA
ATOM     15  O   UNL     1      -0.859 -11.036   3.491  0.00  0.00    -0.168 OA
BRANCH  13  20
ATOM     16  C   UNL     1      -4.650  -6.535   0.633  0.00  0.00    +0.044 C 
ATOM     17  C   UNL     1      -3.594  -7.322   1.367  0.00  0.00    -0.050 A 
ATOM     18  C   UNL     1      -3.382  -8.652   1.055  0.00  0.00    +0.005 A 
ATOM     19  C   UNL     1      -2.413  -9.373   1.727  0.00  0.00    +0.027 A 
ATOM     20  C   UNL     1      -1.657  -8.765   2.711  0.00  0.00    +0.090 A 
ATOM     21  C   UNL     1      -1.868  -7.435   3.022  0.00  0.00    +0.027 A 
ATOM     22  C   UNL     1      -2.834  -6.712   2.347  0.00  0.00    +0.005 A 
ENDBRANCH  13  20
ENDBRANCH  12  13
ENDBRANCH   8  12
ENDBRANCH   1   9
BRANCH   1  23
ATOM     23  N   UNL     1       3.792  -5.980   4.638  0.00  0.00    -0.249 N 
ATOM     24  C   UNL     1       5.096  -5.837   4.329  0.00  0.00    +0.287 C 
ATOM     25  O   UNL     1       5.462  -5.938   3.172  0.00  0.00    -0.266 OA
BRANCH  23  26
ATOM     26  C   UNL     1       3.381  -5.938   5.974  0.00  0.00    +0.039 A 
ATOM     27  C   UNL     1       3.124  -7.117   6.661  0.00  0.00    +0.023 A 
ATOM     28  C   UNL     1       2.719  -7.073   7.980  0.00  0.00    +0.003 A 
ATOM     29  C   UNL     1       2.569  -5.855   8.618  0.00  0.00    +0.020 A 
ATOM     30  C   UNL     1       2.824  -4.678   7.937  0.00  0.00    +0.043 A 
ATOM     31  C   UNL     1       3.235  -4.716   6.618  0.00  0.00    +0.043 A 
ATOM     32 CL   UNL     1       2.633  -3.151   8.742  0.00  0.00    -0.083 Cl
ENDBRANCH  23  26
BRANCH  24  33
ATOM     33  C   UNL     1       6.073  -5.559   5.385  0.00  0.00    +0.190 A 
ATOM     34  C   UNL     1       7.429  -5.509   5.231  0.00  0.00    +0.054 A 
ATOM     35  C   UNL     1       7.969  -5.215   6.493  0.00  0.00    +0.042 A 
ATOM     36  C   UNL     1       6.931  -5.100   7.352  0.00  0.00    +0.196 A 
ATOM     37  O   UNL     1       5.791  -5.302   6.679  0.00  0.00    -0.458 OA
ENDBRANCH  24  33
ENDBRANCH   1  23
TORSDOF 8
