REMARK  Name = ZINC07966232
REMARK  10 active torsions:
REMARK  status: ('A' for Active; 'I' for Inactive)
REMARK    1  A    between atoms: C_1  and  C_2
REMARK    2  A    between atoms: C_14  and  C_15
REMARK    3  A    between atoms: N_17  and  C_18
REMARK    4  A    between atoms: C_18  and  C_19
REMARK    5  A    between atoms: C_19  and  C_21
REMARK    6  A    between atoms: C_19  and  N_56
REMARK    7  A    between atoms: C_26  and  O_27
REMARK    8  A    between atoms: O_27  and  C_28
REMARK    9  A    between atoms: C_29  and  N_56
REMARK   10  A    between atoms: C_30  and  N_56
REMARK                            x       y       z     vdW  Elec       q    Type
REMARK                         _______ _______ _______ _____ _____    ______ ____
ROOT
ATOM      1  C   UNL     1       1.348   9.779  -0.264  0.00  0.00    +0.280 C 
ATOM      2  O   UNL     1       1.012  10.938  -0.113  0.00  0.00    -0.267 OA
ATOM      3  N   UNL     1       2.649   9.437  -0.178  0.00  0.00    -0.310 N 
ATOM      4  H   UNL     1       2.917   8.513  -0.298  0.00  0.00    +0.149 HD
ENDROOT
BRANCH   1  18
ATOM      5  C   UNL     1      -1.706  10.297  -0.511  0.00  0.00    +0.048 C 
ATOM      6  C   UNL     1      -1.001   8.972  -0.649  0.00  0.00    +0.008 A 
ATOM      7  C   UNL     1      -1.605   7.718  -0.916  0.00  0.00    +0.024 A 
ATOM      8  C   UNL     1      -2.940   7.314  -1.126  0.00  0.00    +0.012 A 
ATOM      9  C   UNL     1      -3.241   6.018  -1.369  0.00  0.00    +0.009 A 
ATOM     10  C   UNL     1      -2.219   5.045  -1.414  0.00  0.00    -0.014 A 
ATOM     11  C   UNL     1      -2.519   3.697  -1.669  0.00  0.00    +0.008 A 
ATOM     12  C   UNL     1      -1.516   2.776  -1.704  0.00  0.00    +0.001 A 
ATOM     13  C   UNL     1      -0.192   3.152  -1.500  0.00  0.00    +0.001 A 
ATOM     14  C   UNL     1       0.136   4.452  -1.255  0.00  0.00    +0.012 A 
ATOM     15  C   UNL     1      -0.872   5.426  -1.206  0.00  0.00    +0.025 A 
ATOM     16  C   UNL     1      -0.566   6.781  -0.955  0.00  0.00    +0.144 A 
ATOM     17  O   UNL     1       0.586   7.437  -0.724  0.00  0.00    -0.449 OA
ATOM     18  C   UNL     1       0.336   8.751  -0.539  0.00  0.00    +0.193 A 
ENDBRANCH   1  18
BRANCH   3  19
ATOM     19  C   UNL     1       3.659  10.463   0.097  0.00  0.00    +0.094 C 
BRANCH  19  20
ATOM     20  C   UNL     1       5.031   9.801   0.242  0.00  0.00    -0.017 C 
BRANCH  20  21
ATOM     21  C   UNL     1       5.449   9.215  -1.082  0.00  0.00    -0.018 A 
ATOM     22  C   UNL     1       5.208   7.882  -1.355  0.00  0.00    +0.005 A 
ATOM     23  C   UNL     1       5.587   7.346  -2.571  0.00  0.00    +0.000 A 
ATOM     24  C   UNL     1       6.217   8.138  -3.513  0.00  0.00    +0.004 A 
ATOM     25  C   UNL     1       6.465   9.470  -3.243  0.00  0.00    +0.046 A 
ATOM     26  C   UNL     1       6.081  10.012  -2.025  0.00  0.00    +0.122 A 
BRANCH  26  27
ATOM     27  O   UNL     1       6.323  11.322  -1.757  0.00  0.00    -0.495 OA
ATOM     28  C   UNL     1       6.978  12.082  -2.774  0.00  0.00    +0.277 C 
ENDBRANCH  26  27
ENDBRANCH  20  21
BRANCH  20  31
ATOM     29  C   UNL     1       6.288   8.186   1.536  0.00  0.00    -0.096 C 
ATOM     30  C   UNL     1       4.306   9.211   2.476  0.00  0.00    -0.096 C 
ATOM     31  N   UNL     1       4.939   8.712   1.237  0.00  0.00    +0.382 N 
ATOM     32  H   UNL     1       4.364   7.954   0.851  0.00  0.00    -0.082 HD
ENDBRANCH  20  31
ENDBRANCH  19  20
ENDBRANCH   3  19
TORSDOF 6
