REMARK  Name = ZINC14985716
REMARK  11 active torsions:
REMARK  status: ('A' for Active; 'I' for Inactive)
REMARK    1  A    between atoms: C_1  and  C_2
REMARK    2  A    between atoms: C_6  and  C_24
REMARK    3  A    between atoms: C_16  and  C_19
REMARK    4  A    between atoms: N_26  and  C_27
REMARK    5  A    between atoms: C_27  and  C_28
REMARK    6  A    between atoms: C_28  and  C_29
REMARK    7  A    between atoms: C_28  and  C_30
REMARK    8  A    between atoms: C_28  and  C_31
REMARK    9  A    between atoms: C_31  and  N_64
REMARK   10  A    between atoms: C_32  and  N_64
REMARK   11  A    between atoms: C_33  and  N_64
REMARK                            x       y       z     vdW  Elec       q    Type
REMARK                         _______ _______ _______ _____ _____    ______ ____
ROOT
ATOM      1  C   UNL     1      -8.107   0.849  -7.441  0.00  0.00    +0.064 C 
ATOM      2  C   UNL     1      -7.441   0.516  -6.130  0.00  0.00    +0.025 A 
ATOM      3  C   UNL     1      -7.454   1.429  -5.141  0.00  0.00    +0.073 A 
ATOM      4  C   UNL     1      -6.820   1.127  -3.911  0.00  0.00    +0.194 A 
ATOM      5  O   UNL     1      -6.858   1.907  -2.972  0.00  0.00    -0.287 OA
ATOM      6  C   UNL     1      -6.115  -0.158  -3.803  0.00  0.00    +0.103 A 
ATOM      7  C   UNL     1      -6.138  -1.016  -4.889  0.00  0.00    +0.041 A 
ATOM      8  N   UNL     1      -6.845  -0.701  -5.984  0.00  0.00    -0.315 N 
ATOM      9  C   UNL     1      -7.010  -1.648  -7.010  0.00  0.00    +0.060 A 
ATOM     10  C   UNL     1      -6.721  -1.312  -8.324  0.00  0.00    +0.027 A 
ATOM     11  C   UNL     1      -6.886  -2.254  -9.323  0.00  0.00    +0.002 A 
ATOM     12  C   UNL     1      -7.336  -3.526  -9.019  0.00  0.00    +0.001 A 
ATOM     13  C   UNL     1      -7.626  -3.868  -7.710  0.00  0.00    +0.017 A 
ATOM     14  C   UNL     1      -7.463  -2.928  -6.705  0.00  0.00    +0.032 A 
ATOM     15  S   UNL     1      -7.828  -3.335  -5.027  0.00  0.00    -0.115 S 
ATOM     16  C   UNL     1      -6.174  -3.442  -4.266  0.00  0.00    +0.088 C 
ATOM     17  C   UNL     1      -5.335  -2.284  -4.825  0.00  0.00    +0.074 C 
ENDROOT
BRANCH  16  18
ATOM     18  C   UNL     1      -5.531  -4.758  -4.620  0.00  0.00    -0.027 A 
ATOM     19  C   UNL     1      -5.164  -5.649  -3.630  0.00  0.00    +0.012 A 
ATOM     20  C   UNL     1      -4.588  -6.824  -3.983  0.00  0.00    +0.045 A 
ATOM     21  S   UNL     1      -4.548  -6.696  -5.763  0.00  0.00    -0.105 S 
ATOM     22  C   UNL     1      -5.308  -5.088  -5.916  0.00  0.00    +0.050 A 
ENDBRANCH  16  18
BRANCH   6  23
ATOM     23  C   UNL     1      -5.395  -0.521  -2.571  0.00  0.00    +0.249 C 
ATOM     24  O   UNL     1      -5.972  -1.119  -1.683  0.00  0.00    -0.270 OA
ATOM     25  N   UNL     1      -4.096  -0.190  -2.427  0.00  0.00    -0.311 N 
ATOM     26  H   UNL     1      -3.636   0.287  -3.135  0.00  0.00    +0.149 HD
BRANCH  25  27
ATOM     27  C   UNL     1      -3.380  -0.552  -1.201  0.00  0.00    +0.109 C 
BRANCH  27  28
ATOM     28  C   UNL     1      -1.933  -0.063  -1.293  0.00  0.00    -0.034 C 
ATOM     29  C   UNL     1      -1.918   1.457  -1.463  0.00  0.00    +0.010 C 
ATOM     30  C   UNL     1      -1.249  -0.718  -2.494  0.00  0.00    +0.010 C 
BRANCH  28  31
ATOM     31  C   UNL     1      -1.185  -0.441  -0.012  0.00  0.00    -0.072 C 
BRANCH  31  34
ATOM     32  C   UNL     1      -0.052  -2.506  -0.574  0.00  0.00    -0.097 C 
ATOM     33  C   UNL     1      -1.173  -2.282   1.561  0.00  0.00    -0.097 C 
ATOM     34  N   UNL     1      -1.208  -1.912   0.130  0.00  0.00    +0.376 N 
ATOM     35  H   UNL     1      -2.074  -2.274  -0.287  0.00  0.00    -0.083 HD
ENDBRANCH  31  34
ENDBRANCH  28  31
ENDBRANCH  27  28
ENDBRANCH  25  27
ENDBRANCH   6  23
TORSDOF 6
