REMARK  Name = ZINC20090360
REMARK  7 active torsions:
REMARK  status: ('A' for Active; 'I' for Inactive)
REMARK    1  A    between atoms: C_4  and  C_7
REMARK    2  A    between atoms: C_7  and  O_8
REMARK    3  A    between atoms: O_8  and  C_9
REMARK    4  A    between atoms: C_12  and  C_15
REMARK    5  A    between atoms: C_28  and  S_30
REMARK    6  A    between atoms: S_30  and  C_31
REMARK    7  A    between atoms: C_31  and  C_32
REMARK                            x       y       z     vdW  Elec       q    Type
REMARK                         _______ _______ _______ _____ _____    ______ ____
ROOT
ATOM      1  C   UNL     1      -2.784   2.264   2.490  0.00  0.00    +0.175 C 
ATOM      2  C   UNL     1      -2.052   1.773   1.261  0.00  0.00    +0.041 C 
ATOM      3  C   UNL     1      -0.718   1.572   1.252  0.00  0.00    +0.020 C 
ATOM      4  C   UNL     1      -0.013   1.086   0.008  0.00  0.00    +0.052 C 
ATOM      5  C   UNL     1      -0.751   1.592  -1.233  0.00  0.00    +0.014 C 
ATOM      6  C   UNL     1      -2.194   1.079  -1.177  0.00  0.00    +0.080 C 
ATOM      7  C   UNL     1      -2.824   1.536   0.109  0.00  0.00    +0.163 C 
ATOM      8  O   UNL     1      -4.027   1.703   0.155  0.00  0.00    -0.292 OA
ATOM      9  N   UNL     1       0.053   1.792   2.368  0.00  0.00    -0.287 N 
ATOM     10  C   UNL     1      -0.590   1.934   3.587  0.00  0.00    +0.219 A 
ATOM     11  N   UNL     1      -1.926   2.151   3.660  0.00  0.00    -0.220 N 
ATOM     12  N   UNL     1      -2.243   2.235   5.015  0.00  0.00    -0.141 NA
ATOM     13  C   UNL     1      -1.118   2.075   5.678  0.00  0.00    +0.211 A 
ATOM     14  N   UNL     1      -0.118   1.895   4.803  0.00  0.00    -0.187 NA
ATOM     15  H   UNL     1       1.148   1.852   2.277  0.00  0.00    +0.155 HD
ENDROOT
BRANCH   1  19
ATOM     16  C   UNL     1      -3.896   6.354   1.940  0.00  0.00    +0.121 A 
ATOM     17  C   UNL     1      -4.872   5.391   2.157  0.00  0.00    +0.046 A 
ATOM     18  C   UNL     1      -4.510   4.070   2.334  0.00  0.00    +0.009 A 
ATOM     19  C   UNL     1      -3.176   3.707   2.296  0.00  0.00    -0.018 A 
ATOM     20  C   UNL     1      -2.202   4.665   2.086  0.00  0.00    +0.009 A 
ATOM     21  C   UNL     1      -2.559   5.986   1.902  0.00  0.00    +0.046 A 
BRANCH  16  22
ATOM     22  O   UNL     1      -4.250   7.654   1.766  0.00  0.00    -0.487 OA
BRANCH  22  23
ATOM     23  C   UNL     1      -3.193   8.590   1.548  0.00  0.00    +0.264 C 
BRANCH  23  27
ATOM     24  C   UNL     1      -4.834  12.505   1.065  0.00  0.00    +0.000 A 
ATOM     25  C   UNL     1      -4.484  12.052   2.323  0.00  0.00    +0.000 A 
ATOM     26  C   UNL     1      -3.953  10.786   2.479  0.00  0.00    +0.007 A 
ATOM     27  C   UNL     1      -3.772   9.971   1.377  0.00  0.00    -0.010 A 
ATOM     28  C   UNL     1      -4.116  10.426   0.118  0.00  0.00    +0.007 A 
ATOM     29  C   UNL     1      -4.652  11.691  -0.038  0.00  0.00    +0.000 A 
ENDBRANCH  23  27
ENDBRANCH  22  23
ENDBRANCH  16  22
ENDBRANCH   1  19
BRANCH  13  30
ATOM     30  S   UNL     1      -0.952   2.095   7.432  0.00  0.00    -0.080 S 
BRANCH  30  31
ATOM     31  C   UNL     1       0.821   1.824   7.708  0.00  0.00    +0.115 C 
BRANCH  31  32
ATOM     32  C   UNL     1       1.104   1.819   9.188  0.00  0.00    -0.002 A 
ATOM     33  C   UNL     1       1.048   0.634   9.898  0.00  0.00    +0.007 A 
ATOM     34  C   UNL     1       1.308   0.629  11.256  0.00  0.00    +0.000 A 
ATOM     35  C   UNL     1       1.624   1.808  11.905  0.00  0.00    +0.003 A 
ATOM     36  C   UNL     1       1.680   2.994  11.197  0.00  0.00    +0.038 A 
ATOM     37  C   UNL     1       1.425   2.999   9.836  0.00  0.00    +0.127 A 
ATOM     38  F   UNL     1       1.486   4.157   9.141  0.00  0.00    -0.205 F 
ENDBRANCH  31  32
ENDBRANCH  30  31
ENDBRANCH  13  30
TORSDOF 7
