REMARK  Name = ZINC63857782
REMARK  7 active torsions:
REMARK  status: ('A' for Active; 'I' for Inactive)
REMARK    1  A    between atoms: C_4  and  C_7
REMARK    2  A    between atoms: N_9  and  C_10
REMARK    3  A    between atoms: C_10  and  C_12
REMARK    4  A    between atoms: C_10  and  C_22
REMARK    5  A    between atoms: C_12  and  C_13
REMARK    6  A    between atoms: N_24  and  N_25
REMARK    7  A    between atoms: C_26  and  C_27
REMARK                            x       y       z     vdW  Elec       q    Type
REMARK                         _______ _______ _______ _____ _____    ______ ____
ROOT
ATOM      1  C   UNL     1       4.946  -2.623  -0.103  0.00  0.00    +0.165 C 
ENDROOT
BRANCH   1   4
ATOM      2  C   UNL     1       3.887  -0.436  -0.287  0.00  0.00    +0.245 C 
ATOM      3  O   UNL     1       4.994   0.068  -0.286  0.00  0.00    -0.270 OA
ATOM      4  N   UNL     1       3.756  -1.774  -0.199  0.00  0.00    -0.300 N 
ATOM      5  H   UNL     1       2.873  -2.176  -0.200  0.00  0.00    +0.150 HD
BRANCH   2   9
ATOM      6  C   UNL     1       0.435   2.024  -0.565  0.00  0.00    +0.000 A 
ATOM      7  C   UNL     1       1.693   2.600  -0.565  0.00  0.00    +0.001 A 
ATOM      8  C   UNL     1       2.818   1.807  -0.474  0.00  0.00    +0.013 A 
ATOM      9  C   UNL     1       2.686   0.420  -0.383  0.00  0.00    +0.037 A 
ATOM     10  C   UNL     1       1.414  -0.154  -0.385  0.00  0.00    +0.013 A 
ATOM     11  C   UNL     1       0.297   0.650  -0.476  0.00  0.00    +0.001 A 
ENDBRANCH   2   9
ENDBRANCH   1   4
BRANCH   1  12
ATOM     12  C   UNL     1       4.606  -3.882   0.651  0.00  0.00    +0.253 C 
ATOM     13  O   UNL     1       3.479  -4.054   1.067  0.00  0.00    -0.272 OA
ATOM     14  N   UNL     1       5.553  -4.817   0.862  0.00  0.00    -0.205 N 
ATOM     15  H   UNL     1       6.453  -4.680   0.529  0.00  0.00    +0.177 HD
BRANCH  14  16
ATOM     16  N   UNL     1       5.237  -5.989   1.563  0.00  0.00    -0.188 NA
ATOM     17  C   UNL     1       6.148  -6.889   1.767  0.00  0.00    +0.139 C 
BRANCH  17  18
ATOM     18  C   UNL     1       5.815  -8.122   2.505  0.00  0.00    +0.013 A 
ATOM     19  C   UNL     1       6.792  -9.100   2.736  0.00  0.00    +0.012 A 
ATOM     20  C   UNL     1       6.428 -10.237   3.434  0.00  0.00    +0.020 A 
ATOM     21  C   UNL     1       5.123 -10.373   3.876  0.00  0.00    +0.111 A 
ATOM     22  N   UNL     1       4.224  -9.436   3.643  0.00  0.00    -0.263 NA
ATOM     23  C   UNL     1       4.522  -8.332   2.989  0.00  0.00    +0.120 A 
ENDBRANCH  17  18
ENDBRANCH  14  16
ENDBRANCH   1  12
BRANCH   1  24
ATOM     24  C   UNL     1       5.429  -2.984  -1.509  0.00  0.00    +0.065 C 
BRANCH  24  25
ATOM     25  C   UNL     1       4.331  -3.705  -2.248  0.00  0.00    -0.039 C 
ATOM     26  C   UNL     1       3.421  -3.160  -3.087  0.00  0.00    -0.001 A 
ATOM     27  C   UNL     1       3.191  -1.786  -3.547  0.00  0.00    +0.010 A 
ATOM     28  C   UNL     1       2.178  -1.543  -4.409  0.00  0.00    +0.001 A 
ATOM     29  C   UNL     1       1.344  -2.570  -4.874  0.00  0.00    +0.002 A 
ATOM     30  C   UNL     1       1.493  -3.857  -4.497  0.00  0.00    +0.026 A 
ATOM     31  C   UNL     1       2.527  -4.226  -3.593  0.00  0.00    +0.043 A 
ATOM     32  N   UNL     1       2.871  -5.385  -3.086  0.00  0.00    -0.380 N 
ATOM     33  C   UNL     1       4.027  -5.186  -2.204  0.00  0.00    +0.144 C 
ATOM     34  H   UNL     1       2.436  -6.234  -3.266  0.00  0.00    +0.160 HD
ENDBRANCH  24  25
ENDBRANCH   1  24
TORSDOF 7
