REMARK  Name = ZINC35778510
REMARK  15 active torsions:
REMARK  status: ('A' for Active; 'I' for Inactive)
REMARK    1  A    between atoms: C_1  and  C_2
REMARK    2  A    between atoms: C_2  and  C_3
REMARK    3  A    between atoms: C_2  and  C_33
REMARK    4  A    between atoms: C_2  and  O_35
REMARK    5  A    between atoms: C_3  and  N_4
REMARK    6  A    between atoms: N_4  and  C_5
REMARK    7  A    between atoms: N_4  and  C_11
REMARK    8  A    between atoms: C_5  and  C_6
REMARK    9  A    between atoms: C_11  and  C_12
REMARK   10  A    between atoms: C_13  and  C_27
REMARK   11  A    between atoms: N_15  and  C_26
REMARK   12  A    between atoms: C_16  and  O_17
REMARK   13  A    between atoms: O_17  and  C_18
REMARK   14  A    between atoms: C_21  and  O_24
REMARK   15  A    between atoms: O_24  and  C_25
REMARK                            x       y       z     vdW  Elec       q    Type
REMARK                         _______ _______ _______ _____ _____    ______ ____
ROOT
ATOM      1  C   UNL     1       2.490   0.555   3.128  0.00  0.00    +0.025 A 
ATOM      2  C   UNL     1       3.595  -0.076   2.525  0.00  0.00    +0.098 A 
ATOM      3  N   UNL     1       4.616   0.752   2.572  0.00  0.00    -0.168 NA
ATOM      4  N   UNL     1       4.197   1.931   3.203  0.00  0.00    -0.235 N 
ATOM      5  C   UNL     1       2.887   1.790   3.531  0.00  0.00    +0.221 A 
ATOM      6  C   UNL     1       5.027   3.111   3.459  0.00  0.00    +0.176 C 
ENDROOT
BRANCH   2   7
ATOM      7  C   UNL     1       3.605  -1.439   1.938  0.00  0.00    +0.002 A 
ATOM      8  C   UNL     1       4.237  -1.670   0.718  0.00  0.00    +0.010 A 
ATOM      9  C   UNL     1       4.244  -2.940   0.177  0.00  0.00    +0.001 A 
ATOM     10  C   UNL     1       3.624  -3.982   0.843  0.00  0.00    +0.000 A 
ATOM     11  C   UNL     1       2.994  -3.758   2.054  0.00  0.00    +0.001 A 
ATOM     12  C   UNL     1       2.988  -2.493   2.608  0.00  0.00    +0.010 A 
ENDBRANCH   2   7
BRANCH   1  13
ATOM     13  C   UNL     1       1.112  -0.032   3.292  0.00  0.00    -0.035 C 
BRANCH  13  14
ATOM     14  N   UNL     1       0.247   0.439   2.201  0.00  0.00    +0.389 N 
ATOM     15  H   UNL     1       0.255   1.448   2.177  0.00  0.00    -0.081 HD
BRANCH  14  16
ATOM     16  C   UNL     1       0.743  -0.085   0.922  0.00  0.00    -0.039 C 
BRANCH  16  18
ATOM     17  C   UNL     1      -0.011   2.073  -0.087  0.00  0.00    +0.044 C 
ATOM     18  C   UNL     1      -0.042   0.550  -0.228  0.00  0.00    +0.067 C 
BRANCH  18  19
ATOM     19  C   UNL     1       0.583   0.154  -1.541  0.00  0.00    -0.003 C 
ATOM     20  C   UNL     1      -0.120  -0.506  -2.428  0.00  0.00    +0.006 C 
ENDBRANCH  18  19
BRANCH  18  21
ATOM     21  O   UNL     1      -1.396   0.095  -0.188  0.00  0.00    -0.387 OA
ATOM     22  H   UNL     1      -1.488  -0.868  -0.192  0.00  0.00    +0.210 HD
ENDBRANCH  18  21
ENDBRANCH  16  18
ENDBRANCH  14  16
BRANCH  14  23
ATOM     23  C   UNL     1      -1.125  -0.035   2.425  0.00  0.00    -0.003 C 
BRANCH  23  24
ATOM     24  C   UNL     1      -1.654   0.546   3.711  0.00  0.00    +0.089 A 
ATOM     25  C   UNL     1      -2.374   1.677   3.826  0.00  0.00    +0.042 A 
ATOM     26  C   UNL     1      -2.656   1.845   5.201  0.00  0.00    +0.041 A 
ATOM     27  C   UNL     1      -2.092   0.808   5.844  0.00  0.00    +0.195 A 
ATOM     28  O   UNL     1      -1.491   0.021   4.936  0.00  0.00    -0.470 OA
ENDBRANCH  23  24
ENDBRANCH  14  23
ENDBRANCH  13  14
ENDBRANCH   1  13
BRANCH   5  29
ATOM     29  O   UNL     1       2.114   2.715   4.153  0.00  0.00    -0.438 OA
BRANCH  29  30
ATOM     30  C   UNL     1       2.104   2.729   5.513  0.00  0.00    +0.131 A 
ATOM     31  C   UNL     1       2.951   1.889   6.221  0.00  0.00    +0.050 A 
ATOM     32  C   UNL     1       2.940   1.903   7.603  0.00  0.00    +0.049 A 
ATOM     33  C   UNL     1       2.083   2.757   8.281  0.00  0.00    +0.120 A 
ATOM     34  C   UNL     1       1.236   3.597   7.573  0.00  0.00    +0.049 A 
ATOM     35  C   UNL     1       1.251   3.588   6.192  0.00  0.00    +0.050 A 
BRANCH  33  36
ATOM     36  O   UNL     1       2.073   2.771   9.641  0.00  0.00    -0.495 OA
ATOM     37  C   UNL     1       1.165   3.675  10.274  0.00  0.00    +0.277 C 
ENDBRANCH  33  36
ENDBRANCH  29  30
ENDBRANCH   5  29
TORSDOF 12
