REMARK  Name = ZINC04009104
REMARK  7 active torsions:
REMARK  status: ('A' for Active; 'I' for Inactive)
REMARK    1  A    between atoms: C_1  and  N_2
REMARK    2  A    between atoms: C_6  and  C_23
REMARK    3  A    between atoms: C_8  and  C_16
REMARK    4  A    between atoms: C_10  and  C_11
REMARK    5  A    between atoms: C_10  and  O_15
REMARK    6  A    between atoms: C_16  and  C_18
REMARK    7  A    between atoms: C_27  and  N_29
REMARK                            x       y       z     vdW  Elec       q    Type
REMARK                         _______ _______ _______ _____ _____    ______ ____
ROOT
ATOM      1  C   UNL     1      -6.082   6.351  -1.197  0.00  0.00    +0.137 C 
ATOM      2  N   UNL     1      -4.621   6.263  -1.250  0.00  0.00    -0.253 N 
ATOM      3  C   UNL     1      -4.024   5.926  -2.404  0.00  0.00    +0.305 C 
ATOM      4  O   UNL     1      -4.718   5.713  -3.379  0.00  0.00    -0.253 OA
ATOM      5  N   UNL     1      -2.693   5.813  -2.524  0.00  0.00    -0.292 N 
ATOM      6  C   UNL     1      -1.803   6.069  -1.390  0.00  0.00    +0.120 C 
ATOM      7  C   UNL     1      -2.539   5.737  -0.088  0.00  0.00    +0.145 C 
ATOM      8  C   UNL     1      -3.841   6.544  -0.044  0.00  0.00    +0.245 C 
ATOM      9  H   UNL     1      -2.313   5.558  -3.379  0.00  0.00    +0.151 HD
ENDROOT
BRANCH   6  10
ATOM     10  C   UNL     1      -1.398   7.521  -1.385  0.00  0.00    -0.024 A 
ATOM     11  C   UNL     1      -0.246   7.915  -0.731  0.00  0.00    +0.005 A 
ATOM     12  C   UNL     1       0.125   9.246  -0.726  0.00  0.00    +0.003 A 
ATOM     13  C   UNL     1      -0.656  10.184  -1.375  0.00  0.00    +0.033 A 
ATOM     14  C   UNL     1      -1.808   9.790  -2.029  0.00  0.00    +0.127 A 
ATOM     15  C   UNL     1      -2.177   8.457  -2.038  0.00  0.00    +0.038 A 
BRANCH  14  16
ATOM     16  N   UNL     1      -2.645  10.794  -2.725  0.00  0.00    +0.056 N 
ATOM     17  O   UNL     1      -2.317  11.967  -2.721  0.00  0.00    -0.126 OA
ATOM     18  O   UNL     1      -3.660  10.446  -3.301  0.00  0.00    -0.126 OA
ENDBRANCH  14  16
ENDBRANCH   6  10
BRANCH   8  19
ATOM     19  C   UNL     1      -4.649   6.144   1.192  0.00  0.00    +0.436 C 
ATOM     20  F   UNL     1      -3.900   6.407   2.344  0.00  0.00    -0.166 F 
ATOM     21  F   UNL     1      -5.837   6.881   1.231  0.00  0.00    -0.166 F 
ATOM     22  F   UNL     1      -4.949   4.779   1.132  0.00  0.00    -0.166 F 
ENDBRANCH   8  19
BRANCH   8  23
ATOM     23  O   UNL     1      -3.536   7.939   0.013  0.00  0.00    -0.364 OA
ATOM     24  H   UNL     1      -4.316   8.511   0.043  0.00  0.00    +0.212 HD
ENDBRANCH   8  23
BRANCH   7  25
ATOM     25  C   UNL     1      -2.854   4.264  -0.046  0.00  0.00    +0.180 C 
ATOM     26  O   UNL     1      -3.902   3.855  -0.502  0.00  0.00    -0.291 OA
BRANCH  25  27
ATOM     27  C   UNL     1      -1.931   3.360   0.524  0.00  0.00    +0.055 A 
ATOM     28  C   UNL     1      -2.024   1.978   0.657  0.00  0.00    +0.019 A 
ATOM     29  C   UNL     1      -0.974   1.339   1.261  0.00  0.00    +0.008 A 
ATOM     30  C   UNL     1       0.094   2.068   1.685  0.00  0.00    +0.046 A 
ATOM     31  S   UNL     1      -0.339   3.691   1.258  0.00  0.00    -0.094 S 
ENDBRANCH  25  27
ENDBRANCH   7  25
TORSDOF 6
