REMARK  Name = ZINC39684678
REMARK  9 active torsions:
REMARK  status: ('A' for Active; 'I' for Inactive)
REMARK    1  A    between atoms: C_1  and  C_2
REMARK    2  A    between atoms: C_2  and  C_4
REMARK    3  A    between atoms: C_2  and  N_8
REMARK    4  A    between atoms: C_4  and  C_5
REMARK    5  A    between atoms: C_4  and  C_6
REMARK    6  A    between atoms: C_4  and  C_7
REMARK    7  A    between atoms: C_9  and  C_11
REMARK    8  A    between atoms: C_22  and  C_24
REMARK    9  A    between atoms: C_27  and  C_29
REMARK                            x       y       z     vdW  Elec       q    Type
REMARK                         _______ _______ _______ _____ _____    ______ ____
ROOT
ATOM      1  C   UNL     1      -3.442  -1.177   1.191  0.00  0.00    +0.100 C 
ATOM      2  C   UNL     1      -3.507  -2.570   0.526  0.00  0.00    +0.121 C 
ATOM      3  N   UNL     1      -3.410  -3.528   1.653  0.00  0.00    -0.294 N 
ATOM      4  C   UNL     1      -4.224  -2.915   2.729  0.00  0.00    +0.115 C 
ATOM      5  C   UNL     1      -3.917  -1.407   2.636  0.00  0.00    -0.004 C 
ATOM      6  C   UNL     1      -5.178  -0.593   2.914  0.00  0.00    -0.010 C 
ATOM      7  C   UNL     1      -5.598  -0.792   4.373  0.00  0.00    -0.082 C 
ATOM      8  N   UNL     1      -4.509  -0.364   5.260  0.00  0.00    +0.379 N 
ATOM      9  C   UNL     1      -3.330  -1.213   5.051  0.00  0.00    -0.082 C 
ATOM     10  C   UNL     1      -2.814  -1.032   3.621  0.00  0.00    -0.010 C 
ATOM     11  C   UNL     1      -2.734  -4.693   1.690  0.00  0.00    +0.282 C 
ATOM     12  O   UNL     1      -2.752  -5.375   2.698  0.00  0.00    -0.267 OA
ATOM     13  H   UNL     1      -4.271   0.596   5.059  0.00  0.00    -0.086 HD
ATOM     14  H   UNL     1      -4.810  -0.439   6.220  0.00  0.00    -0.086 HD
ENDROOT
BRANCH  11  15
ATOM     15  C   UNL     1      -1.978  -5.140   0.517  0.00  0.00    +0.190 A 
ATOM     16  C   UNL     1      -1.252  -6.306   0.419  0.00  0.00    +0.055 A 
ATOM     17  C   UNL     1      -0.697  -6.329  -0.865  0.00  0.00    +0.050 A 
ATOM     18  C   UNL     1      -1.101  -5.189  -1.498  0.00  0.00    +0.136 A 
ATOM     19  O   UNL     1      -1.877  -4.482  -0.658  0.00  0.00    -0.450 OA
BRANCH  18  20
ATOM     20  C   UNL     1      -0.749  -4.798  -2.878  0.00  0.00    +0.017 A 
ATOM     21  C   UNL     1       0.060  -5.628  -3.657  0.00  0.00    +0.011 A 
ATOM     22  C   UNL     1       0.385  -5.258  -4.945  0.00  0.00    +0.001 A 
ATOM     23  C   UNL     1      -0.089  -4.067  -5.466  0.00  0.00    +0.000 A 
ATOM     24  C   UNL     1      -0.890  -3.239  -4.700  0.00  0.00    +0.001 A 
ATOM     25  C   UNL     1      -1.228  -3.600  -3.412  0.00  0.00    +0.011 A 
ENDBRANCH  18  20
ENDBRANCH  11  15
BRANCH   1  27
ATOM     26  N   UNL     1      -1.800   0.673   1.156  0.00  0.00    -0.312 N 
ATOM     27  C   UNL     1      -2.029  -0.655   1.181  0.00  0.00    +0.218 C 
ATOM     28  O   UNL     1      -1.096  -1.431   1.194  0.00  0.00    -0.275 OA
ATOM     29  H   UNL     1      -2.546   1.293   1.145  0.00  0.00    +0.149 HD
BRANCH  26  31
ATOM     30  C   UNL     1       0.097   1.265   2.581  0.00  0.00    +0.028 C 
ATOM     31  C   UNL     1      -0.426   1.180   1.146  0.00  0.00    +0.075 C 
BRANCH  31  32
ATOM     32  C   UNL     1      -0.401   2.572   0.511  0.00  0.00    -0.020 C 
ATOM     33  C   UNL     1       1.035   3.101   0.500  0.00  0.00    +0.012 C 
ATOM     34  C   UNL     1      -0.924   2.487  -0.925  0.00  0.00    +0.012 C 
ATOM     35  C   UNL     1      -1.288   3.519   1.321  0.00  0.00    +0.012 C 
ENDBRANCH  31  32
ENDBRANCH  26  31
ENDBRANCH   1  27
TORSDOF 5
