REMARK  Name = ZINC36203681
REMARK  19 active torsions:
REMARK  status: ('A' for Active; 'I' for Inactive)
REMARK    1  A    between atoms: C_1  and  C_2
REMARK    2  A    between atoms: C_2  and  C_3
REMARK    3  A    between atoms: C_2  and  N_4
REMARK    4  A    between atoms: N_4  and  C_5
REMARK    5  A    between atoms: N_4  and  C_29
REMARK    6  A    between atoms: C_5  and  C_6
REMARK    7  A    between atoms: C_9  and  C_11
REMARK    8  A    between atoms: C_11  and  C_12
REMARK    9  A    between atoms: C_11  and  C_20
REMARK   10  A    between atoms: C_11  and  O_28
REMARK   11  A    between atoms: C_15  and  O_18
REMARK   12  A    between atoms: O_18  and  C_19
REMARK   13  A    between atoms: C_23  and  O_26
REMARK   14  A    between atoms: O_26  and  C_27
REMARK   15  A    between atoms: C_29  and  C_30
REMARK   16  A    between atoms: C_32  and  O_38
REMARK   17  A    between atoms: C_34  and  O_36
REMARK   18  A    between atoms: O_36  and  C_37
REMARK   19  A    between atoms: O_38  and  C_39
REMARK                            x       y       z     vdW  Elec       q    Type
REMARK                         _______ _______ _______ _____ _____    ______ ____
ROOT
ATOM      1  C   UNL     1      -1.543  -2.553   1.127  0.00  0.00    +0.089 A 
ATOM      2  C   UNL     1      -2.118  -2.904   2.291  0.00  0.00    +0.043 A 
ATOM      3  C   UNL     1      -1.154  -3.639   3.019  0.00  0.00    +0.048 A 
ATOM      4  C   UNL     1      -0.048  -3.692   2.257  0.00  0.00    +0.146 A 
ATOM      5  O   UNL     1      -0.290  -3.038   1.110  0.00  0.00    -0.463 OA
ENDROOT
BRANCH   1   6
ATOM      6  C   UNL     1      -2.195  -1.756   0.027  0.00  0.00    -0.002 C 
BRANCH   6   7
ATOM      7  N   UNL     1      -2.475  -0.396   0.508  0.00  0.00    +0.389 N 
ATOM      8  H   UNL     1      -2.976  -0.445   1.382  0.00  0.00    -0.080 HD
BRANCH   7  10
ATOM      9  C   UNL     1      -0.435  -0.318   1.861  0.00  0.00    -0.013 C 
ATOM     10  C   UNL     1      -1.209   0.323   0.708  0.00  0.00    -0.074 C 
ATOM     11  C   UNL     1      -0.372   0.248  -0.571  0.00  0.00    -0.013 C 
ENDBRANCH   7  10
BRANCH   7  12
ATOM     12  C   UNL     1      -3.290   0.316  -0.485  0.00  0.00    -0.042 C 
BRANCH  12  13
ATOM     13  C   UNL     1      -3.736   1.638   0.086  0.00  0.00    -0.057 A 
ATOM     14  C   UNL     1      -4.852   1.698   0.897  0.00  0.00    +0.047 A 
ATOM     15  C   UNL     1      -5.264   2.914   1.424  0.00  0.00    +0.124 A 
ATOM     16  C   UNL     1      -4.555   4.069   1.135  0.00  0.00    +0.091 A 
ATOM     17  C   UNL     1      -3.435   4.006   0.320  0.00  0.00    +0.124 A 
ATOM     18  C   UNL     1      -3.024   2.787  -0.200  0.00  0.00    +0.047 A 
BRANCH  17  19
ATOM     19  O   UNL     1      -2.738   5.137   0.035  0.00  0.00    -0.495 OA
ATOM     20  C   UNL     1      -3.215   6.356   0.608  0.00  0.00    +0.277 C 
ENDBRANCH  17  19
BRANCH  15  21
ATOM     21  O   UNL     1      -6.363   2.972   2.222  0.00  0.00    -0.495 OA
ATOM     22  C   UNL     1      -6.729   4.257   2.729  0.00  0.00    +0.277 C 
ENDBRANCH  15  21
ENDBRANCH  12  13
ENDBRANCH   7  12
ENDBRANCH   6   7
ENDBRANCH   1   6
BRANCH   4  23
ATOM     23  C   UNL     1       1.244  -4.376   2.625  0.00  0.00    +0.174 C 
BRANCH  23  24
ATOM     24  C   UNL     1       1.929  -4.863   1.374  0.00  0.00    -0.004 A 
ATOM     25  C   UNL     1       2.404  -3.953   0.448  0.00  0.00    +0.011 A 
ATOM     26  C   UNL     1       3.032  -4.397  -0.699  0.00  0.00    +0.046 A 
ATOM     27  C   UNL     1       3.186  -5.758  -0.922  0.00  0.00    +0.120 A 
ATOM     28  C   UNL     1       2.709  -6.669   0.009  0.00  0.00    +0.046 A 
ATOM     29  C   UNL     1       2.086  -6.220   1.157  0.00  0.00    +0.011 A 
BRANCH  27  30
ATOM     30  O   UNL     1       3.802  -6.197  -2.051  0.00  0.00    -0.495 OA
ATOM     31  C   UNL     1       3.926  -7.612  -2.214  0.00  0.00    +0.277 C 
ENDBRANCH  27  30
ENDBRANCH  23  24
BRANCH  23  32
ATOM     32  C   UNL     1       2.142  -3.400   3.342  0.00  0.00    -0.004 A 
ATOM     33  C   UNL     1       1.705  -2.111   3.586  0.00  0.00    +0.011 A 
ATOM     34  C   UNL     1       2.526  -1.215   4.243  0.00  0.00    +0.046 A 
ATOM     35  C   UNL     1       3.790  -1.609   4.657  0.00  0.00    +0.120 A 
ATOM     36  C   UNL     1       4.226  -2.903   4.410  0.00  0.00    +0.046 A 
ATOM     37  C   UNL     1       3.399  -3.797   3.758  0.00  0.00    +0.011 A 
BRANCH  35  38
ATOM     38  O   UNL     1       4.600  -0.729   5.302  0.00  0.00    -0.495 OA
ATOM     39  C   UNL     1       5.888  -1.204   5.699  0.00  0.00    +0.277 C 
ENDBRANCH  35  38
ENDBRANCH  23  32
BRANCH  23  40
ATOM     40  O   UNL     1       0.969  -5.486   3.481  0.00  0.00    -0.372 OA
ATOM     41  H   UNL     1       0.395  -6.156   3.084  0.00  0.00    +0.212 HD
ENDBRANCH  23  40
ENDBRANCH   4  23
TORSDOF 13
