REMARK  Name = ZINC12656207
REMARK  12 active torsions:
REMARK  status: ('A' for Active; 'I' for Inactive)
REMARK    1  A    between atoms: C_1  and  C_2
REMARK    2  A    between atoms: C_2  and  O_3
REMARK    3  A    between atoms: O_3  and  C_4
REMARK    4  A    between atoms: C_4  and  C_6
REMARK    5  A    between atoms: C_11  and  N_12
REMARK    6  A    between atoms: C_11  and  N_68
REMARK    7  A    between atoms: N_15  and  C_28
REMARK    8  A    between atoms: C_16  and  C_18
REMARK    9  A    between atoms: C_21  and  C_24
REMARK   10  A    between atoms: C_24  and  C_25
REMARK   11  A    between atoms: C_24  and  C_26
REMARK   12  A    between atoms: C_24  and  C_27
REMARK                            x       y       z     vdW  Elec       q    Type
REMARK                         _______ _______ _______ _____ _____    ______ ____
ROOT
ATOM      1  N   UNL     1       2.778   3.883   0.140  0.00  0.00    -0.257 N 
ATOM      2  C   UNL     1       3.333   4.247   1.314  0.00  0.00    +0.181 A 
ATOM      3  S   UNL     1       2.636   4.051   2.865  0.00  0.00    -0.011 S 
ATOM      4  N   UNL     1       4.538   4.790   1.045  0.00  0.00    -0.271 N 
ATOM      5  C   UNL     1       4.726   4.769  -0.324  0.00  0.00    +0.167 A 
ATOM      6  N   UNL     1       3.678   4.228  -0.878  0.00  0.00    -0.152 NA
ENDROOT
BRANCH   5   7
ATOM      7  C   UNL     1       5.918   5.277  -1.040  0.00  0.00    +0.020 A 
ATOM      8  C   UNL     1       6.787   6.167  -0.410  0.00  0.00    +0.012 A 
ATOM      9  C   UNL     1       7.900   6.632  -1.081  0.00  0.00    +0.005 A 
ATOM     10  C   UNL     1       8.147   6.226  -2.380  0.00  0.00    -0.042 A 
ATOM     11  C   UNL     1       7.285   5.348  -3.013  0.00  0.00    +0.005 A 
ATOM     12  C   UNL     1       6.173   4.871  -2.350  0.00  0.00    +0.012 A 
BRANCH  10  13
ATOM     13  C   UNL     1       9.360   6.744  -3.110  0.00  0.00    -0.013 C 
ATOM     14  C   UNL     1       8.917   7.497  -4.365  0.00  0.00    +0.015 C 
ATOM     15  C   UNL     1      10.140   7.690  -2.195  0.00  0.00    +0.015 C 
ATOM     16  C   UNL     1      10.255   5.568  -3.509  0.00  0.00    +0.015 C 
ENDBRANCH  10  13
ENDBRANCH   5   7
BRANCH   4  17
ATOM     17  C   UNL     1       5.440   5.293   1.991  0.00  0.00    +0.050 A 
ATOM     18  C   UNL     1       6.644   4.640   2.221  0.00  0.00    +0.026 A 
ATOM     19  C   UNL     1       7.534   5.141   3.151  0.00  0.00    +0.002 A 
ATOM     20  C   UNL     1       7.223   6.286   3.860  0.00  0.00    +0.000 A 
ATOM     21  C   UNL     1       6.023   6.937   3.637  0.00  0.00    +0.002 A 
ATOM     22  C   UNL     1       5.131   6.443   2.705  0.00  0.00    +0.026 A 
ENDBRANCH   4  17
BRANCH   1  23
ATOM     23  C   UNL     1       1.469   3.250  -0.040  0.00  0.00    +0.072 C 
BRANCH  23  29
ATOM     24  C   UNL     1       1.397  -0.869   1.106  0.00  0.00    +0.094 C 
ATOM     25  C   UNL     1       0.506  -0.390  -0.043  0.00  0.00    -0.004 C 
ATOM     26  C   UNL     1       0.315   1.124   0.062  0.00  0.00    -0.075 C 
ATOM     27  C   UNL     1       2.479   1.381   1.121  0.00  0.00    -0.075 C 
ATOM     28  C   UNL     1       2.735  -0.126   1.047  0.00  0.00    -0.004 C 
ATOM     29  N   UNL     1       1.636   1.782  -0.025  0.00  0.00    +0.393 N 
ATOM     30  H   UNL     1       2.097   1.490  -0.895  0.00  0.00    -0.079 HD
BRANCH  24  31
ATOM     31  C   UNL     1       1.638  -2.351   0.973  0.00  0.00    +0.310 C 
ATOM     32  O   UNL     1       1.148  -2.962   0.054  0.00  0.00    -0.251 OA
BRANCH  31  33
ATOM     33  O   UNL     1       2.398  -2.991   1.876  0.00  0.00    -0.465 OA
BRANCH  33  35
ATOM     34  C   UNL     1       3.473  -4.969   2.804  0.00  0.00    +0.048 C 
ATOM     35  C   UNL     1       2.587  -4.418   1.685  0.00  0.00    +0.229 C 
ENDBRANCH  33  35
ENDBRANCH  31  33
ENDBRANCH  24  31
ENDBRANCH  23  29
ENDBRANCH   1  23
TORSDOF 8
