REMARK  Name = ZINC35388812
REMARK  6 active torsions:
REMARK  status: ('A' for Active; 'I' for Inactive)
REMARK    1  A    between atoms: C_4  and  N_7
REMARK    2  A    between atoms: C_16  and  C_22
REMARK    3  A    between atoms: C_22  and  N_23
REMARK    4  A    between atoms: C_24  and  C_26
REMARK    5  A    between atoms: C_26  and  O_27
REMARK    6  A    between atoms: O_27  and  C_28
REMARK                            x       y       z     vdW  Elec       q    Type
REMARK                         _______ _______ _______ _____ _____    ______ ____
ROOT
ATOM      1  N   UNL     1       3.624  -0.652  -0.037  0.00  0.00    -0.210 N 
ATOM      2  C   UNL     1       4.800  -0.025  -0.139  0.00  0.00    +0.233 C 
ATOM      3  O   UNL     1       4.947   1.176  -0.226  0.00  0.00    -0.274 OA
ATOM      4  C   UNL     1       5.918  -1.042  -0.127  0.00  0.00    +0.123 C 
ATOM      5  C   UNL     1       6.522  -1.124  -1.563  0.00  0.00    +0.155 C 
ATOM      6  C   UNL     1       7.608  -2.200  -1.478  0.00  0.00    +0.004 C 
ATOM      7  C   UNL     1       6.981  -3.360  -1.385  0.00  0.00    +0.008 C 
ATOM      8  C   UNL     1       5.483  -3.047  -1.409  0.00  0.00    +0.116 C 
ATOM      9  C   UNL     1       5.162  -2.401   0.002  0.00  0.00    +0.128 C 
ATOM     10  C   UNL     1       3.710  -1.984   0.052  0.00  0.00    +0.233 C 
ATOM     11  O   UNL     1       2.768  -2.740   0.156  0.00  0.00    -0.274 OA
ATOM     12  O   UNL     1       5.460  -1.843  -2.276  0.00  0.00    -0.359 OA
ENDROOT
BRANCH   1  16
ATOM     13  C   UNL     1      -0.016   1.380   0.011  0.00  0.00    +0.000 A 
ATOM     14  C   UNL     1       0.420   0.718   1.145  0.00  0.00    +0.002 A 
ATOM     15  C   UNL     1       1.626   0.044   1.131  0.00  0.00    +0.024 A 
ATOM     16  C   UNL     1       2.399   0.031  -0.021  0.00  0.00    +0.044 A 
ATOM     17  C   UNL     1       1.958   0.695  -1.157  0.00  0.00    +0.024 A 
ATOM     18  C   UNL     1       0.752   1.368  -1.138  0.00  0.00    +0.002 A 
ENDBRANCH   1  16
BRANCH   8  19
ATOM     19  C   UNL     1       4.571  -4.204  -1.822  0.00  0.00    +0.144 C 
BRANCH  19  20
ATOM     20  N   UNL     1       5.020  -4.745  -3.107  0.00  0.00    -0.309 N 
ATOM     21  C   UNL     1       4.363  -5.778  -3.671  0.00  0.00    +0.251 C 
ATOM     22  O   UNL     1       3.399  -6.259  -3.114  0.00  0.00    -0.272 OA
ATOM     23  H   UNL     1       5.792  -4.360  -3.552  0.00  0.00    +0.149 HD
BRANCH  21  24
ATOM     24  C   UNL     1       4.825  -6.334  -4.992  0.00  0.00    +0.324 C 
BRANCH  24  25
ATOM     25  O   UNL     1       3.974  -7.415  -5.378  0.00  0.00    -0.481 OA
BRANCH  25  26
ATOM     26  C   UNL     1       4.255  -8.033  -6.556  0.00  0.00    +0.141 A 
ATOM     27  C   UNL     1       5.333  -7.611  -7.321  0.00  0.00    +0.068 A 
ATOM     28  C   UNL     1       5.618  -8.240  -8.518  0.00  0.00    +0.063 A 
ATOM     29  C   UNL     1       4.829  -9.291  -8.954  0.00  0.00    +0.061 A 
ATOM     30  C   UNL     1       3.754  -9.713  -8.193  0.00  0.00    +0.045 A 
ATOM     31  C   UNL     1       3.469  -9.090  -6.992  0.00  0.00    +0.084 A 
ATOM     32 CL   UNL     1       2.124  -9.624  -6.034  0.00  0.00    -0.080 Cl
ATOM     33 CL   UNL     1       5.188 -10.079 -10.459  0.00  0.00    -0.082 Cl
ATOM     34 CL   UNL     1       6.966  -7.713  -9.476  0.00  0.00    -0.082 Cl
ENDBRANCH  25  26
ENDBRANCH  24  25
ENDBRANCH  21  24
ENDBRANCH  19  20
ENDBRANCH   8  19
TORSDOF 6
