REMARK  Name = ZINC60392757
REMARK  5 active torsions:
REMARK  status: ('A' for Active; 'I' for Inactive)
REMARK    1  A    between atoms: C_1  and  C_2
REMARK    2  A    between atoms: N_6  and  C_11
REMARK    3  A    between atoms: C_7  and  C_10
REMARK    4  A    between atoms: C_14  and  N_20
REMARK    5  A    between atoms: C_16  and  C_17
REMARK                            x       y       z     vdW  Elec       q    Type
REMARK                         _______ _______ _______ _____ _____    ______ ____
ROOT
ATOM      1  C   UNL     1       4.191  -0.199  -0.025  0.00  0.00    +0.028 A 
ATOM      2  C   UNL     1       4.540   1.133  -0.123  0.00  0.00    +0.024 A 
ATOM      3  C   UNL     1       5.871   1.503  -0.153  0.00  0.00    +0.024 A 
ATOM      4  C   UNL     1       6.869   0.537  -0.082  0.00  0.00    +0.025 A 
ATOM      5  C   UNL     1       6.530  -0.803   0.018  0.00  0.00    +0.039 A 
ATOM      6  C   UNL     1       5.185  -1.177   0.052  0.00  0.00    +0.084 A 
ENDROOT
BRANCH   1  11
ATOM      7  C   UNL     1      -0.018   1.505  -0.324  0.00  0.00    +0.007 C 
ATOM      8  C   UNL     1       0.002  -0.011  -0.117  0.00  0.00    -0.011 C 
ATOM      9  C   UNL     1       0.754  -0.676  -1.273  0.00  0.00    +0.020 C 
ATOM     10  C   UNL     1       2.209  -0.202  -1.268  0.00  0.00    +0.085 C 
ATOM     11  N   UNL     1       2.843  -0.568   0.004  0.00  0.00    -0.391 NA
ATOM     12  C   UNL     1       2.171   0.123   1.112  0.00  0.00    +0.053 C 
ATOM     13  C   UNL     1       0.714  -0.338   1.199  0.00  0.00    +0.024 C 
ATOM     14  C   UNL     1       2.887  -0.202   2.424  0.00  0.00    +0.026 C 
ATOM     15  H   UNL     1       2.772  -1.565   0.139  0.00  0.00    +0.127 HD
ENDBRANCH   1  11
BRANCH   6  16
ATOM     16  C   UNL     1       4.815  -2.601   0.163  0.00  0.00    +0.388 C 
ATOM     17  O   UNL     1       5.241  -3.273   1.092  0.00  0.00    -0.241 OA
ATOM     18  O   UNL     1       4.082  -3.110  -0.673  0.00  0.00    -0.241 OA
ENDBRANCH   6  16
BRANCH   4  19
ATOM     19  N   UNL     1       8.213   0.918  -0.113  0.00  0.00    -0.358 N 
ATOM     20  H   UNL     1       8.450   1.856  -0.183  0.00  0.00    +0.142 HD
ATOM     21  H   UNL     1       8.909   0.244  -0.063  0.00  0.00    +0.142 HD
ENDBRANCH   4  19
TORSDOF 3
