REMARK  Name = ZINC15319891
REMARK  6 active torsions:
REMARK  status: ('A' for Active; 'I' for Inactive)
REMARK    1  A    between atoms: C_1  and  C_2
REMARK    2  A    between atoms: N_10  and  C_13
REMARK    3  A    between atoms: C_16  and  N_19
REMARK    4  A    between atoms: C_20  and  C_22
REMARK    5  A    between atoms: N_31  and  C_34
REMARK    6  A    between atoms: C_34  and  C_35
REMARK                            x       y       z     vdW  Elec       q    Type
REMARK                         _______ _______ _______ _____ _____    ______ ____
ROOT
ATOM      1  C   UNL     1      -0.030   1.489   0.064  0.00  0.00    +0.025 C 
ATOM      2  C   UNL     1      -0.002  -0.041   0.041  0.00  0.00    +0.064 C 
ATOM      3  C   UNL     1      -1.438  -0.605   0.091  0.00  0.00    +0.107 C 
ATOM      4  C   UNL     1      -1.334  -1.877   0.978  0.00  0.00    +0.123 C 
ATOM      5  C   UNL     1      -1.640  -3.000   0.013  0.00  0.00    +0.233 C 
ATOM      6  O   UNL     1      -1.661  -4.179   0.294  0.00  0.00    -0.274 OA
ATOM      7  N   UNL     1      -1.886  -2.490  -1.200  0.00  0.00    -0.210 N 
ATOM      8  C   UNL     1      -1.808  -1.141  -1.274  0.00  0.00    +0.232 C 
ATOM      9  O   UNL     1      -1.997  -0.467  -2.263  0.00  0.00    -0.274 OA
ATOM     10  C   UNL     1       0.136  -1.931   1.409  0.00  0.00    +0.136 C 
ATOM     11  N   UNL     1       0.659  -0.564   1.266  0.00  0.00    -0.296 NA
ATOM     12  C   UNL     1       0.280  -2.447   2.813  0.00  0.00    +0.004 A 
ATOM     13  C   UNL     1      -0.199  -2.022   4.032  0.00  0.00    +0.008 A 
ATOM     14  C   UNL     1       0.114  -2.726   5.181  0.00  0.00    +0.000 A 
ATOM     15  C   UNL     1       0.907  -3.856   5.102  0.00  0.00    +0.002 A 
ATOM     16  C   UNL     1       1.389  -4.285   3.883  0.00  0.00    +0.024 A 
ATOM     17  C   UNL     1       1.079  -3.583   2.721  0.00  0.00    +0.042 A 
ATOM     18  N   UNL     1       1.439  -3.813   1.391  0.00  0.00    -0.268 N 
ATOM     19  C   UNL     1       0.925  -2.888   0.558  0.00  0.00    +0.245 C 
ATOM     20  O   UNL     1       1.071  -2.836  -0.645  0.00  0.00    -0.273 OA
ATOM     21  H   UNL     1       1.662  -0.563   1.164  0.00  0.00    +0.123 HD
ENDROOT
BRANCH   7  22
ATOM     22  C   UNL     1      -2.206  -3.289  -2.308  0.00  0.00    +0.044 A 
ATOM     23  C   UNL     1      -1.446  -3.204  -3.467  0.00  0.00    +0.026 A 
ATOM     24  C   UNL     1      -1.761  -3.989  -4.558  0.00  0.00    +0.025 A 
ATOM     25  C   UNL     1      -2.837  -4.865  -4.496  0.00  0.00    +0.033 A 
ATOM     26  C   UNL     1      -3.596  -4.950  -3.336  0.00  0.00    +0.025 A 
ATOM     27  C   UNL     1      -3.278  -4.168  -2.244  0.00  0.00    +0.026 A 
BRANCH  25  28
ATOM     28  N   UNL     1      -3.156  -5.662  -5.602  0.00  0.00    -0.286 N 
ATOM     29  C   UNL     1      -4.444  -5.951  -5.875  0.00  0.00    +0.214 C 
ATOM     30  O   UNL     1      -5.331  -5.442  -5.223  0.00  0.00    -0.276 OA
ATOM     31  C   UNL     1      -4.782  -6.908  -6.989  0.00  0.00    +0.109 C 
ATOM     32  H   UNL     1      -2.451  -6.005  -6.172  0.00  0.00    +0.155 HD
ENDBRANCH  25  28
ENDBRANCH   7  22
BRANCH  18  33
ATOM     33  C   UNL     1       2.279  -4.931   0.954  0.00  0.00    +0.125 C 
BRANCH  33  34
ATOM     34  C   UNL     1       1.395  -6.134   0.623  0.00  0.00    +0.099 C 
ATOM     35 BR   UNL     1       2.522  -7.634   0.035  0.00  0.00    -0.090 Br
ENDBRANCH  33  34
ENDBRANCH  18  33
TORSDOF 4
