REMARK  Name = ZINC33259862
REMARK  10 active torsions:
REMARK  status: ('A' for Active; 'I' for Inactive)
REMARK    1  A    between atoms: C_1  and  C_2
REMARK    2  A    between atoms: C_2  and  C_3
REMARK    3  A    between atoms: C_2  and  N_4
REMARK    4  A    between atoms: C_5  and  C_7
REMARK    5  A    between atoms: C_7  and  N_8
REMARK    6  A    between atoms: N_11  and  C_14
REMARK    7  A    between atoms: C_17  and  N_23
REMARK    8  A    between atoms: C_18  and  C_20
REMARK    9  A    between atoms: N_23  and  S_24
REMARK   10  A    between atoms: S_24  and  C_27
REMARK                            x       y       z     vdW  Elec       q    Type
REMARK                         _______ _______ _______ _____ _____    ______ ____
ROOT
ATOM      1  C   UNL     1      -4.546  -6.935  -3.401  0.00  0.00    +0.031 A 
ATOM      2  C   UNL     1      -3.966  -6.890  -4.665  0.00  0.00    +0.025 A 
ATOM      3  C   UNL     1      -4.632  -7.407  -5.757  0.00  0.00    +0.027 A 
ATOM      4  C   UNL     1      -5.889  -7.977  -5.602  0.00  0.00    +0.062 A 
ATOM      5  C   UNL     1      -6.481  -8.025  -4.330  0.00  0.00    +0.087 A 
ATOM      6  C   UNL     1      -5.795  -7.504  -3.227  0.00  0.00    +0.040 A 
ENDROOT
BRANCH   1  10
ATOM      7  N   UNL     1      -2.934  -4.521  -0.470  0.00  0.00    -0.291 NA
ATOM      8  C   UNL     1      -2.414  -4.499  -1.844  0.00  0.00    +0.104 C 
ATOM      9  C   UNL     1      -2.483  -5.911  -2.435  0.00  0.00    +0.120 C 
ATOM     10  N   UNL     1      -3.861  -6.407  -2.300  0.00  0.00    -0.327 N 
ATOM     11  C   UNL     1      -4.500  -6.335  -0.977  0.00  0.00    +0.120 C 
ATOM     12  C   UNL     1      -4.351  -4.906  -0.443  0.00  0.00    +0.104 C 
BRANCH   7  13
ATOM     13  C   UNL     1      -2.727  -3.227   0.192  0.00  0.00    +0.180 C 
BRANCH  13  15
ATOM     14  N   UNL     1      -0.819  -1.847   0.952  0.00  0.00    -0.312 N 
ATOM     15  C   UNL     1      -1.250  -2.980   0.364  0.00  0.00    +0.227 C 
ATOM     16  O   UNL     1      -0.449  -3.803  -0.027  0.00  0.00    -0.274 OA
ATOM     17  H   UNL     1      -1.460  -1.189   1.264  0.00  0.00    +0.149 HD
BRANCH  14  19
ATOM     18  C   UNL     1       0.876  -0.102   1.205  0.00  0.00    +0.027 C 
ATOM     19  C   UNL     1       0.616  -1.607   1.118  0.00  0.00    +0.067 C 
ATOM     20  C   UNL     1       1.100  -2.283   2.403  0.00  0.00    +0.027 C 
ENDBRANCH  14  19
ENDBRANCH  13  15
ENDBRANCH   7  13
ENDBRANCH   1  10
BRANCH   5  21
ATOM     21  C   UNL     1      -7.812  -8.626  -4.155  0.00  0.00    +0.388 C 
ATOM     22  O   UNL     1      -8.324  -8.667  -3.045  0.00  0.00    -0.241 OA
ATOM     23  O   UNL     1      -8.407  -9.085  -5.120  0.00  0.00    -0.241 OA
ENDBRANCH   5  21
BRANCH   4  24
ATOM     24  N   UNL     1      -6.560  -8.496  -6.703  0.00  0.00    -0.215 N 
ATOM     25  H   UNL     1      -7.525  -8.416  -6.766  0.00  0.00    +0.174 HD
BRANCH  24  26
ATOM     26  S   UNL     1      -5.712  -9.252  -7.908  0.00  0.00    +0.072 S 
ATOM     27  O   UNL     1      -6.673  -9.783  -8.810  0.00  0.00    -0.150 OA
ATOM     28  O   UNL     1      -4.699  -8.345  -8.322  0.00  0.00    -0.150 OA
BRANCH  26  29
ATOM     29  C   UNL     1      -4.889 -10.629  -7.181  0.00  0.00    +0.109 A 
ATOM     30  C   UNL     1      -3.619 -10.477  -6.656  0.00  0.00    +0.031 A 
ATOM     31  C   UNL     1      -2.972 -11.556  -6.085  0.00  0.00    +0.040 A 
ATOM     32  C   UNL     1      -3.597 -12.791  -6.039  0.00  0.00    +0.124 A 
ATOM     33  C   UNL     1      -4.869 -12.943  -6.565  0.00  0.00    +0.040 A 
ATOM     34  C   UNL     1      -5.515 -11.861  -7.131  0.00  0.00    +0.031 A 
ATOM     35  F   UNL     1      -2.966 -13.848  -5.481  0.00  0.00    -0.205 F 
ENDBRANCH  26  29
ENDBRANCH  24  26
ENDBRANCH   4  24
TORSDOF 8
