REMARK  Name = ZINC47698426
REMARK  6 active torsions:
REMARK  status: ('A' for Active; 'I' for Inactive)
REMARK    1  A    between atoms: C_1  and  C_2
REMARK    2  A    between atoms: C_2  and  C_3
REMARK    3  A    between atoms: C_2  and  N_16
REMARK    4  A    between atoms: C_6  and  N_9
REMARK    5  A    between atoms: N_12  and  C_13
REMARK    6  A    between atoms: N_19  and  C_20
REMARK                            x       y       z     vdW  Elec       q    Type
REMARK                         _______ _______ _______ _____ _____    ______ ____
ROOT
ATOM      1  C   UNL     1      -0.275   1.072  -1.384  0.00  0.00    +0.033 C 
ATOM      2  C   UNL     1      -0.078  -0.445  -1.426  0.00  0.00    +0.102 C 
ENDROOT
BRANCH   2   3
ATOM      3  C   UNL     1      -1.317  -1.127  -0.905  0.00  0.00    -0.027 A 
ATOM      4  C   UNL     1      -1.531  -1.221   0.458  0.00  0.00    +0.007 A 
ATOM      5  C   UNL     1      -2.665  -1.846   0.939  0.00  0.00    +0.023 A 
ATOM      6  C   UNL     1      -3.591  -2.379   0.051  0.00  0.00    +0.035 A 
ATOM      7  C   UNL     1      -3.373  -2.283  -1.317  0.00  0.00    +0.023 A 
ATOM      8  C   UNL     1      -2.240  -1.652  -1.791  0.00  0.00    +0.007 A 
BRANCH   6   9
ATOM      9  N   UNL     1      -4.741  -3.013   0.535  0.00  0.00    -0.269 N 
ATOM     10  C   UNL     1      -5.318  -2.584   1.675  0.00  0.00    +0.304 C 
ATOM     11  O   UNL     1      -4.896  -1.590   2.233  0.00  0.00    -0.253 OA
ATOM     12  N   UNL     1      -6.363  -3.257   2.197  0.00  0.00    -0.296 N 
ATOM     13  H   UNL     1      -5.123  -3.762   0.050  0.00  0.00    +0.156 HD
ATOM     14  H   UNL     1      -6.699  -4.051   1.752  0.00  0.00    +0.151 HD
BRANCH  12  15
ATOM     15  C   UNL     1      -6.990  -2.791   3.436  0.00  0.00    +0.075 C 
ATOM     16  C   UNL     1      -7.339  -3.843   4.490  0.00  0.00    +0.024 C 
ATOM     17  C   UNL     1      -8.451  -3.177   3.677  0.00  0.00    +0.024 C 
ENDBRANCH  12  15
ENDBRANCH   6   9
ENDBRANCH   2   3
BRANCH   2  18
ATOM     18  N   UNL     1       1.069  -0.811  -0.592  0.00  0.00    -0.293 N 
ATOM     19  C   UNL     1       2.316  -0.765  -1.102  0.00  0.00    +0.304 C 
ATOM     20  O   UNL     1       2.488  -0.419  -2.255  0.00  0.00    -0.252 OA
ATOM     21  N   UNL     1       3.371  -1.102  -0.334  0.00  0.00    -0.269 N 
ATOM     22  H   UNL     1       0.931  -1.087   0.328  0.00  0.00    +0.151 HD
ATOM     23  H   UNL     1       3.228  -1.451   0.560  0.00  0.00    +0.156 HD
BRANCH  21  24
ATOM     24  C   UNL     1       4.672  -0.949  -0.827  0.00  0.00    +0.035 A 
ATOM     25  C   UNL     1       5.668  -1.841  -0.450  0.00  0.00    +0.025 A 
ATOM     26  C   UNL     1       6.951  -1.688  -0.938  0.00  0.00    +0.022 A 
ATOM     27  C   UNL     1       7.245  -0.646  -1.801  0.00  0.00    +0.041 A 
ATOM     28  C   UNL     1       6.254   0.244  -2.178  0.00  0.00    +0.022 A 
ATOM     29  C   UNL     1       4.968   0.091  -1.698  0.00  0.00    +0.025 A 
ATOM     30 CL   UNL     1       8.858  -0.457  -2.412  0.00  0.00    -0.084 Cl
ENDBRANCH  21  24
ENDBRANCH   2  18
TORSDOF 5
