REMARK  Name = ZINC03840952
REMARK  14 active torsions:
REMARK  status: ('A' for Active; 'I' for Inactive)
REMARK    1  A    between atoms: C_1  and  C_2
REMARK    2  A    between atoms: C_2  and  N_3
REMARK    3  A    between atoms: N_3  and  C_4
REMARK    4  A    between atoms: C_4  and  C_5
REMARK    5  A    between atoms: C_6  and  C_8
REMARK    6  A    between atoms: C_8  and  C_10
REMARK    7  A    between atoms: C_8  and  C_11
REMARK    8  A    between atoms: C_15  and  C_36
REMARK    9  A    between atoms: C_23  and  C_25
REMARK   10  A    between atoms: C_25  and  N_72
REMARK   11  A    between atoms: C_26  and  N_72
REMARK   12  A    between atoms: C_27  and  N_72
REMARK   13  A    between atoms: C_28  and  C_35
REMARK   14  A    between atoms: C_32  and  O_34
REMARK                            x       y       z     vdW  Elec       q    Type
REMARK                         _______ _______ _______ _____ _____    ______ ____
ROOT
ATOM      1  C   UNL     1       2.570   0.928  -1.516  0.00  0.00    +0.029 C 
ATOM      2  C   UNL     1       1.626   1.534  -2.554  0.00  0.00    +0.007 C 
ATOM      3  C   UNL     1       1.634   3.061  -2.434  0.00  0.00    +0.008 C 
ATOM      4  C   UNL     1       1.196   3.449  -1.023  0.00  0.00    -0.022 C 
ATOM      5  C   UNL     1       1.115   4.971  -0.882  0.00  0.00    +0.051 C 
ATOM      6  C   UNL     1       2.497   5.520  -0.785  0.00  0.00    +0.015 A 
ATOM      7  C   UNL     1       3.648   4.834  -0.559  0.00  0.00    +0.057 A 
ATOM      8  N   UNL     1       4.761   5.564  -0.516  0.00  0.00    -0.229 NA
ATOM      9  C   UNL     1       4.751   6.870  -0.683  0.00  0.00    +0.165 A 
ATOM     10  S   UNL     1       3.061   7.194  -0.929  0.00  0.00    -0.057 S 
ATOM     11  N   UNL     1       5.818   7.761  -0.667  0.00  0.00    -0.266 N 
ATOM     12  C   UNL     1       5.601   9.077  -0.860  0.00  0.00    +0.202 C 
ATOM     13  O   UNL     1       4.474   9.484  -1.048  0.00  0.00    -0.277 OA
ATOM     14  C   UNL     1       3.619   3.324  -0.374  0.00  0.00    +0.042 C 
ATOM     15  C   UNL     1       2.197   2.881  -0.012  0.00  0.00    +0.033 C 
ATOM     16  C   UNL     1       2.140   1.348  -0.108  0.00  0.00    +0.123 C 
ATOM     17  C   UNL     1       4.578   2.929   0.751  0.00  0.00    +0.014 C 
ATOM     18  C   UNL     1      -0.189   2.861  -0.746  0.00  0.00    +0.012 C 
ATOM     19  H   UNL     1       6.720   7.435  -0.517  0.00  0.00    +0.157 HD
ENDROOT
BRANCH   1  20
ATOM     20  C   UNL     1       2.532  -0.598  -1.624  0.00  0.00    +0.078 C 
ATOM     21  C   UNL     1       3.486  -1.206  -0.595  0.00  0.00    +0.017 C 
BRANCH  20  23
ATOM     22  N   UNL     1       2.883  -2.308  -3.376  0.00  0.00    -0.302 N 
ATOM     23  C   UNL     1       2.955  -1.014  -3.010  0.00  0.00    +0.219 C 
ATOM     24  O   UNL     1       3.361  -0.183  -3.795  0.00  0.00    -0.275 OA
BRANCH  22  26
ATOM     25  C   UNL     1       4.860  -3.108  -4.573  0.00  0.00    +0.024 C 
ATOM     26  C   UNL     1       3.383  -2.727  -4.688  0.00  0.00    +0.104 C 
ENDBRANCH  22  26
BRANCH  22  27
ATOM     27  C   UNL     1       2.304  -3.297  -2.463  0.00  0.00    +0.104 C 
ATOM     28  C   UNL     1       0.831  -3.514  -2.813  0.00  0.00    +0.024 C 
ENDBRANCH  22  27
ENDBRANCH  20  23
ENDBRANCH   1  20
BRANCH  16  29
ATOM     29  O   UNL     1       0.804   0.902   0.138  0.00  0.00    -0.391 OA
ATOM     30  H   UNL     1       0.693  -0.057   0.081  0.00  0.00    +0.210 HD
ENDBRANCH  16  29
BRANCH  12  31
ATOM     31  C   UNL     1       6.757  10.042  -0.843  0.00  0.00    +0.018 C 
BRANCH  31  34
ATOM     32  C   UNL     1       5.414  11.854   0.037  0.00  0.00    -0.096 C 
ATOM     33  C   UNL     1       7.372  12.339  -1.302  0.00  0.00    -0.096 C 
ATOM     34  N   UNL     1       6.245  11.405  -1.100  0.00  0.00    +0.382 N 
ATOM     35  H   UNL     1       5.668  11.390  -1.949  0.00  0.00    -0.082 HD
ENDBRANCH  31  34
ENDBRANCH  12  31
TORSDOF 7
