REMARK  Name = ZINC14361493
REMARK  8 active torsions:
REMARK  status: ('A' for Active; 'I' for Inactive)
REMARK    1  A    between atoms: C_1  and  C_2
REMARK    2  A    between atoms: C_2  and  C_4
REMARK    3  A    between atoms: C_2  and  O_20
REMARK    4  A    between atoms: N_6  and  C_7
REMARK    5  A    between atoms: C_10  and  N_17
REMARK    6  A    between atoms: C_12  and  C_13
REMARK    7  A    between atoms: O_20  and  C_21
REMARK    8  A    between atoms: C_21  and  C_23
REMARK                            x       y       z     vdW  Elec       q    Type
REMARK                         _______ _______ _______ _____ _____    ______ ____
ROOT
ATOM      1  C   UNL     1      -5.758   2.766   0.754  0.00  0.00    +0.258 C 
ATOM      2  O   UNL     1      -5.330   3.835   1.133  0.00  0.00    -0.271 OA
ATOM      3  N   UNL     1      -7.049   2.442   0.966  0.00  0.00    -0.282 N 
ATOM      4  H   UNL     1      -7.411   1.623   0.594  0.00  0.00    +0.155 HD
ENDROOT
BRANCH   3   5
ATOM      5  C   UNL     1      -7.866   3.288   1.725  0.00  0.00    +0.045 A 
ATOM      6  C   UNL     1      -7.303   4.142   2.663  0.00  0.00    +0.026 A 
ATOM      7  C   UNL     1      -8.112   4.976   3.409  0.00  0.00    +0.034 A 
ATOM      8  C   UNL     1      -9.482   4.960   3.223  0.00  0.00    +0.127 A 
ATOM      9  C   UNL     1     -10.046   4.111   2.289  0.00  0.00    +0.047 A 
ATOM     10  C   UNL     1      -9.242   3.278   1.536  0.00  0.00    +0.078 A 
BRANCH  10  11
ATOM     11  C   UNL     1      -9.857   2.357   0.515  0.00  0.00    +0.419 C 
ATOM     12  F   UNL     1     -11.245   2.527   0.508  0.00  0.00    -0.166 F 
ATOM     13  F   UNL     1      -9.344   2.656  -0.752  0.00  0.00    -0.166 F 
ATOM     14  F   UNL     1      -9.551   1.030   0.839  0.00  0.00    -0.166 F 
ENDBRANCH  10  11
BRANCH   8  15
ATOM     15  N   UNL     1     -10.347   5.856   4.024  0.00  0.00    +0.056 N 
ATOM     16  O   UNL     1      -9.851   6.605   4.847  0.00  0.00    -0.126 OA
ATOM     17  O   UNL     1     -11.554   5.843   3.861  0.00  0.00    -0.126 OA
ENDBRANCH   8  15
ENDBRANCH   3   5
BRANCH   1  19
ATOM     18  C   UNL     1      -5.321   1.612  -1.397  0.00  0.00    +0.062 C 
ATOM     19  C   UNL     1      -4.845   1.798   0.045  0.00  0.00    +0.259 C 
BRANCH  19  20
ATOM     20  O   UNL     1      -3.513   2.314   0.044  0.00  0.00    -0.447 OA
BRANCH  20  21
ATOM     21  C   UNL     1      -2.508   1.413   0.045  0.00  0.00    +0.376 C 
ATOM     22  O   UNL     1      -2.758   0.223   0.047  0.00  0.00    -0.241 OA
BRANCH  21  23
ATOM     23  C   UNL     1      -1.117   1.869   0.044  0.00  0.00    +0.213 A 
ATOM     24  C   UNL     1      -0.009   1.068   0.045  0.00  0.00    +0.058 A 
ATOM     25  C   UNL     1       1.105   1.920   0.038  0.00  0.00    +0.058 A 
ATOM     26  C   UNL     1       0.636   3.190   0.038  0.00  0.00    +0.171 A 
ATOM     27  O   UNL     1      -0.703   3.154   0.045  0.00  0.00    -0.442 OA
ATOM     28 BR   UNL     1       1.696   4.755   0.029  0.00  0.00    -0.008 Br
ENDBRANCH  21  23
ENDBRANCH  20  21
ENDBRANCH  19  20
ENDBRANCH   1  19
TORSDOF 7
