REMARK  Name = ZINC34783432
REMARK  10 active torsions:
REMARK  status: ('A' for Active; 'I' for Inactive)
REMARK    1  A    between atoms: C_1  and  C_2
REMARK    2  A    between atoms: C_7  and  N_8
REMARK    3  A    between atoms: N_8  and  N_9
REMARK    4  A    between atoms: N_9  and  N_32
REMARK    5  A    between atoms: C_20  and  C_25
REMARK    6  A    between atoms: C_22  and  C_24
REMARK    7  A    between atoms: C_28  and  C_30
REMARK    8  A    between atoms: C_28  and  C_31
REMARK    9  A    between atoms: N_32  and  C_33
REMARK   10  A    between atoms: N_32  and  C_34
REMARK                            x       y       z     vdW  Elec       q    Type
REMARK                         _______ _______ _______ _____ _____    ______ ____
ROOT
ATOM      1  N   UNL     1       0.405  -0.919   3.601  0.00  0.00    -0.164 N 
ATOM      2  C   UNL     1       1.690  -1.275   3.970  0.00  0.00    +0.167 A 
ATOM      3  C   UNL     1       2.800  -0.908   3.158  0.00  0.00    +0.054 A 
ATOM      4  C   UNL     1       2.810  -0.163   1.901  0.00  0.00    -0.020 A 
ATOM      5  C   UNL     1       4.012   0.054   1.324  0.00  0.00    +0.021 A 
ATOM      6  S   UNL     1       5.187  -0.709   2.405  0.00  0.00    -0.071 S 
ATOM      7  C   UNL     1       4.061  -1.322   3.632  0.00  0.00    +0.116 A 
ATOM      8  N   UNL     1       4.187  -2.003   4.754  0.00  0.00    -0.203 NA
ATOM      9  C   UNL     1       3.118  -2.317   5.469  0.00  0.00    +0.254 A 
ATOM     10  N   UNL     1       1.902  -1.954   5.084  0.00  0.00    -0.192 NA
ATOM     11  N   UNL     1       3.274  -3.039   6.653  0.00  0.00    -0.202 N 
ATOM     12  C   UNL     1       4.450  -3.470   7.179  0.00  0.00    +0.045 A 
ATOM     13  C   UNL     1       4.169  -4.127   8.327  0.00  0.00    +0.048 A 
ATOM     14  C   UNL     1       2.781  -4.099   8.512  0.00  0.00    +0.061 A 
ATOM     15  N   UNL     1       2.246  -3.443   7.515  0.00  0.00    -0.169 NA
ATOM     16  C   UNL     1       2.033  -4.714   9.666  0.00  0.00    +0.067 C 
ATOM     17  C   UNL     1       5.821  -3.255   6.590  0.00  0.00    +0.066 C 
ATOM     18  C   UNL     1       4.260   0.787   0.042  0.00  0.00    +0.203 C 
ATOM     19  O   UNL     1       3.000   0.940  -0.630  0.00  0.00    -0.368 OA
ATOM     20  C   UNL     1       1.960   1.439   0.216  0.00  0.00    +0.068 C 
ATOM     21  C   UNL     1       1.546   0.368   1.229  0.00  0.00    +0.071 C 
ATOM     22  C   UNL     1       0.751   1.823  -0.639  0.00  0.00    +0.041 C 
ATOM     23  C   UNL     1       2.463   2.676   0.962  0.00  0.00    +0.041 C 
ENDROOT
BRANCH   1  24
ATOM     24  N   UNL     1      -0.362  -0.162   4.440  0.00  0.00    -0.214 NA
ATOM     25  C   UNL     1      -0.564  -0.843   5.726  0.00  0.00    +0.129 C 
ATOM     26  C   UNL     1       0.229   1.169   4.636  0.00  0.00    +0.129 C 
ENDBRANCH   1  24
BRANCH   1  27
ATOM     27  N   UNL     1      -0.109  -1.335   2.366  0.00  0.00    -0.248 N 
ATOM     28  H   UNL     1      -0.189  -0.702   1.636  0.00  0.00    +0.172 HD
BRANCH  27  35
ATOM     29  C   UNL     1      -1.060  -2.116  -0.199  0.00  0.00    +0.046 C 
ATOM     30  C   UNL     1      -0.978  -3.087   0.951  0.00  0.00    -0.028 A 
ATOM     31  C   UNL     1      -1.365  -4.401   0.775  0.00  0.00    +0.005 A 
ATOM     32  C   UNL     1      -1.289  -5.292   1.829  0.00  0.00    +0.000 A 
ATOM     33  C   UNL     1      -0.825  -4.872   3.062  0.00  0.00    +0.002 A 
ATOM     34  C   UNL     1      -0.437  -3.559   3.245  0.00  0.00    +0.025 A 
ATOM     35  C   UNL     1      -0.507  -2.662   2.186  0.00  0.00    +0.049 A 
ENDBRANCH  27  35
ENDBRANCH   1  27
TORSDOF 3
