REMARK  Name = ZINC21863240
REMARK  9 active torsions:
REMARK  status: ('A' for Active; 'I' for Inactive)
REMARK    1  A    between atoms: C_1  and  C_2
REMARK    2  A    between atoms: C_2  and  C_22
REMARK    3  A    between atoms: C_5  and  C_17
REMARK    4  A    between atoms: N_11  and  C_12
REMARK    5  A    between atoms: C_12  and  C_13
REMARK    6  A    between atoms: C_13  and  N_14
REMARK    7  A    between atoms: N_14  and  C_15
REMARK    8  A    between atoms: N_14  and  C_16
REMARK    9  A    between atoms: N_24  and  C_25
REMARK                            x       y       z     vdW  Elec       q    Type
REMARK                         _______ _______ _______ _____ _____    ______ ____
ROOT
ATOM      1  C   UNL     1       2.571  -0.611   2.402  0.00  0.00    +0.043 C 
ATOM      2  C   UNL     1       1.969  -1.249   3.655  0.00  0.00    +0.128 C 
ATOM      3  C   UNL     1       2.754  -0.770   4.881  0.00  0.00    +0.157 C 
ATOM      4  N   UNL     1       2.019  -1.142   6.093  0.00  0.00    -0.331 N 
ATOM      5  C   UNL     1       2.475  -1.426   7.338  0.00  0.00    +0.085 A 
ATOM      6  C   UNL     1       1.383  -1.686   8.151  0.00  0.00    +0.032 A 
ATOM      7  C   UNL     1       0.232  -1.563   7.370  0.00  0.00    +0.033 A 
ATOM      8  C   UNL     1       0.631  -1.243   6.103  0.00  0.00    +0.105 A 
ATOM      9  C   UNL     1      -0.146  -0.999   4.884  0.00  0.00    +0.264 C 
ATOM     10  O   UNL     1      -1.359  -0.891   4.908  0.00  0.00    -0.268 OA
ATOM     11  N   UNL     1       0.555  -0.899   3.730  0.00  0.00    -0.282 N 
ENDROOT
BRANCH   5  12
ATOM     12  C   UNL     1       3.884  -1.453   7.753  0.00  0.00    +0.151 A 
ATOM     13  C   UNL     1       4.351  -1.826   8.980  0.00  0.00    +0.051 A 
ATOM     14  C   UNL     1       5.752  -1.703   8.934  0.00  0.00    +0.042 A 
ATOM     15  C   UNL     1       6.071  -1.258   7.702  0.00  0.00    +0.196 A 
ATOM     16  O   UNL     1       4.941  -1.108   6.992  0.00  0.00    -0.461 OA
ENDBRANCH   5  12
BRANCH   2  17
ATOM     17  C   UNL     1       2.095  -2.747   3.544  0.00  0.00    +0.238 C 
ATOM     18  O   UNL     1       2.982  -3.233   2.874  0.00  0.00    -0.273 OA
ATOM     19  N   UNL     1       1.224  -3.546   4.190  0.00  0.00    -0.311 N 
ATOM     20  H   UNL     1       0.420  -3.106   4.798  0.00  0.00    +0.149 HD
BRANCH  19  21
ATOM     21  C   UNL     1       1.346  -5.002   4.082  0.00  0.00    +0.073 C 
ATOM     22  C   UNL     1       0.626  -5.483   2.821  0.00  0.00    +0.022 C 
ATOM     23  C   UNL     1       0.754  -7.003   2.708  0.00  0.00    +0.002 C 
ATOM     24  C   UNL     1       0.123  -7.660   3.937  0.00  0.00    +0.000 C 
ATOM     25  C   UNL     1       0.843  -7.180   5.199  0.00  0.00    +0.002 C 
ATOM     26  C   UNL     1       0.715  -5.659   5.311  0.00  0.00    +0.022 C 
ENDBRANCH  19  21
ENDBRANCH   2  17
BRANCH  11  27
ATOM     27  C   UNL     1      -0.127  -0.432   2.521  0.00  0.00    +0.091 C 
BRANCH  27  28
ATOM     28  C   UNL     1      -0.016   1.091   2.429  0.00  0.00    -0.060 C 
BRANCH  28  29
ATOM     29  N   UNL     1      -0.700   1.560   1.217  0.00  0.00    +0.377 N 
ATOM     30  C   UNL     1      -0.013   1.086   0.008  0.00  0.00    -0.097 C 
ATOM     31  C   UNL     1      -0.822   3.023   1.213  0.00  0.00    -0.097 C 
ATOM     32  H   UNL     1      -1.715   1.136   1.216  0.00  0.00    -0.083 HD
ENDBRANCH  28  29
ENDBRANCH  27  28
ENDBRANCH  11  27
TORSDOF 6
