REMARK  Name = ZINC16508892
REMARK  11 active torsions:
REMARK  status: ('A' for Active; 'I' for Inactive)
REMARK    1  A    between atoms: C_1  and  C_2
REMARK    2  A    between atoms: C_5  and  C_8
REMARK    3  A    between atoms: C_18  and  C_20
REMARK    4  A    between atoms: C_20  and  N_21
REMARK    5  A    between atoms: N_21  and  C_22
REMARK    6  A    between atoms: N_21  and  S_25
REMARK    7  A    between atoms: C_22  and  C_23
REMARK    8  A    between atoms: C_22  and  C_24
REMARK    9  A    between atoms: S_25  and  C_28
REMARK   10  A    between atoms: C_31  and  N_34
REMARK   11  A    between atoms: C_35  and  C_37
REMARK                            x       y       z     vdW  Elec       q    Type
REMARK                         _______ _______ _______ _____ _____    ______ ____
ROOT
ATOM      1  C   UNL     1      -3.958   1.817  -2.854  0.00  0.00    +0.205 C 
ENDROOT
BRANCH   1  11
ATOM      2  C   UNL     1      -2.551   3.856   0.073  0.00  0.00    +0.137 C 
ATOM      3  C   UNL     1      -3.200   3.768   1.452  0.00  0.00    -0.012 A 
ATOM      4  C   UNL     1      -2.510   4.005   2.639  0.00  0.00    +0.013 A 
ATOM      5  C   UNL     1      -3.152   3.913   3.826  0.00  0.00    +0.046 A 
ATOM      6  S   UNL     1      -4.807   3.472   3.316  0.00  0.00    -0.101 S 
ATOM      7  C   UNL     1      -4.518   3.442   1.566  0.00  0.00    -0.003 A 
ATOM      8  C   UNL     1      -5.486   3.133   0.471  0.00  0.00    +0.062 C 
ATOM      9  C   UNL     1      -4.895   3.623  -0.860  0.00  0.00    +0.114 C 
ATOM     10  N   UNL     1      -3.473   3.252  -0.898  0.00  0.00    -0.289 N 
ATOM     11  C   UNL     1      -3.021   2.369  -1.811  0.00  0.00    +0.232 C 
ATOM     12  O   UNL     1      -1.860   2.018  -1.793  0.00  0.00    -0.274 OA
BRANCH   2  17
ATOM     13  C   UNL     1       2.456   0.972   0.079  0.00  0.00    +0.044 C 
ATOM     14  C   UNL     1       1.150   1.724   0.077  0.00  0.00    -0.050 A 
ATOM     15  C   UNL     1       1.109   3.035  -0.357  0.00  0.00    +0.004 A 
ATOM     16  C   UNL     1      -0.088   3.727  -0.354  0.00  0.00    +0.006 A 
ATOM     17  C   UNL     1      -1.245   3.104   0.074  0.00  0.00    -0.023 A 
ATOM     18  C   UNL     1      -1.204   1.792   0.508  0.00  0.00    +0.006 A 
ATOM     19  C   UNL     1      -0.006   1.102   0.510  0.00  0.00    +0.004 A 
ENDBRANCH   2  17
ENDBRANCH   1  11
BRANCH   1  20
ATOM     20  N   UNL     1      -3.232   0.885  -3.720  0.00  0.00    -0.165 NA
BRANCH  20  21
ATOM     21  C   UNL     1      -3.076  -0.516  -3.321  0.00  0.00    +0.074 C 
ATOM     22  C   UNL     1      -2.325  -0.587  -1.990  0.00  0.00    +0.025 C 
ATOM     23  C   UNL     1      -4.456  -1.157  -3.164  0.00  0.00    +0.025 C 
ENDBRANCH  20  21
BRANCH  20  24
ATOM     24  S   UNL     1      -2.586   1.416  -5.150  0.00  0.00    +0.061 S 
ATOM     25  O   UNL     1      -2.465   0.276  -5.989  0.00  0.00    -0.153 OA
ATOM     26  O   UNL     1      -3.331   2.565  -5.530  0.00  0.00    -0.153 OA
BRANCH  24  27
ATOM     27  C   UNL     1      -0.948   1.968  -4.809  0.00  0.00    +0.106 A 
ATOM     28  C   UNL     1      -0.723   3.287  -4.461  0.00  0.00    +0.030 A 
ATOM     29  C   UNL     1       0.560   3.721  -4.188  0.00  0.00    +0.025 A 
ATOM     30  C   UNL     1       1.625   2.834  -4.275  0.00  0.00    +0.033 A 
ATOM     31  C   UNL     1       1.396   1.511  -4.630  0.00  0.00    +0.025 A 
ATOM     32  C   UNL     1       0.110   1.082  -4.897  0.00  0.00    +0.030 A 
BRANCH  30  33
ATOM     33  N   UNL     1       2.926   3.272  -4.003  0.00  0.00    -0.286 N 
ATOM     34  C   UNL     1       3.965   2.765  -4.695  0.00  0.00    +0.214 C 
ATOM     35  O   UNL     1       3.784   1.870  -5.493  0.00  0.00    -0.276 OA
ATOM     36  C   UNL     1       5.353   3.310  -4.476  0.00  0.00    +0.109 C 
ATOM     37  H   UNL     1       3.079   3.941  -3.318  0.00  0.00    +0.155 HD
ENDBRANCH  30  33
ENDBRANCH  24  27
ENDBRANCH  20  24
ENDBRANCH   1  20
TORSDOF 7
