REMARK  Name = ZINC41585674
REMARK  10 active torsions:
REMARK  status: ('A' for Active; 'I' for Inactive)
REMARK    1  A    between atoms: C_1  and  C_2
REMARK    2  A    between atoms: C_2  and  O_3
REMARK    3  A    between atoms: O_3  and  C_4
REMARK    4  A    between atoms: C_9  and  O_10
REMARK    5  A    between atoms: O_10  and  C_11
REMARK    6  A    between atoms: C_12  and  C_37
REMARK    7  A    between atoms: C_20  and  O_36
REMARK    8  A    between atoms: C_21  and  C_22
REMARK    9  A    between atoms: C_22  and  N_23
REMARK   10  A    between atoms: N_26  and  C_29
REMARK                            x       y       z     vdW  Elec       q    Type
REMARK                         _______ _______ _______ _____ _____    ______ ____
ROOT
ATOM      1  C   UNL     1      -5.142  -2.042   0.145  0.00  0.00    +0.213 A 
ATOM      2  C   UNL     1      -5.336  -3.374   0.213  0.00  0.00    +0.148 A 
ATOM      3  O   UNL     1      -6.556  -3.927   0.254  0.00  0.00    -0.456 OA
ATOM      4  C   UNL     1      -7.684  -3.190   0.232  0.00  0.00    +0.147 A 
ATOM      5  C   UNL     1      -7.602  -1.788   0.162  0.00  0.00    +0.068 A 
ATOM      6  C   UNL     1      -6.266  -1.168   0.122  0.00  0.00    +0.235 A 
ATOM      7  O   UNL     1      -6.128   0.043   0.066  0.00  0.00    -0.283 OA
ATOM      8  C   UNL     1      -8.763  -1.014   0.140  0.00  0.00    +0.019 A 
ATOM      9  C   UNL     1      -9.984  -1.625   0.185  0.00  0.00    +0.046 A 
ATOM     10  C   UNL     1     -10.075  -3.013   0.254  0.00  0.00    +0.125 A 
ATOM     11  C   UNL     1      -8.932  -3.795   0.277  0.00  0.00    +0.051 A 
ATOM     12  C   UNL     1      -4.131  -4.279   0.242  0.00  0.00    +0.090 C 
ENDROOT
BRANCH  10  13
ATOM     13  O   UNL     1     -11.296  -3.606   0.298  0.00  0.00    -0.506 OA
ATOM     14  H   UNL     1     -11.661  -3.820  -0.571  0.00  0.00    +0.292 HD
ENDBRANCH  10  13
BRANCH   1  15
ATOM     15  O   UNL     1      -3.879  -1.535   0.106  0.00  0.00    -0.445 OA
BRANCH  15  21
ATOM     16  C   UNL     1      -2.241  -0.272  -1.079  0.00  0.00    +0.163 A 
ATOM     17  C   UNL     1      -1.833   0.356  -2.245  0.00  0.00    +0.049 A 
ATOM     18  C   UNL     1      -2.654   0.351  -3.357  0.00  0.00    +0.004 A 
ATOM     19  C   UNL     1      -3.884  -0.280  -3.310  0.00  0.00    +0.004 A 
ATOM     20  C   UNL     1      -4.297  -0.909  -2.150  0.00  0.00    +0.050 A 
ATOM     21  C   UNL     1      -3.476  -0.912  -1.034  0.00  0.00    +0.170 A 
BRANCH  16  22
ATOM     22  O   UNL     1      -1.434  -0.268   0.015  0.00  0.00    -0.489 OA
BRANCH  22  24
ATOM     23  C   UNL     1       0.582   0.306   1.217  0.00  0.00    +0.048 C 
ATOM     24  C   UNL     1      -0.181   0.408  -0.105  0.00  0.00    +0.226 C 
ENDBRANCH  22  24
ENDBRANCH  16  22
ENDBRANCH  15  21
ENDBRANCH   1  15
BRANCH  11  25
ATOM     25  C   UNL     1      -9.043  -5.296   0.351  0.00  0.00    +0.127 C 
BRANCH  25  26
ATOM     26  N   UNL     1      -9.062  -5.716   1.758  0.00  0.00    -0.295 NA
ATOM     27  C   UNL     1      -7.781  -5.421   2.413  0.00  0.00    +0.103 C 
ATOM     28  C   UNL     1      -7.901  -5.705   3.914  0.00  0.00    +0.120 C 
ATOM     29  N   UNL     1      -8.387  -7.082   4.091  0.00  0.00    -0.327 N 
ATOM     30  C   UNL     1      -9.592  -7.494   3.357  0.00  0.00    +0.120 C 
ATOM     31  C   UNL     1      -9.406  -7.140   1.877  0.00  0.00    +0.103 C 
BRANCH  29  32
ATOM     32  C   UNL     1      -7.721  -7.975   4.936  0.00  0.00    +0.030 A 
ATOM     33  C   UNL     1      -6.522  -7.605   5.533  0.00  0.00    +0.026 A 
ATOM     34  C   UNL     1      -5.866  -8.489   6.367  0.00  0.00    +0.040 A 
ATOM     35  C   UNL     1      -6.402  -9.743   6.609  0.00  0.00    +0.124 A 
ATOM     36  C   UNL     1      -7.596 -10.114   6.015  0.00  0.00    +0.040 A 
ATOM     37  C   UNL     1      -8.259  -9.231   5.184  0.00  0.00    +0.026 A 
ATOM     38  F   UNL     1      -5.758 -10.606   7.425  0.00  0.00    -0.205 F 
ENDBRANCH  29  32
ENDBRANCH  25  26
ENDBRANCH  11  25
TORSDOF 8
