REMARK  Name = ZINC34749314
REMARK  13 active torsions:
REMARK  status: ('A' for Active; 'I' for Inactive)
REMARK    1  A    between atoms: C_1  and  C_2
REMARK    2  A    between atoms: C_2  and  C_3
REMARK    3  A    between atoms: C_4  and  C_36
REMARK    4  A    between atoms: N_10  and  C_27
REMARK    5  A    between atoms: N_16  and  C_19
REMARK    6  A    between atoms: C_19  and  C_20
REMARK    7  A    between atoms: N_22  and  C_23
REMARK    8  A    between atoms: N_22  and  C_25
REMARK    9  A    between atoms: C_23  and  C_24
REMARK   10  A    between atoms: C_25  and  C_26
REMARK   11  A    between atoms: C_27  and  C_28
REMARK   12  A    between atoms: C_31  and  C_35
REMARK   13  A    between atoms: C_33  and  C_34
REMARK                            x       y       z     vdW  Elec       q    Type
REMARK                         _______ _______ _______ _____ _____    ______ ____
ROOT
ATOM      1  C   UNL     1      -2.088  -0.765   0.000  0.00  0.00    -0.023 A 
ATOM      2  C   UNL     1      -2.953  -0.815   1.024  0.00  0.00    -0.007 A 
ATOM      3  S   UNL     1      -4.491  -1.266   0.244  0.00  0.00    -0.073 S 
ATOM      4  C   UNL     1      -3.928  -1.376  -1.435  0.00  0.00    +0.117 A 
ATOM      5  C   UNL     1      -2.561  -1.052  -1.343  0.00  0.00    +0.076 A 
ATOM      6  C   UNL     1      -1.836  -1.057  -2.577  0.00  0.00    +0.264 A 
ATOM      7  O   UNL     1      -0.646  -0.794  -2.595  0.00  0.00    -0.267 OA
ATOM      8  N   UNL     1      -2.486  -1.356  -3.717  0.00  0.00    -0.276 N 
ATOM      9  C   UNL     1      -3.817  -1.653  -3.716  0.00  0.00    +0.202 A 
ATOM     10  N   UNL     1      -4.506  -1.666  -2.594  0.00  0.00    -0.208 NA
ATOM     11  N   UNL     1      -4.444  -1.953  -4.900  0.00  0.00    -0.304 N 
ATOM     12  C   UNL     1      -5.349  -3.107  -5.005  0.00  0.00    +0.089 C 
ATOM     13  C   UNL     1      -6.663  -2.638  -5.637  0.00  0.00    -0.059 C 
ATOM     14  N   UNL     1      -6.380  -1.972  -6.915  0.00  0.00    +0.387 N 
ATOM     15  C   UNL     1      -5.597  -0.752  -6.680  0.00  0.00    -0.059 C 
ATOM     16  C   UNL     1      -4.235  -1.125  -6.097  0.00  0.00    +0.089 C 
ATOM     17  C   UNL     1      -2.688  -0.552   2.484  0.00  0.00    +0.052 C 
ATOM     18  H   UNL     1      -5.857  -2.597  -7.510  0.00  0.00    -0.081 HD
ENDROOT
BRANCH   1  20
ATOM     19  C   UNL     1      -0.466   1.106   0.133  0.00  0.00    +0.009 C 
ATOM     20  C   UNL     1      -0.643  -0.410   0.240  0.00  0.00    +0.033 C 
ENDBRANCH   1  20
BRANCH  14  21
ATOM     21  C   UNL     1      -7.646  -1.620  -7.573  0.00  0.00    +0.019 C 
BRANCH  21  22
ATOM     22  C   UNL     1      -7.361  -1.048  -8.937  0.00  0.00    +0.199 C 
ATOM     23  O   UNL     1      -6.216  -0.944  -9.324  0.00  0.00    -0.278 OA
ATOM     24  N   UNL     1      -8.377  -0.653  -9.728  0.00  0.00    -0.304 N 
BRANCH  24  25
ATOM     25  C   UNL     1      -8.100  -0.096 -11.055  0.00  0.00    +0.104 C 
ATOM     26  C   UNL     1      -8.075  -1.226 -12.086  0.00  0.00    +0.024 C 
ENDBRANCH  24  25
BRANCH  24  27
ATOM     27  C   UNL     1      -9.760  -0.779  -9.261  0.00  0.00    +0.104 C 
ATOM     28  C   UNL     1     -10.170   0.500  -8.529  0.00  0.00    +0.024 C 
ENDBRANCH  24  27
ENDBRANCH  21  22
ENDBRANCH  14  21
BRANCH   8  29
ATOM     29  C   UNL     1      -1.749  -1.363  -4.983  0.00  0.00    +0.163 C 
BRANCH  29  30
ATOM     30  C   UNL     1      -0.654  -2.397  -4.922  0.00  0.00    -0.025 A 
ATOM     31  C   UNL     1       0.661  -2.002  -4.761  0.00  0.00    +0.006 A 
ATOM     32  C   UNL     1       1.665  -2.950  -4.705  0.00  0.00    +0.004 A 
ATOM     33  C   UNL     1       1.354  -4.293  -4.809  0.00  0.00    -0.050 A 
ATOM     34  C   UNL     1       0.039  -4.688  -4.968  0.00  0.00    +0.007 A 
ATOM     35  C   UNL     1      -0.966  -3.740  -5.020  0.00  0.00    -0.045 A 
ATOM     36  C   UNL     1      -2.400  -4.170  -5.189  0.00  0.00    +0.044 C 
ATOM     37  C   UNL     1       2.449  -5.327  -4.749  0.00  0.00    +0.044 C 
ENDBRANCH  29  30
ENDBRANCH   8  29
TORSDOF 7
