REMARK  Name = ZINC28612968
REMARK  9 active torsions:
REMARK  status: ('A' for Active; 'I' for Inactive)
REMARK    1  A    between atoms: C_1  and  C_2
REMARK    2  A    between atoms: C_5  and  N_11
REMARK    3  A    between atoms: C_6  and  N_8
REMARK    4  A    between atoms: C_12  and  C_14
REMARK    5  A    between atoms: C_14  and  C_16
REMARK    6  A    between atoms: C_14  and  O_22
REMARK    7  A    between atoms: O_22  and  C_23
REMARK    8  A    between atoms: C_23  and  C_25
REMARK    9  A    between atoms: C_25  and  C_26
REMARK                            x       y       z     vdW  Elec       q    Type
REMARK                         _______ _______ _______ _____ _____    ______ ____
ROOT
ATOM      1  C   UNL     1       5.609  -1.833  -3.154  0.00  0.00    +0.292 C 
ENDROOT
BRANCH   1   2
ATOM      2  C   UNL     1       5.048  -3.147  -3.633  0.00  0.00    +0.002 A 
ATOM      3  C   UNL     1       4.998  -4.230  -2.777  0.00  0.00    +0.008 A 
ATOM      4  C   UNL     1       4.479  -5.434  -3.215  0.00  0.00    +0.000 A 
ATOM      5  C   UNL     1       4.019  -5.557  -4.512  0.00  0.00    +0.000 A 
ATOM      6  C   UNL     1       4.073  -4.475  -5.370  0.00  0.00    +0.000 A 
ATOM      7  C   UNL     1       4.588  -3.270  -4.931  0.00  0.00    +0.008 A 
ENDBRANCH   1   2
BRANCH   1   9
ATOM      8  N   UNL     1       7.664  -1.909  -4.529  0.00  0.00    -0.280 N 
ATOM      9  C   UNL     1       7.109  -1.843  -3.303  0.00  0.00    +0.263 C 
ATOM     10  O   UNL     1       7.816  -1.792  -2.319  0.00  0.00    -0.271 OA
ATOM     11  H   UNL     1       7.025  -2.029  -5.417  0.00  0.00    +0.155 HD
BRANCH   8  16
ATOM     12  C   UNL     1      13.296  -1.569  -5.116  0.00  0.00    +0.044 C 
ATOM     13  C   UNL     1      11.800  -1.659  -4.960  0.00  0.00    -0.048 A 
ATOM     14  C   UNL     1      11.258  -2.298  -3.860  0.00  0.00    +0.005 A 
ATOM     15  C   UNL     1       9.888  -2.383  -3.714  0.00  0.00    +0.026 A 
ATOM     16  C   UNL     1       9.053  -1.825  -4.674  0.00  0.00    +0.064 A 
ATOM     17  C   UNL     1       9.600  -1.188  -5.780  0.00  0.00    +0.148 A 
ATOM     18  C   UNL     1      10.972  -1.102  -5.917  0.00  0.00    +0.038 A 
BRANCH  17  19
ATOM     19  N   UNL     1       8.714  -0.597  -6.808  0.00  0.00    +0.058 N 
ATOM     20  O   UNL     1       9.191  -0.125  -7.825  0.00  0.00    -0.126 OA
ATOM     21  O   UNL     1       7.508  -0.581  -6.637  0.00  0.00    -0.126 OA
ENDBRANCH  17  19
ENDBRANCH   8  16
ENDBRANCH   1   9
BRANCH   1  22
ATOM     22  O   UNL     1       5.263  -1.639  -1.758  0.00  0.00    -0.447 OA
BRANCH  22  23
ATOM     23  C   UNL     1       4.107  -1.006  -1.499  0.00  0.00    +0.312 C 
ATOM     24  O   UNL     1       3.408  -0.628  -2.409  0.00  0.00    -0.250 OA
BRANCH  23  25
ATOM     25  C   UNL     1       3.681  -0.769  -0.073  0.00  0.00    +0.155 C 
BRANCH  25  26
ATOM     26  C   UNL     1       2.359  -0.046  -0.057  0.00  0.00    -0.033 A 
ATOM     27  C   UNL     1       1.179  -0.767  -0.047  0.00  0.00    +0.008 A 
ATOM     28  C   UNL     1      -0.036  -0.108  -0.035  0.00  0.00    +0.050 A 
ATOM     29  C   UNL     1      -0.074   1.278  -0.033  0.00  0.00    +0.162 A 
ATOM     30  C   UNL     1       1.112   2.003  -0.041  0.00  0.00    +0.162 A 
ATOM     31  C   UNL     1       2.328   1.335  -0.054  0.00  0.00    +0.053 A 
ATOM     32  O   UNL     1       1.097   3.364  -0.031  0.00  0.00    -0.485 OA
ATOM     33  C   UNL     1      -0.135   3.997  -0.395  0.00  0.00    +0.270 C 
ATOM     34  C   UNL     1      -1.276   3.294   0.353  0.00  0.00    +0.270 C 
ATOM     35  O   UNL     1      -1.278   1.913  -0.030  0.00  0.00    -0.485 OA
ENDBRANCH  25  26
ENDBRANCH  23  25
ENDBRANCH  22  23
ENDBRANCH   1  22
TORSDOF 8
