REMARK  Name = ZINC02088059
REMARK  4 active torsions:
REMARK  status: ('A' for Active; 'I' for Inactive)
REMARK    1  A    between atoms: C_3  and  N_8
REMARK    2  A    between atoms: N_10  and  C_23
REMARK    3  A    between atoms: C_11  and  C_14
REMARK    4  A    between atoms: C_17  and  N_20
REMARK                            x       y       z     vdW  Elec       q    Type
REMARK                         _______ _______ _______ _____ _____    ______ ____
ROOT
ATOM      1  N   UNL     1       2.227   3.873  -0.051  0.00  0.00    -0.335 N 
ATOM      2  C   UNL     1       2.238   5.189  -0.129  0.00  0.00    +0.157 A 
ATOM      3  N   UNL     1       3.294   6.030  -0.395  0.00  0.00    -0.289 N 
ATOM      4  C   UNL     1       3.075   7.338  -0.426  0.00  0.00    +0.063 A 
ATOM      5  C   UNL     1       1.764   7.808  -0.183  0.00  0.00    +0.075 A 
ATOM      6  S   UNL     1       0.885   6.335   0.076  0.00  0.00    -0.059 S 
ATOM      7  H   UNL     1       3.170   3.310  -0.125  0.00  0.00    +0.168 HD
ENDROOT
BRANCH   1  10
ATOM      8  C   UNL     1      -0.923   2.223  -0.805  0.00  0.00    +0.003 A 
ATOM      9  C   UNL     1       0.265   2.892  -0.992  0.00  0.00    +0.026 A 
ATOM     10  C   UNL     1       1.065   3.219   0.120  0.00  0.00    +0.042 A 
ATOM     11  C   UNL     1       0.638   2.856   1.412  0.00  0.00    +0.041 A 
ATOM     12  C   UNL     1      -0.554   2.188   1.575  0.00  0.00    +0.020 A 
ATOM     13  C   UNL     1      -1.336   1.875   0.472  0.00  0.00    +0.015 A 
ATOM     14 BR   UNL     1      -1.131   1.699   3.308  0.00  0.00    -0.050 Br
ENDBRANCH   1  10
BRANCH   3  15
ATOM     15  C   UNL     1       4.569   5.517  -0.628  0.00  0.00    +0.050 A 
ATOM     16  C   UNL     1       5.303   5.946  -1.730  0.00  0.00    +0.026 A 
ATOM     17  C   UNL     1       6.566   5.439  -1.956  0.00  0.00    +0.003 A 
ATOM     18  C   UNL     1       7.101   4.499  -1.093  0.00  0.00    +0.015 A 
ATOM     19  C   UNL     1       6.373   4.065   0.001  0.00  0.00    +0.020 A 
ATOM     20  C   UNL     1       5.109   4.571   0.236  0.00  0.00    +0.041 A 
ATOM     21 BR   UNL     1       7.109   2.779   1.176  0.00  0.00    -0.050 Br
ENDBRANCH   3  15
BRANCH   4  22
ATOM     22  C   UNL     1       4.170   8.277  -0.705  0.00  0.00    -0.000 A 
ATOM     23  C   UNL     1       5.414   8.117  -0.078  0.00  0.00    +0.012 A 
ATOM     24  C   UNL     1       6.436   8.998  -0.350  0.00  0.00    +0.033 A 
ATOM     25  C   UNL     1       6.236  10.048  -1.232  0.00  0.00    +0.126 A 
ATOM     26  C   UNL     1       5.008  10.217  -1.852  0.00  0.00    +0.033 A 
ATOM     27  C   UNL     1       3.976   9.342  -1.597  0.00  0.00    +0.012 A 
BRANCH  25  28
ATOM     28  N   UNL     1       7.339  10.993  -1.514  0.00  0.00    +0.056 N 
ATOM     29  O   UNL     1       7.153  11.992  -2.352  0.00  0.00    -0.126 OA
ATOM     30  O   UNL     1       8.507  10.836  -0.927  0.00  0.00    -0.126 OA
ENDBRANCH  25  28
ENDBRANCH   4  22
TORSDOF 4
