REMARK  Name = ZINC15319720
REMARK  4 active torsions:
REMARK  status: ('A' for Active; 'I' for Inactive)
REMARK    1  A    between atoms: C_6  and  C_7
REMARK    2  A    between atoms: C_10  and  C_36
REMARK    3  A    between atoms: C_15  and  C_17
REMARK    4  A    between atoms: N_22  and  C_25
REMARK                            x       y       z     vdW  Elec       q    Type
REMARK                         _______ _______ _______ _____ _____    ______ ____
ROOT
ATOM      1  C   UNL     1      -1.629  -8.001  -6.522  0.00  0.00    +0.104 C 
ATOM      2  C   UNL     1      -3.103  -8.198  -6.891  0.00  0.00    +0.063 C 
ATOM      3  C   UNL     1      -3.904  -8.602  -5.647  0.00  0.00    +0.215 C 
ATOM      4  N   UNL     1      -3.596  -7.667  -4.561  0.00  0.00    -0.238 N 
ATOM      5  C   UNL     1      -2.486  -6.872  -4.537  0.00  0.00    +0.119 A 
ATOM      6  C   UNL     1      -2.518  -6.140  -3.406  0.00  0.00    +0.078 A 
ATOM      7  C   UNL     1      -3.690  -6.496  -2.701  0.00  0.00    +0.149 A 
ATOM      8  N   UNL     1      -4.330  -7.414  -3.404  0.00  0.00    -0.164 NA
ATOM      9  N   UNL     1      -1.528  -6.888  -5.557  0.00  0.00    -0.322 N 
ATOM     10  H   UNL     1      -0.840  -6.208  -5.628  0.00  0.00    +0.148 HD
ENDROOT
BRANCH   7  11
ATOM     11  C   UNL     1      -4.124  -5.938  -1.404  0.00  0.00    +0.267 C 
ATOM     12  O   UNL     1      -3.521  -5.004  -0.912  0.00  0.00    -0.268 OA
ATOM     13  N   UNL     1      -5.189  -6.463  -0.767  0.00  0.00    -0.300 N 
ATOM     14  C   UNL     1      -5.734  -5.831   0.445  0.00  0.00    +0.089 C 
ATOM     15  C   UNL     1      -5.877  -6.903   1.530  0.00  0.00    -0.059 C 
ATOM     16  N   UNL     1      -6.682  -8.017   1.013  0.00  0.00    +0.385 N 
ATOM     17  C   UNL     1      -5.978  -8.670  -0.097  0.00  0.00    -0.059 C 
ATOM     18  C   UNL     1      -5.843  -7.683  -1.266  0.00  0.00    +0.089 C 
ATOM     19  H   UNL     1      -7.570  -7.665   0.687  0.00  0.00    -0.081 HD
BRANCH  16  20
ATOM     20  C   UNL     1      -6.911  -8.992   2.087  0.00  0.00    -0.065 C 
ATOM     21  C   UNL     1      -5.567  -9.524   2.589  0.00  0.00    -0.009 C 
ATOM     22  C   UNL     1      -5.805 -10.540   3.708  0.00  0.00    -0.012 C 
ATOM     23  C   UNL     1      -6.644 -11.701   3.171  0.00  0.00    +0.007 C 
ATOM     24  C   UNL     1      -7.989 -11.170   2.670  0.00  0.00    -0.012 C 
ATOM     25  C   UNL     1      -7.750 -10.154   1.551  0.00  0.00    -0.009 C 
ATOM     26  C   UNL     1      -8.732 -10.494   3.823  0.00  0.00    +0.007 C 
ATOM     27  C   UNL     1      -7.893  -9.332   4.359  0.00  0.00    -0.012 C 
ATOM     28  C   UNL     1      -6.549  -9.863   4.861  0.00  0.00    +0.007 C 
ATOM     29  C   UNL     1      -7.655  -8.316   3.241  0.00  0.00    -0.009 C 
ENDBRANCH  16  20
ENDBRANCH   7  11
BRANCH   1  35
ATOM     30  C   UNL     1      -0.095  -8.653  -8.389  0.00  0.00    +0.008 A 
ATOM     31  C   UNL     1       0.632  -8.351  -9.524  0.00  0.00    +0.038 A 
ATOM     32  C   UNL     1       0.617  -7.064 -10.033  0.00  0.00    +0.123 A 
ATOM     33  C   UNL     1      -0.126  -6.080  -9.403  0.00  0.00    +0.038 A 
ATOM     34  C   UNL     1      -0.852  -6.384  -8.267  0.00  0.00    +0.008 A 
ATOM     35  C   UNL     1      -0.837  -7.670  -7.760  0.00  0.00    -0.027 A 
ATOM     36  F   UNL     1       1.328  -6.767 -11.143  0.00  0.00    -0.205 F 
ENDBRANCH   1  35
BRANCH   3  37
ATOM     37  C   UNL     1      -5.400  -8.552  -5.963  0.00  0.00    +0.412 C 
ATOM     38  F   UNL     1      -5.686  -9.437  -7.008  0.00  0.00    -0.168 F 
ATOM     39  F   UNL     1      -6.128  -8.921  -4.826  0.00  0.00    -0.168 F 
ATOM     40  F   UNL     1      -5.753  -7.253  -6.341  0.00  0.00    -0.168 F 
ENDBRANCH   3  37
TORSDOF 4
