REMARK  Name = ZINC39605072
REMARK  9 active torsions:
REMARK  status: ('A' for Active; 'I' for Inactive)
REMARK    1  A    between atoms: C_1  and  C_2
REMARK    2  A    between atoms: C_2  and  C_3
REMARK    3  A    between atoms: C_2  and  O_4
REMARK    4  A    between atoms: O_4  and  C_5
REMARK    5  A    between atoms: C_5  and  C_6
REMARK    6  A    between atoms: C_6  and  C_7
REMARK    7  A    between atoms: C_7  and  N_8
REMARK    8  A    between atoms: C_9  and  C_11
REMARK    9  A    between atoms: C_22  and  C_24
REMARK                            x       y       z     vdW  Elec       q    Type
REMARK                         _______ _______ _______ _____ _____    ______ ____
ROOT
ATOM      1  C   UNL     1      -6.169  -5.618  -1.503  0.00  0.00    +0.100 C 
ATOM      2  C   UNL     1      -6.663  -5.966  -0.081  0.00  0.00    +0.121 C 
ATOM      3  N   UNL     1      -7.631  -7.071  -0.281  0.00  0.00    -0.296 N 
ATOM      4  C   UNL     1      -7.021  -7.908  -1.341  0.00  0.00    +0.115 C 
ATOM      5  C   UNL     1      -6.405  -6.895  -2.327  0.00  0.00    -0.004 C 
ATOM      6  C   UNL     1      -7.375  -6.615  -3.470  0.00  0.00    -0.010 C 
ATOM      7  C   UNL     1      -7.549  -7.885  -4.308  0.00  0.00    -0.082 C 
ATOM      8  N   UNL     1      -6.246  -8.306  -4.837  0.00  0.00    +0.379 N 
ATOM      9  C   UNL     1      -5.349  -8.663  -3.732  0.00  0.00    -0.082 C 
ATOM     10  C   UNL     1      -5.082  -7.426  -2.870  0.00  0.00    -0.010 C 
ATOM     11  C   UNL     1      -8.801  -7.269   0.357  0.00  0.00    +0.247 C 
ATOM     12  O   UNL     1      -9.447  -8.277   0.143  0.00  0.00    -0.270 OA
ATOM     13  H   UNL     1      -6.372  -9.107  -5.438  0.00  0.00    -0.086 HD
ATOM     14  H   UNL     1      -5.840  -7.551  -5.369  0.00  0.00    -0.086 HD
ENDROOT
BRANCH  11  15
ATOM     15  C   UNL     1      -9.300  -6.262   1.316  0.00  0.00    +0.045 A 
ATOM     16  C   UNL     1      -8.461  -5.779   2.328  0.00  0.00    +0.014 A 
ATOM     17  C   UNL     1      -8.923  -4.840   3.224  0.00  0.00    +0.001 A 
ATOM     18  C   UNL     1     -10.221  -4.363   3.134  0.00  0.00    +0.012 A 
ATOM     19  C   UNL     1     -11.071  -4.829   2.138  0.00  0.00    +0.031 A 
ATOM     20  C   UNL     1     -10.612  -5.782   1.214  0.00  0.00    +0.006 A 
ATOM     21  C   UNL     1     -11.710  -6.094   0.266  0.00  0.00    -0.006 A 
ATOM     22  C   UNL     1     -11.781  -6.960  -0.818  0.00  0.00    +0.009 A 
ATOM     23  C   UNL     1     -12.954  -7.060  -1.550  0.00  0.00    +0.001 A 
ATOM     24  C   UNL     1     -14.058  -6.303  -1.209  0.00  0.00    +0.001 A 
ATOM     25  C   UNL     1     -14.003  -5.435  -0.131  0.00  0.00    +0.012 A 
ATOM     26  C   UNL     1     -12.834  -5.325   0.611  0.00  0.00    +0.030 A 
ATOM     27  C   UNL     1     -12.479  -4.513   1.800  0.00  0.00    +0.194 C 
ATOM     28  O   UNL     1     -13.201  -3.727   2.379  0.00  0.00    -0.287 OA
ENDBRANCH  11  15
BRANCH   1  30
ATOM     29  N   UNL     1      -4.169  -4.528  -2.468  0.00  0.00    -0.315 N 
ATOM     30  C   UNL     1      -4.702  -5.272  -1.479  0.00  0.00    +0.218 C 
ATOM     31  O   UNL     1      -4.002  -5.664  -0.569  0.00  0.00    -0.275 OA
ATOM     32  H   UNL     1      -4.729  -4.215  -3.195  0.00  0.00    +0.149 HD
BRANCH  29  33
ATOM     33  C   UNL     1      -2.743  -4.192  -2.444  0.00  0.00    +0.106 C 
BRANCH  33  34
ATOM     34  C   UNL     1      -2.398  -3.347  -3.671  0.00  0.00    +0.047 C 
BRANCH  34  35
ATOM     35  C   UNL     1      -0.909  -2.996  -3.647  0.00  0.00    +0.161 C 
BRANCH  35  36
ATOM     36  O   UNL     1      -0.587  -2.206  -4.793  0.00  0.00    -0.377 OA
BRANCH  36  38
ATOM     37  C   UNL     1       1.200  -1.679  -6.334  0.00  0.00    +0.037 C 
ATOM     38  C   UNL     1       0.788  -1.822  -4.867  0.00  0.00    +0.112 C 
ATOM     39  C   UNL     1       0.984  -0.485  -4.149  0.00  0.00    +0.037 C 
ENDBRANCH  36  38
ENDBRANCH  35  36
ENDBRANCH  34  35
ENDBRANCH  33  34
ENDBRANCH  29  33
ENDBRANCH   1  30
TORSDOF 7
