REMARK  Name = ZINC40740361
REMARK  13 active torsions:
REMARK  status: ('A' for Active; 'I' for Inactive)
REMARK    1  A    between atoms: C_1  and  C_2
REMARK    2  A    between atoms: C_2  and  C_3
REMARK    3  A    between atoms: C_3  and  C_4
REMARK    4  A    between atoms: C_3  and  C_5
REMARK    5  A    between atoms: C_3  and  N_6
REMARK    6  A    between atoms: N_6  and  C_7
REMARK    7  A    between atoms: C_7  and  C_8
REMARK    8  A    between atoms: C_10  and  O_25
REMARK    9  A    between atoms: C_11  and  O_15
REMARK   10  A    between atoms: O_15  and  C_16
REMARK   11  A    between atoms: C_16  and  C_17
REMARK   12  A    between atoms: O_25  and  C_26
REMARK   13  A    between atoms: C_26  and  C_27
REMARK                            x       y       z     vdW  Elec       q    Type
REMARK                         _______ _______ _______ _____ _____    ______ ____
ROOT
ATOM      1  C   UNL     1       1.493  -3.973   2.415  0.00  0.00    -0.060 A 
ATOM      2  C   UNL     1       0.467  -4.680   3.015  0.00  0.00    +0.051 A 
ATOM      3  C   UNL     1       0.484  -6.066   3.009  0.00  0.00    +0.163 A 
ATOM      4  C   UNL     1       1.535  -6.743   2.397  0.00  0.00    +0.176 A 
ATOM      5  C   UNL     1       2.559  -6.029   1.797  0.00  0.00    +0.063 A 
ATOM      6  C   UNL     1       2.534  -4.645   1.803  0.00  0.00    +0.021 A 
ATOM      7 BR   UNL     1       3.989  -6.944   0.964  0.00  0.00    -0.046 Br
ENDROOT
BRANCH   1   8
ATOM      8  C   UNL     1       1.472  -2.466   2.424  0.00  0.00    -0.046 C 
BRANCH   8   9
ATOM      9  N   UNL     1       0.762  -1.980   1.234  0.00  0.00    +0.385 N 
ATOM     10  H   UNL     1      -0.185  -2.329   1.241  0.00  0.00    -0.085 HD
ATOM     11  H   UNL     1       1.234  -2.305   0.403  0.00  0.00    -0.085 HD
BRANCH   9  12
ATOM     12  C   UNL     1       0.742  -0.511   1.242  0.00  0.00    -0.074 C 
ATOM     13  C   UNL     1       2.178   0.019   1.231  0.00  0.00    -0.010 C 
ATOM     14  C   UNL     1       0.026  -0.018   2.500  0.00  0.00    -0.010 C 
BRANCH  12  16
ATOM     15  C   UNL     1      -0.019   1.526   0.010  0.00  0.00    +0.002 C 
ATOM     16  C   UNL     1       0.002  -0.004   0.002  0.00  0.00    -0.016 C 
ENDBRANCH  12  16
ENDBRANCH   9  12
ENDBRANCH   8   9
ENDBRANCH   1   8
BRANCH   4  17
ATOM     17  O   UNL     1       1.556  -8.103   2.389  0.00  0.00    -0.483 OA
BRANCH  17  18
ATOM     18  C   UNL     1       0.923  -8.755   1.285  0.00  0.00    +0.267 C 
BRANCH  18  19
ATOM     19  C   UNL     1       1.046 -10.248   1.446  0.00  0.00    +0.026 A 
ATOM     20  C   UNL     1       2.139 -10.913   0.921  0.00  0.00    +0.049 A 
ATOM     21  C   UNL     1       2.252 -12.284   1.069  0.00  0.00    +0.020 A 
ATOM     22  C   UNL     1       1.271 -12.989   1.742  0.00  0.00    +0.003 A 
ATOM     23  C   UNL     1       0.179 -12.325   2.267  0.00  0.00    +0.020 A 
ATOM     24  C   UNL     1       0.069 -10.954   2.125  0.00  0.00    +0.049 A 
ATOM     25 CL   UNL     1      -1.300 -10.119   2.791  0.00  0.00    -0.083 Cl
ATOM     26 CL   UNL     1       3.370 -10.028   0.075  0.00  0.00    -0.083 Cl
ENDBRANCH  18  19
ENDBRANCH  17  18
ENDBRANCH   4  17
BRANCH   3  27
ATOM     27  O   UNL     1      -0.523  -6.762   3.600  0.00  0.00    -0.489 OA
BRANCH  27  28
ATOM     28  C   UNL     1      -1.568  -6.001   4.209  0.00  0.00    +0.226 C 
ATOM     29  C   UNL     1      -2.603  -6.950   4.816  0.00  0.00    +0.048 C 
ENDBRANCH  27  28
ENDBRANCH   3  27
TORSDOF 9
