REMARK  Name = ZINC09521457
REMARK  4 active torsions:
REMARK  status: ('A' for Active; 'I' for Inactive)
REMARK    1  A    between atoms: C_6  and  C_7
REMARK    2  A    between atoms: C_7  and  C_8
REMARK    3  A    between atoms: N_10  and  C_11
REMARK    4  A    between atoms: C_12  and  C_21
REMARK                            x       y       z     vdW  Elec       q    Type
REMARK                         _______ _______ _______ _____ _____    ______ ____
ROOT
ATOM      1  C   UNL     1       8.277  -1.641   0.517  0.00  0.00    +0.084 A 
ATOM      2  C   UNL     1       9.642  -1.854   0.630  0.00  0.00    +0.068 A 
ATOM      3  C   UNL     1      10.362  -2.276  -0.564  0.00  0.00    -0.023 A 
ATOM      4  C   UNL     1       9.603  -2.399  -1.673  0.00  0.00    -0.004 A 
ATOM      5  S   UNL     1       7.962  -1.981  -1.152  0.00  0.00    -0.077 S 
ATOM      6  C   UNL     1      10.049  -2.787  -3.049  0.00  0.00    +0.043 C 
ATOM      7  C   UNL     1      10.919  -4.048  -2.962  0.00  0.00    +0.005 C 
ATOM      8  C   UNL     1      12.371  -3.619  -2.772  0.00  0.00    +0.001 C 
ATOM      9  C   UNL     1      12.436  -2.332  -1.953  0.00  0.00    +0.005 C 
ATOM     10  C   UNL     1      11.860  -2.558  -0.559  0.00  0.00    +0.037 C 
ENDROOT
BRANCH   2  11
ATOM     11  C   UNL     1      10.336  -1.664   1.907  0.00  0.00    +0.244 C 
ATOM     12  O   UNL     1      10.447  -2.594   2.684  0.00  0.00    -0.270 OA
ATOM     13  N   UNL     1      10.851  -0.459   2.221  0.00  0.00    -0.325 N 
ATOM     14  H   UNL     1      10.762   0.283   1.602  0.00  0.00    +0.145 HD
ATOM     15  H   UNL     1      11.310  -0.333   3.066  0.00  0.00    +0.145 HD
ENDBRANCH   2  11
BRANCH   1  18
ATOM     16  C   UNL     1       6.078  -1.084   1.199  0.00  0.00    +0.222 C 
ATOM     17  O   UNL     1       5.688  -1.283   0.068  0.00  0.00    -0.275 OA
ATOM     18  N   UNL     1       7.382  -1.246   1.500  0.00  0.00    -0.279 N 
ATOM     19  H   UNL     1       7.694  -1.087   2.405  0.00  0.00    +0.155 HD
BRANCH  16  20
ATOM     20  C   UNL     1       5.106  -0.655   2.267  0.00  0.00    +0.131 C 
BRANCH  20  26
ATOM     21  C   UNL     1       2.886  -1.646   1.677  0.00  0.00    +0.008 A 
ATOM     22  C   UNL     1       1.617  -1.552   1.135  0.00  0.00    +0.050 A 
ATOM     23  C   UNL     1       1.183  -0.356   0.589  0.00  0.00    +0.166 A 
ATOM     24  C   UNL     1       2.029   0.752   0.587  0.00  0.00    +0.166 A 
ATOM     25  C   UNL     1       3.298   0.650   1.131  0.00  0.00    +0.053 A 
ATOM     26  C   UNL     1       3.724  -0.547   1.675  0.00  0.00    -0.035 A 
ATOM     27  O   UNL     1       1.376   1.797  -0.001  0.00  0.00    -0.453 OA
ATOM     28  C   UNL     1      -0.018   1.436   0.010  0.00  0.00    +0.466 C 
ATOM     29  O   UNL     1       0.002  -0.004   0.002  0.00  0.00    -0.453 OA
ENDBRANCH  20  26
ENDBRANCH  16  20
ENDBRANCH   1  18
TORSDOF 4
