REMARK  Name = ZINC64045002
REMARK  9 active torsions:
REMARK  status: ('A' for Active; 'I' for Inactive)
REMARK    1  A    between atoms: C_1  and  C_2
REMARK    2  A    between atoms: C_6  and  C_7
REMARK    3  A    between atoms: C_7  and  N_8
REMARK    4  A    between atoms: C_10  and  N_19
REMARK    5  A    between atoms: C_13  and  C_15
REMARK    6  A    between atoms: C_15  and  O_17
REMARK    7  A    between atoms: O_17  and  C_18
REMARK    8  A    between atoms: C_20  and  C_22
REMARK    9  A    between atoms: C_24  and  C_33
REMARK                            x       y       z     vdW  Elec       q    Type
REMARK                         _______ _______ _______ _____ _____    ______ ____
ROOT
ATOM      1  N   UNL     1      -4.672   0.050   2.589  0.00  0.00    -0.309 N 
ATOM      2  C   UNL     1      -5.566   0.538   1.706  0.00  0.00    +0.240 C 
ATOM      3  O   UNL     1      -5.499   1.696   1.352  0.00  0.00    -0.273 OA
ATOM      4  H   UNL     1      -4.766  -0.855   2.925  0.00  0.00    +0.149 HD
ENDROOT
BRANCH   2   5
ATOM      5  C   UNL     1      -6.649  -0.356   1.159  0.00  0.00    +0.198 C 
ATOM      6  C   UNL     1      -7.892  -0.251   2.014  0.00  0.00    -0.000 C 
ATOM      7  C   UNL     1      -8.886   0.222   1.173  0.00  0.00    +0.006 A 
ATOM      8  C   UNL     1     -10.253   0.523   1.384  0.00  0.00    +0.030 A 
ATOM      9  C   UNL     1     -11.006   0.982   0.354  0.00  0.00    +0.042 A 
ATOM     10  C   UNL     1     -10.466   1.168  -0.925  0.00  0.00    +0.022 A 
ATOM     11  C   UNL     1      -9.168   0.901  -1.200  0.00  0.00    +0.027 A 
ATOM     12  C   UNL     1      -8.313   0.417  -0.172  0.00  0.00    +0.044 A 
ATOM     13  N   UNL     1      -7.039   0.088  -0.183  0.00  0.00    -0.370 N 
ATOM     14 CL   UNL     1     -12.681   1.347   0.627  0.00  0.00    -0.084 Cl
ATOM     15  H   UNL     1      -6.452   0.131  -0.954  0.00  0.00    +0.161 HD
BRANCH   6  16
ATOM     16  C   UNL     1      -8.019  -0.582   3.435  0.00  0.00    -0.019 A 
ATOM     17  C   UNL     1      -9.035   0.001   4.207  0.00  0.00    +0.008 A 
ATOM     18  C   UNL     1      -9.147  -0.317   5.543  0.00  0.00    +0.001 A 
ATOM     19  C   UNL     1      -8.260  -1.208   6.123  0.00  0.00    +0.000 A 
ATOM     20  C   UNL     1      -7.254  -1.789   5.369  0.00  0.00    +0.001 A 
ATOM     21  C   UNL     1      -7.130  -1.488   4.030  0.00  0.00    +0.008 A 
ENDBRANCH   6  16
ENDBRANCH   2   5
BRANCH   1  24
ATOM     22  N   UNL     1      -1.496  -0.273   2.660  0.00  0.00    -0.283 NA
ATOM     23  C   UNL     1      -2.369   0.772   2.065  0.00  0.00    +0.108 C 
ATOM     24  C   UNL     1      -3.558   0.887   3.042  0.00  0.00    +0.089 C 
ATOM     25  C   UNL     1      -3.017   0.378   4.394  0.00  0.00    +0.054 C 
ATOM     26  C   UNL     1      -1.546  -0.002   4.120  0.00  0.00    +0.168 C 
BRANCH  26  27
ATOM     27  C   UNL     1      -1.170  -1.238   4.897  0.00  0.00    +0.324 C 
ATOM     28  O   UNL     1      -0.883  -2.255   4.311  0.00  0.00    -0.249 OA
BRANCH  27  29
ATOM     29  O   UNL     1      -1.153  -1.208   6.238  0.00  0.00    -0.467 OA
ATOM     30  C   UNL     1      -0.786  -2.415   6.910  0.00  0.00    +0.280 C 
ENDBRANCH  27  29
ENDBRANCH  26  27
BRANCH  22  31
ATOM     31  C   UNL     1      -0.122  -0.162   2.152  0.00  0.00    +0.128 C 
BRANCH  31  37
ATOM     32  C   UNL     1       0.182  -3.077   1.230  0.00  0.00    +0.044 C 
ATOM     33  C   UNL     1       0.060  -1.923   0.268  0.00  0.00    -0.039 A 
ATOM     34  C   UNL     1       0.076  -2.143  -1.096  0.00  0.00    +0.011 A 
ATOM     35  C   UNL     1      -0.036  -1.083  -1.934  0.00  0.00    +0.046 A 
ATOM     36  S   UNL     1      -0.169   0.280  -0.789  0.00  0.00    -0.100 S 
ATOM     37  C   UNL     1      -0.071  -0.655   0.729  0.00  0.00    +0.007 A 
ENDBRANCH  31  37
ENDBRANCH  22  31
ENDBRANCH   1  24
TORSDOF 7
