REMARK  Name = ZINC17590335
REMARK  8 active torsions:
REMARK  status: ('A' for Active; 'I' for Inactive)
REMARK    1  A    between atoms: C_1  and  N_2
REMARK    2  A    between atoms: C_6  and  C_7
REMARK    3  A    between atoms: C_7  and  C_9
REMARK    4  A    between atoms: C_7  and  N_16
REMARK    5  A    between atoms: N_16  and  C_17
REMARK    6  A    between atoms: C_20  and  S_26
REMARK    7  A    between atoms: C_22  and  N_23
REMARK    8  A    between atoms: S_26  and  N_29
REMARK                            x       y       z     vdW  Elec       q    Type
REMARK                         _______ _______ _______ _____ _____    ______ ____
ROOT
ATOM      1  C   UNL     1       1.239   3.006   0.034  0.00  0.00    +0.059 A 
ATOM      2  C   UNL     1       0.125   3.836   0.016  0.00  0.00    +0.027 A 
ATOM      3  C   UNL     1      -1.142   3.288  -0.002  0.00  0.00    +0.030 A 
ATOM      4  C   UNL     1      -1.303   1.914  -0.009  0.00  0.00    +0.108 A 
ATOM      5  C   UNL     1      -0.197   1.085   0.015  0.00  0.00    +0.063 A 
ATOM      6  C   UNL     1       1.074   1.627   0.033  0.00  0.00    +0.149 A 
ENDROOT
BRANCH   6   7
ATOM      7  N   UNL     1       2.257   0.739   0.052  0.00  0.00    +0.058 N 
ATOM      8  O   UNL     1       2.114  -0.466   0.164  0.00  0.00    -0.126 OA
ATOM      9  O   UNL     1       3.376   1.212  -0.044  0.00  0.00    -0.126 OA
ENDBRANCH   6   7
BRANCH   4  10
ATOM     10  S   UNL     1      -2.922   1.219  -0.040  0.00  0.00    +0.061 S 
ATOM     11  O   UNL     1      -3.775   2.202  -0.609  0.00  0.00    -0.153 OA
ATOM     12  O   UNL     1      -2.793  -0.087  -0.586  0.00  0.00    -0.153 OA
BRANCH  10  13
ATOM     13  N   UNL     1      -3.403   1.028   1.533  0.00  0.00    -0.177 NA
ATOM     14  C   UNL     1      -3.109  -0.220   2.201  0.00  0.00    +0.109 C 
ATOM     15  C   UNL     1      -4.260  -1.222   1.972  0.00  0.00    +0.017 C 
ATOM     16  C   UNL     1      -5.451  -0.814   2.733  0.00  0.00    +0.001 C 
ATOM     17  C   UNL     1      -6.032   0.533   2.314  0.00  0.00    +0.001 C 
ATOM     18  C   UNL     1      -5.306   1.639   3.040  0.00  0.00    +0.017 C 
ATOM     19  C   UNL     1      -4.120   2.136   2.193  0.00  0.00    +0.109 C 
ENDBRANCH  10  13
ENDBRANCH   4  10
BRANCH   1  20
ATOM     20  N   UNL     1       2.522   3.557   0.052  0.00  0.00    -0.329 N 
ATOM     21  H   UNL     1       3.299   2.980  -0.022  0.00  0.00    +0.147 HD
BRANCH  20  22
ATOM     22  C   UNL     1       2.695   5.006   0.183  0.00  0.00    +0.167 C 
BRANCH  22  23
ATOM     23  C   UNL     1       4.048   5.298   0.779  0.00  0.00    -0.020 A 
ATOM     24  C   UNL     1       5.149   4.556   0.390  0.00  0.00    +0.009 A 
ATOM     25  C   UNL     1       6.391   4.827   0.931  0.00  0.00    +0.038 A 
ATOM     26  C   UNL     1       6.532   5.834   1.871  0.00  0.00    +0.123 A 
ATOM     27  C   UNL     1       5.428   6.572   2.264  0.00  0.00    +0.038 A 
ATOM     28  C   UNL     1       4.188   6.304   1.717  0.00  0.00    +0.009 A 
ATOM     29  F   UNL     1       7.745   6.096   2.406  0.00  0.00    -0.205 F 
ENDBRANCH  22  23
BRANCH  22  35
ATOM     30  C   UNL     1       1.087   7.555  -0.535  0.00  0.00    +0.150 C 
ATOM     31  N   UNL     1       1.888   6.761  -1.470  0.00  0.00    -0.336 N 
ATOM     32  C   UNL     1       2.063   7.011  -2.805  0.00  0.00    +0.106 A 
ATOM     33  C   UNL     1       2.862   6.038  -3.282  0.00  0.00    +0.130 A 
ATOM     34  N   UNL     1       3.172   5.220  -2.265  0.00  0.00    -0.238 NA
ATOM     35  C   UNL     1       2.595   5.649  -1.176  0.00  0.00    +0.134 A 
ENDBRANCH  22  35
ENDBRANCH  20  22
ENDBRANCH   1  20
TORSDOF 7
