REMARK  Name = ZINC36266760
REMARK  5 active torsions:
REMARK  status: ('A' for Active; 'I' for Inactive)
REMARK    1  A    between atoms: C_2  and  S_11
REMARK    2  A    between atoms: S_11  and  N_14
REMARK    3  A    between atoms: N_14  and  C_15
REMARK    4  A    between atoms: C_15  and  C_16
REMARK    5  A    between atoms: C_16  and  N_23
REMARK                            x       y       z     vdW  Elec       q    Type
REMARK                         _______ _______ _______ _____ _____    ______ ____
ROOT
ATOM      1  N   UNL     1       3.843   4.445   0.727  0.00  0.00    -0.191 NA
ATOM      2  H   UNL     1       4.298   5.302   0.746  0.00  0.00    +0.148 HD
ENDROOT
BRANCH   1   3
ATOM      3  S   UNL     1       3.930   3.491  -0.623  0.00  0.00    +0.065 S 
ATOM      4  O   UNL     1       4.279   2.187  -0.178  0.00  0.00    -0.153 OA
ATOM      5  O   UNL     1       4.708   4.204  -1.575  0.00  0.00    -0.153 OA
BRANCH   3   7
ATOM      6  C   UNL     1       1.994   3.986  -2.452  0.00  0.00    +0.121 A 
ATOM      7  C   UNL     1       2.302   3.377  -1.287  0.00  0.00    +0.185 A 
ATOM      8  C   UNL     1       1.300   2.645  -0.606  0.00  0.00    +0.280 A 
ATOM      9  O   UNL     1       1.554   2.087   0.447  0.00  0.00    -0.266 OA
ATOM     10  N   UNL     1       0.061   2.572  -1.133  0.00  0.00    -0.273 N 
ATOM     11  H   UNL     1      -0.632   2.072  -0.672  0.00  0.00    +0.173 HD
ATOM     12  C   UNL     1      -0.219   3.189  -2.296  0.00  0.00    +0.327 A 
ATOM     13  O   UNL     1      -1.341   3.114  -2.759  0.00  0.00    -0.247 OA
ATOM     14  N   UNL     1       0.724   3.887  -2.953  0.00  0.00    -0.312 N 
ATOM     15  H   UNL     1       0.503   4.325  -3.789  0.00  0.00    +0.170 HD
ENDBRANCH   3   7
ENDBRANCH   1   3
BRANCH   1  16
ATOM     16  C   UNL     1       3.079   3.996   1.894  0.00  0.00    +0.093 C 
BRANCH  16  17
ATOM     17  C   UNL     1       3.454   4.848   3.108  0.00  0.00    -0.057 C 
ATOM     18  C   UNL     1       2.448   4.571   4.241  0.00  0.00    -0.012 C 
ATOM     19  C   UNL     1       2.741   3.259   4.994  0.00  0.00    -0.001 C 
ATOM     20  C   UNL     1       3.130   2.139   4.067  0.00  0.00    -0.000 C 
ATOM     21  C   UNL     1       4.668   2.093   3.971  0.00  0.00    -0.000 C 
ATOM     22  C   UNL     1       5.197   3.094   3.056  0.00  0.00    -0.001 C 
ATOM     23  C   UNL     1       4.870   4.533   3.506  0.00  0.00    -0.012 C 
BRANCH  17  24
ATOM     24  N   UNL     1       3.370   6.267   2.736  0.00  0.00    +0.383 N 
ATOM     25  H   UNL     1       2.428   6.483   2.445  0.00  0.00    -0.089 HD
ATOM     26  H   UNL     1       3.615   6.838   3.531  0.00  0.00    -0.089 HD
ATOM     27  H   UNL     1       4.008   6.454   1.977  0.00  0.00    -0.089 HD
ENDBRANCH  17  24
ENDBRANCH  16  17
ENDBRANCH   1  16
TORSDOF 5
