REMARK  Name = ZINC35374598
REMARK  8 active torsions:
REMARK  status: ('A' for Active; 'I' for Inactive)
REMARK    1  A    between atoms: C_1  and  C_2
REMARK    2  A    between atoms: C_2  and  C_3
REMARK    3  A    between atoms: C_3  and  C_5
REMARK    4  A    between atoms: C_3  and  C_6
REMARK    5  A    between atoms: C_6  and  N_7
REMARK    6  A    between atoms: C_8  and  C_10
REMARK    7  A    between atoms: C_21  and  C_23
REMARK    8  A    between atoms: C_26  and  N_30
REMARK                            x       y       z     vdW  Elec       q    Type
REMARK                         _______ _______ _______ _____ _____    ______ ____
ROOT
ATOM      1  C   UNL     1       1.897  -4.525  -3.251  0.00  0.00    +0.028 C 
ATOM      2  C   UNL     1       3.213  -3.724  -3.021  0.00  0.00    +0.061 C 
ATOM      3  S   UNL     1       4.332  -4.720  -4.107  0.00  0.00    -0.174 S 
ATOM      4  C   UNL     1       3.480  -6.334  -3.893  0.00  0.00    -0.016 C 
ATOM      5  N   UNL     1       2.172  -5.964  -3.331  0.00  0.00    +0.397 N 
ATOM      6  C   UNL     1       3.326  -7.013  -5.247  0.00  0.00    +0.017 C 
ATOM      7  C   UNL     1       2.599  -8.350  -5.069  0.00  0.00    +0.107 C 
ATOM      8  N   UNL     1       3.305  -9.139  -4.050  0.00  0.00    -0.298 N 
ATOM      9  C   UNL     1       3.545  -8.540  -2.730  0.00  0.00    +0.107 C 
ATOM     10  C   UNL     1       4.268  -7.202  -2.922  0.00  0.00    +0.017 C 
ATOM     11  C   UNL     1       3.726 -10.390  -4.322  0.00  0.00    +0.248 C 
ATOM     12  O   UNL     1       3.457 -10.904  -5.391  0.00  0.00    -0.270 OA
ATOM     13  H   UNL     1       2.107  -6.350  -2.401  0.00  0.00    -0.083 HD
ATOM     14  H   UNL     1       1.455  -6.390  -3.898  0.00  0.00    -0.083 HD
ENDROOT
BRANCH  11  15
ATOM     15  C   UNL     1       4.516 -11.138  -3.322  0.00  0.00    +0.055 A 
ATOM     16  C   UNL     1       4.022 -11.315  -2.028  0.00  0.00    +0.017 A 
ATOM     17  C   UNL     1       4.764 -12.014  -1.099  0.00  0.00    +0.033 A 
ATOM     18  C   UNL     1       5.997 -12.540  -1.446  0.00  0.00    +0.128 A 
ATOM     19  C   UNL     1       6.493 -12.369  -2.725  0.00  0.00    +0.053 A 
ATOM     20  C   UNL     1       5.758 -11.676  -3.668  0.00  0.00    +0.055 A 
ATOM     21 CL   UNL     1       6.380 -11.468  -5.276  0.00  0.00    -0.083 Cl
BRANCH  18  22
ATOM     22  N   UNL     1       6.787 -13.288  -0.444  0.00  0.00    +0.056 N 
ATOM     23  O   UNL     1       6.356 -13.439   0.676  0.00  0.00    -0.126 OA
ATOM     24  O   UNL     1       7.864 -13.749  -0.744  0.00  0.00    -0.126 OA
ENDBRANCH  18  22
ENDBRANCH  11  15
BRANCH   1  26
ATOM     25  N   UNL     1       0.532  -3.009  -1.853  0.00  0.00    -0.316 N 
ATOM     26  C   UNL     1       0.952  -4.264  -2.107  0.00  0.00    +0.200 C 
ATOM     27  O   UNL     1       0.569  -5.184  -1.415  0.00  0.00    -0.278 OA
ATOM     28  H   UNL     1       0.838  -2.274  -2.406  0.00  0.00    +0.149 HD
BRANCH  25  29
ATOM     29  C   UNL     1      -0.388  -2.756  -0.740  0.00  0.00    +0.107 C 
BRANCH  29  30
ATOM     30  C   UNL     1      -0.704  -1.260  -0.671  0.00  0.00    +0.003 C 
ATOM     31  C   UNL     1      -1.467  -0.842  -1.930  0.00  0.00    +0.009 C 
BRANCH  30  33
ATOM     32  C   UNL     1      -1.776   0.531   0.701  0.00  0.00    +0.004 C 
ATOM     33  C   UNL     1      -1.563  -0.978   0.563  0.00  0.00    +0.001 C 
ENDBRANCH  30  33
ENDBRANCH  29  30
ENDBRANCH  25  29
ENDBRANCH   1  26
TORSDOF 6
