REMARK  Name = ZINC36595311
REMARK  17 active torsions:
REMARK  status: ('A' for Active; 'I' for Inactive)
REMARK    1  A    between atoms: C_1  and  C_2
REMARK    2  A    between atoms: C_5  and  C_7
REMARK    3  A    between atoms: C_7  and  N_8
REMARK    4  A    between atoms: N_8  and  C_9
REMARK    5  A    between atoms: C_9  and  C_11
REMARK    6  A    between atoms: C_9  and  C_18
REMARK    7  A    between atoms: C_16  and  O_17
REMARK    8  A    between atoms: N_20  and  C_21
REMARK    9  A    between atoms: C_21  and  C_22
REMARK   10  A    between atoms: C_21  and  C_23
REMARK   11  A    between atoms: C_21  and  C_24
REMARK   12  A    between atoms: C_24  and  C_25
REMARK   13  A    between atoms: C_25  and  C_26
REMARK   14  A    between atoms: C_25  and  C_27
REMARK   15  A    between atoms: C_25  and  C_28
REMARK   16  A    between atoms: C_29  and  C_31
REMARK   17  A    between atoms: C_36  and  O_37
REMARK                            x       y       z     vdW  Elec       q    Type
REMARK                         _______ _______ _______ _____ _____    ______ ____
ROOT
ATOM      1  C   UNL     1       3.682  -3.135  -0.507  0.00  0.00    +0.196 C 
ENDROOT
BRANCH   1   2
ATOM      2  C   UNL     1       2.693  -1.999  -0.456  0.00  0.00    +0.023 A 
ATOM      3  C   UNL     1       2.172  -1.590   0.756  0.00  0.00    +0.009 A 
ATOM      4  C   UNL     1       1.264  -0.549   0.804  0.00  0.00    +0.001 A 
ATOM      5  C   UNL     1       0.875   0.086  -0.361  0.00  0.00    +0.004 A 
ATOM      6  C   UNL     1       1.393  -0.319  -1.576  0.00  0.00    +0.046 A 
ATOM      7  C   UNL     1       2.308  -1.360  -1.626  0.00  0.00    +0.122 A 
BRANCH   7   8
ATOM      8  O   UNL     1       2.824  -1.756  -2.819  0.00  0.00    -0.506 OA
ATOM      9  H   UNL     1       2.309  -2.446  -3.260  0.00  0.00    +0.292 HD
ENDBRANCH   7   8
ENDBRANCH   1   2
BRANCH   1  10
ATOM     10  C   UNL     1       5.082  -2.579  -0.553  0.00  0.00    +0.239 C 
ATOM     11  O   UNL     1       5.913  -2.961   0.244  0.00  0.00    -0.273 OA
ATOM     12  N   UNL     1       5.412  -1.658  -1.480  0.00  0.00    -0.308 N 
ATOM     13  H   UNL     1       4.734  -1.308  -2.079  0.00  0.00    +0.149 HD
BRANCH  12  14
ATOM     14  C   UNL     1       6.795  -1.183  -1.582  0.00  0.00    +0.030 C 
ATOM     15  C   UNL     1       7.098  -0.242  -0.414  0.00  0.00    +0.031 C 
ATOM     16  C   UNL     1       7.748  -2.379  -1.535  0.00  0.00    +0.031 C 
BRANCH  14  17
ATOM     17  C   UNL     1       6.980  -0.434  -2.903  0.00  0.00    +0.031 C 
BRANCH  17  18
ATOM     18  C   UNL     1       6.387  -1.260  -4.046  0.00  0.00    -0.036 C 
ATOM     19  C   UNL     1       4.863  -1.130  -4.031  0.00  0.00    +0.010 C 
ATOM     20  C   UNL     1       6.930  -0.747  -5.381  0.00  0.00    +0.010 C 
ATOM     21  C   UNL     1       6.775  -2.729  -3.868  0.00  0.00    +0.010 C 
ENDBRANCH  17  18
ENDBRANCH  14  17
ENDBRANCH  12  14
ENDBRANCH   1  10
BRANCH   1  22
ATOM     22  N   UNL     1       3.527  -3.971   0.685  0.00  0.00    -0.274 N 
ATOM     23  C   UNL     1       2.354  -4.587   0.928  0.00  0.00    +0.251 C 
ATOM     24  O   UNL     1       2.162  -5.130   1.999  0.00  0.00    -0.270 OA
BRANCH  23  25
ATOM     25  C   UNL     1       1.301  -4.604  -0.106  0.00  0.00    +0.078 A 
ATOM     26  C   UNL     1       1.480  -3.903  -1.301  0.00  0.00    +0.017 A 
ATOM     27  C   UNL     1       0.493  -3.923  -2.263  0.00  0.00    +0.001 A 
ATOM     28  C   UNL     1      -0.676  -4.635  -2.050  0.00  0.00    +0.004 A 
ATOM     29  C   UNL     1      -0.865  -5.332  -0.874  0.00  0.00    +0.046 A 
ATOM     30  C   UNL     1       0.119  -5.327   0.103  0.00  0.00    +0.129 A 
BRANCH  30  31
ATOM     31  O   UNL     1      -0.063  -6.016   1.257  0.00  0.00    -0.506 OA
ATOM     32  H   UNL     1      -0.487  -5.503   1.959  0.00  0.00    +0.292 HD
ENDBRANCH  30  31
ENDBRANCH  23  25
BRANCH  22  33
ATOM     33  C   UNL     1       4.648  -4.138   1.613  0.00  0.00    +0.183 C 
BRANCH  33  38
ATOM     34  C   UNL     1       6.146  -8.930   1.122  0.00  0.00    +0.086 C 
ATOM     35  C   UNL     1       6.109  -7.428   0.998  0.00  0.00    +0.102 A 
ATOM     36  C   UNL     1       7.008  -6.670   0.347  0.00  0.00    +0.045 A 
ATOM     37  C   UNL     1       6.589  -5.327   0.485  0.00  0.00    +0.046 A 
ATOM     38  C   UNL     1       5.457  -5.345   1.212  0.00  0.00    +0.122 A 
ATOM     39  O   UNL     1       5.168  -6.621   1.515  0.00  0.00    -0.463 OA
ENDBRANCH  33  38
ENDBRANCH  22  33
ENDBRANCH   1  22
TORSDOF 11
