REMARK  Name = ZINC23191598
REMARK  10 active torsions:
REMARK  status: ('A' for Active; 'I' for Inactive)
REMARK    1  A    between atoms: C_1  and  C_2
REMARK    2  A    between atoms: C_2  and  C_3
REMARK    3  A    between atoms: C_3  and  N_4
REMARK    4  A    between atoms: C_7  and  C_9
REMARK    5  A    between atoms: C_18  and  N_22
REMARK    6  A    between atoms: N_22  and  C_23
REMARK    7  A    between atoms: C_23  and  C_24
REMARK    8  A    between atoms: C_24  and  C_25
REMARK    9  A    between atoms: C_24  and  C_26
REMARK   10  A    between atoms: C_24  and  N_27
REMARK                            x       y       z     vdW  Elec       q    Type
REMARK                         _______ _______ _______ _____ _____    ______ ____
ROOT
ATOM      1  N   UNL     1      -1.762  -2.762   0.859  0.00  0.00    -0.267 N 
ATOM      2  C   UNL     1      -1.959  -3.329  -0.342  0.00  0.00    +0.043 A 
ATOM      3  C   UNL     1      -2.328  -4.615  -0.123  0.00  0.00    +0.004 A 
ATOM      4  C   UNL     1      -2.342  -4.781   1.272  0.00  0.00    +0.151 A 
ATOM      5  N   UNL     1      -1.983  -3.620   1.794  0.00  0.00    -0.166 NA
ATOM      6  C   UNL     1      -2.642  -5.611  -1.206  0.00  0.00    +0.023 C 
ATOM      7  C   UNL     1      -2.092  -5.069  -2.532  0.00  0.00    -0.067 C 
ATOM      8  C   UNL     1      -2.545  -3.619  -2.720  0.00  0.00    -0.009 C 
ATOM      9  C   UNL     1      -1.820  -2.717  -1.712  0.00  0.00    +0.054 C 
ENDROOT
BRANCH   4  10
ATOM     10  C   UNL     1      -2.684  -6.013   2.011  0.00  0.00    +0.267 C 
ATOM     11  O   UNL     1      -2.885  -7.048   1.407  0.00  0.00    -0.268 OA
ATOM     12  N   UNL     1      -2.775  -5.989   3.356  0.00  0.00    -0.296 N 
ATOM     13  C   UNL     1      -2.690  -4.718   4.089  0.00  0.00    +0.108 C 
ATOM     14  C   UNL     1      -3.917  -4.592   4.999  0.00  0.00    +0.019 C 
ATOM     15  C   UNL     1      -4.012  -5.829   5.894  0.00  0.00    +0.003 C 
ATOM     16  C   UNL     1      -4.182  -7.078   5.025  0.00  0.00    +0.019 C 
ATOM     17  C   UNL     1      -2.965  -7.232   4.116  0.00  0.00    +0.108 C 
ENDBRANCH   4  10
BRANCH   7  18
ATOM     18  N   UNL     1      -2.597  -5.887  -3.643  0.00  0.00    +0.382 N 
ATOM     19  H   UNL     1      -2.368  -6.856  -3.478  0.00  0.00    -0.085 HD
ATOM     20  H   UNL     1      -3.599  -5.784  -3.707  0.00  0.00    -0.085 HD
BRANCH  18  21
ATOM     21  C   UNL     1      -1.977  -5.445  -4.899  0.00  0.00    -0.060 C 
BRANCH  21  22
ATOM     22  C   UNL     1      -2.398  -6.382  -6.033  0.00  0.00    +0.001 C 
ATOM     23  C   UNL     1      -3.899  -6.233  -6.287  0.00  0.00    +0.025 C 
ATOM     24  C   UNL     1      -1.627  -6.021  -7.304  0.00  0.00    +0.025 C 
BRANCH  22  25
ATOM     25  N   UNL     1      -2.100  -7.770  -5.657  0.00  0.00    -0.295 NA
ATOM     26  C   UNL     1      -0.657  -7.963  -5.453  0.00  0.00    +0.113 C 
ATOM     27  C   UNL     1      -0.399  -9.404  -5.005  0.00  0.00    +0.175 C 
ATOM     28  O   UNL     1      -0.933 -10.304  -5.980  0.00  0.00    -0.377 OA
ATOM     29  C   UNL     1      -2.336 -10.144  -6.203  0.00  0.00    +0.175 C 
ATOM     30  C   UNL     1      -2.615  -8.710  -6.663  0.00  0.00    +0.113 C 
ENDBRANCH  22  25
ENDBRANCH  21  22
ENDBRANCH  18  21
ENDBRANCH   7  18
BRANCH   1  31
ATOM     31  C   UNL     1      -1.349  -1.373   1.074  0.00  0.00    +0.143 C 
BRANCH  31  33
ATOM     32  C   UNL     1       0.609   0.157   1.331  0.00  0.00    +0.005 C 
ATOM     33  C   UNL     1       0.178  -1.294   1.106  0.00  0.00    +0.020 C 
ENDBRANCH  31  33
ENDBRANCH   1  31
TORSDOF 7
