REMARK  Name = ZINC12404033
REMARK  7 active torsions:
REMARK  status: ('A' for Active; 'I' for Inactive)
REMARK    1  A    between atoms: C_4  and  C_27
REMARK    2  A    between atoms: C_6  and  C_9
REMARK    3  A    between atoms: N_11  and  C_12
REMARK    4  A    between atoms: C_12  and  C_13
REMARK    5  A    between atoms: C_13  and  N_14
REMARK    6  A    between atoms: C_15  and  C_17
REMARK    7  A    between atoms: C_23  and  C_25
REMARK                            x       y       z     vdW  Elec       q    Type
REMARK                         _______ _______ _______ _____ _____    ______ ____
ROOT
ATOM      1  C   UNL     1       4.142   1.390   2.610  0.00  0.00    +0.123 C 
ENDROOT
BRANCH   1   4
ATOM      2  C   UNL     1       2.146   1.533   1.220  0.00  0.00    +0.217 C 
ATOM      3  O   UNL     1       1.574   0.824   2.020  0.00  0.00    -0.275 OA
ATOM      4  N   UNL     1       3.434   1.875   1.423  0.00  0.00    -0.314 N 
ATOM      5  H   UNL     1       3.891   2.443   0.783  0.00  0.00    +0.149 HD
BRANCH   2  10
ATOM      6  C   UNL     1       0.680   4.056   1.267  0.00  0.00    +0.001 C 
ATOM      7  C   UNL     1      -0.755   3.526   1.278  0.00  0.00    +0.001 C 
ATOM      8  C   UNL     1      -0.735   1.996   1.269  0.00  0.00    +0.015 C 
ATOM      9  C   UNL     1      -0.018   1.503   0.010  0.00  0.00    +0.114 C 
ATOM     10  C   UNL     1       1.417   2.032  -0.001  0.00  0.00    +0.089 C 
ATOM     11  C   UNL     1       1.396   3.562   0.008  0.00  0.00    +0.013 C 
BRANCH   9  12
ATOM     12  C   UNL     1       0.002  -0.004   0.002  0.00  0.00    +0.360 C 
ATOM     13  O   UNL     1       1.056  -0.594  -0.011  0.00  0.00    -0.246 OA
ATOM     14  O   UNL     1      -1.151  -0.691   0.009  0.00  0.00    -0.246 OA
ENDBRANCH   9  12
ENDBRANCH   2  10
ENDBRANCH   1   4
BRANCH   1  15
ATOM     15  C   UNL     1       5.578   1.919   2.599  0.00  0.00    +0.123 C 
BRANCH  15  16
ATOM     16  N   UNL     1       6.286   1.434   3.786  0.00  0.00    -0.314 N 
ATOM     17  C   UNL     1       7.574   1.776   3.989  0.00  0.00    +0.217 C 
ATOM     18  O   UNL     1       8.146   2.486   3.189  0.00  0.00    -0.275 OA
ATOM     19  H   UNL     1       5.829   0.867   4.426  0.00  0.00    +0.149 HD
BRANCH  17  20
ATOM     20  C   UNL     1       8.303   1.277   5.210  0.00  0.00    +0.089 C 
ATOM     21  C   UNL     1       8.324  -0.253   5.201  0.00  0.00    +0.013 C 
ATOM     22  C   UNL     1       9.040  -0.746   3.943  0.00  0.00    +0.001 C 
ATOM     23  C   UNL     1      10.475  -0.217   3.932  0.00  0.00    +0.001 C 
ATOM     24  C   UNL     1      10.454   1.313   3.940  0.00  0.00    +0.015 C 
ATOM     25  C   UNL     1       9.738   1.806   5.199  0.00  0.00    +0.114 C 
BRANCH  25  26
ATOM     26  C   UNL     1       9.718   3.313   5.207  0.00  0.00    +0.360 C 
ATOM     27  O   UNL     1       8.663   3.903   5.220  0.00  0.00    -0.246 OA
ATOM     28  O   UNL     1      10.871   4.000   5.200  0.00  0.00    -0.246 OA
ENDBRANCH  25  26
ENDBRANCH  17  20
ENDBRANCH  15  16
ENDBRANCH   1  15
TORSDOF 7
