REMARK  Name = ZINC64031834
REMARK  10 active torsions:
REMARK  status: ('A' for Active; 'I' for Inactive)
REMARK    1  A    between atoms: C_1  and  O_2
REMARK    2  A    between atoms: O_2  and  C_3
REMARK    3  A    between atoms: C_6  and  C_9
REMARK    4  A    between atoms: C_9  and  N_10
REMARK    5  A    between atoms: N_10  and  C_11
REMARK    6  A    between atoms: C_11  and  C_12
REMARK    7  A    between atoms: C_12  and  C_13
REMARK    8  A    between atoms: C_16  and  O_22
REMARK    9  A    between atoms: O_22  and  C_23
REMARK   10  A    between atoms: N_26  and  C_27
REMARK                            x       y       z     vdW  Elec       q    Type
REMARK                         _______ _______ _______ _____ _____    ______ ____
ROOT
ATOM      1  N   UNL     1      -5.423  -2.855  -1.343  0.00  0.00    -0.281 N 
ATOM      2  C   UNL     1      -6.170  -1.927  -1.972  0.00  0.00    +0.303 C 
ATOM      3  O   UNL     1      -6.537  -2.114  -3.116  0.00  0.00    -0.253 OA
ATOM      4  N   UNL     1      -6.511  -0.790  -1.333  0.00  0.00    -0.294 N 
ATOM      5  H   UNL     1      -6.218  -0.640  -0.420  0.00  0.00    +0.151 HD
ENDROOT
BRANCH   4   6
ATOM      6  C   UNL     1      -7.324   0.220  -2.017  0.00  0.00    +0.037 C 
ATOM      7  C   UNL     1      -6.588   0.705  -3.267  0.00  0.00    +0.029 C 
ATOM      8  C   UNL     1      -7.436   1.759  -3.981  0.00  0.00    -0.008 C 
ATOM      9  C   UNL     1      -7.678   2.942  -3.041  0.00  0.00    +0.007 C 
ATOM     10  C   UNL     1      -8.414   2.456  -1.790  0.00  0.00    -0.008 C 
ATOM     11  C   UNL     1      -7.565   1.402  -1.076  0.00  0.00    +0.029 C 
ATOM     12  C   UNL     1      -9.756   1.843  -2.194  0.00  0.00    +0.007 C 
ATOM     13  C   UNL     1      -9.514   0.660  -3.134  0.00  0.00    -0.008 C 
ATOM     14  C   UNL     1      -8.778   1.146  -4.385  0.00  0.00    +0.007 C 
ATOM     15  C   UNL     1      -8.666  -0.394  -2.421  0.00  0.00    +0.029 C 
ENDBRANCH   4   6
BRANCH   1  16
ATOM     16  C   UNL     1      -4.981  -2.629   0.035  0.00  0.00    +0.144 C 
BRANCH  16  20
ATOM     17  C   UNL     1      -1.200  -0.637   0.010  0.00  0.00    +0.120 A 
ATOM     18  C   UNL     1      -2.375   0.101   0.019  0.00  0.00    +0.046 A 
ATOM     19  C   UNL     1      -3.596  -0.545   0.027  0.00  0.00    +0.009 A 
ATOM     20  C   UNL     1      -3.648  -1.927   0.026  0.00  0.00    -0.030 A 
ATOM     21  C   UNL     1      -2.479  -2.665   0.017  0.00  0.00    +0.009 A 
ATOM     22  C   UNL     1      -1.255  -2.024   0.003  0.00  0.00    +0.046 A 
BRANCH  17  24
ATOM     23  C   UNL     1      -0.017   1.425   0.010  0.00  0.00    +0.277 C 
ATOM     24  O   UNL     1       0.002  -0.004   0.002  0.00  0.00    -0.495 OA
ENDBRANCH  17  24
ENDBRANCH  16  20
ENDBRANCH   1  16
BRANCH   1  25
ATOM     25  C   UNL     1      -5.053  -4.091  -2.038  0.00  0.00    +0.114 C 
BRANCH  25  26
ATOM     26  C   UNL     1      -6.124  -5.155  -1.791  0.00  0.00    +0.052 C 
BRANCH  26  27
ATOM     27  C   UNL     1      -5.743  -6.426  -2.506  0.00  0.00    -0.040 C 
ATOM     28  C   UNL     1      -5.088  -7.488  -1.983  0.00  0.00    +0.002 A 
ATOM     29  C   UNL     1      -4.554  -7.768  -0.646  0.00  0.00    +0.055 A 
ATOM     30  C   UNL     1      -3.930  -8.947  -0.410  0.00  0.00    +0.121 A 
ATOM     31  C   UNL     1      -3.772  -9.925  -1.408  0.00  0.00    +0.047 A 
ATOM     32  C   UNL     1      -4.229  -9.759  -2.668  0.00  0.00    +0.029 A 
ATOM     33  C   UNL     1      -4.921  -8.519  -3.033  0.00  0.00    +0.043 A 
ATOM     34  N   UNL     1      -5.451  -8.111  -4.159  0.00  0.00    -0.380 N 
ATOM     35  C   UNL     1      -6.021  -6.775  -3.951  0.00  0.00    +0.144 C 
ATOM     36  H   UNL     1      -5.466  -8.610  -4.991  0.00  0.00    +0.160 HD
BRANCH  30  37
ATOM     37  O   UNL     1      -3.440  -9.193   0.833  0.00  0.00    -0.495 OA
ATOM     38  C   UNL     1      -2.789 -10.449   1.038  0.00  0.00    +0.277 C 
ENDBRANCH  30  37
ENDBRANCH  26  27
ENDBRANCH  25  26
ENDBRANCH   1  25
TORSDOF 8
