REMARK  Name = ZINC20703972
REMARK  5 active torsions:
REMARK  status: ('A' for Active; 'I' for Inactive)
REMARK    1  A    between atoms: C_4  and  N_7
REMARK    2  A    between atoms: N_7  and  S_8
REMARK    3  A    between atoms: S_8  and  C_11
REMARK    4  A    between atoms: C_24  and  C_27
REMARK    5  A    between atoms: C_31  and  N_33
REMARK                            x       y       z     vdW  Elec       q    Type
REMARK                         _______ _______ _______ _____ _____    ______ ____
ROOT
ATOM      1  C   UNL     1       2.854   2.561   0.548  0.00  0.00    +0.109 A 
ATOM      2  C   UNL     1       1.725   1.769   0.435  0.00  0.00    +0.030 A 
ATOM      3  C   UNL     1       0.476   2.349   0.358  0.00  0.00    +0.025 A 
ATOM      4  C   UNL     1       0.340   3.732   0.407  0.00  0.00    +0.031 A 
ATOM      5  C   UNL     1       1.487   4.527   0.511  0.00  0.00    -0.018 A 
ATOM      6  C   UNL     1       2.731   3.938   0.584  0.00  0.00    +0.034 A 
ATOM      7  C   UNL     1       1.301   5.994   0.526  0.00  0.00    +0.049 C 
ATOM      8  C   UNL     1       2.279   6.902   1.178  0.00  0.00    -0.023 C 
ATOM      9  C   UNL     1       1.629   7.962   1.643  0.00  0.00    -0.030 C 
ATOM     10  C   UNL     1       0.132   7.823   1.361  0.00  0.00    +0.033 C 
ATOM     11  C   UNL     1      -0.027   6.299   1.282  0.00  0.00    +0.029 C 
ATOM     12  C   UNL     1      -1.132   5.763   0.391  0.00  0.00    +0.105 C 
ATOM     13  N   UNL     1      -0.940   4.296   0.357  0.00  0.00    -0.336 N 
ATOM     14  H   UNL     1      -1.812   3.629   0.291  0.00  0.00    +0.147 HD
ENDROOT
BRANCH  12  15
ATOM     15  C   UNL     1      -1.006   6.337  -0.997  0.00  0.00    -0.025 A 
ATOM     16  C   UNL     1      -0.279   5.663  -1.960  0.00  0.00    +0.007 A 
ATOM     17  C   UNL     1      -0.163   6.189  -3.233  0.00  0.00    +0.022 A 
ATOM     18  C   UNL     1      -0.776   7.390  -3.543  0.00  0.00    +0.071 A 
ATOM     19  C   UNL     1      -1.504   8.064  -2.579  0.00  0.00    +0.145 A 
ATOM     20  C   UNL     1      -1.623   7.534  -1.308  0.00  0.00    +0.039 A 
ATOM     21 CL   UNL     1      -0.631   8.051  -5.142  0.00  0.00    -0.081 Cl
BRANCH  19  22
ATOM     22  N   UNL     1      -2.160   9.348  -2.910  0.00  0.00    +0.058 N 
ATOM     23  O   UNL     1      -2.801   9.941  -2.062  0.00  0.00    -0.126 OA
ATOM     24  O   UNL     1      -2.058   9.812  -4.032  0.00  0.00    -0.126 OA
ENDBRANCH  19  22
ENDBRANCH  12  15
BRANCH   1  25
ATOM     25  S   UNL     1       4.447   1.816   0.647  0.00  0.00    +0.072 S 
ATOM     26  O   UNL     1       5.323   2.799   1.181  0.00  0.00    -0.150 OA
ATOM     27  O   UNL     1       4.264   0.546   1.258  0.00  0.00    -0.150 OA
BRANCH  25  28
ATOM     28  N   UNL     1       4.949   1.527  -0.904  0.00  0.00    -0.216 N 
ATOM     29  H   UNL     1       5.121   0.495  -1.244  0.00  0.00    +0.174 HD
BRANCH  28  33
ATOM     30  C   UNL     1       5.565   4.707  -3.520  0.00  0.00    +0.000 A 
ATOM     31  C   UNL     1       6.473   4.463  -2.505  0.00  0.00    +0.002 A 
ATOM     32  C   UNL     1       6.271   3.409  -1.636  0.00  0.00    +0.024 A 
ATOM     33  C   UNL     1       5.156   2.594  -1.781  0.00  0.00    +0.048 A 
ATOM     34  C   UNL     1       4.249   2.839  -2.805  0.00  0.00    +0.024 A 
ATOM     35  C   UNL     1       4.454   3.898  -3.668  0.00  0.00    +0.002 A 
ENDBRANCH  28  33
ENDBRANCH  25  28
ENDBRANCH   1  25
TORSDOF 5
