REMARK  Name = ZINC24214560
REMARK  9 active torsions:
REMARK  status: ('A' for Active; 'I' for Inactive)
REMARK    1  A    between atoms: C_1  and  C_2
REMARK    2  A    between atoms: C_3  and  C_14
REMARK    3  A    between atoms: C_4  and  C_13
REMARK    4  A    between atoms: N_5  and  C_7
REMARK    5  A    between atoms: N_21  and  C_22
REMARK    6  A    between atoms: C_22  and  C_23
REMARK    7  A    between atoms: N_25  and  C_26
REMARK    8  A    between atoms: C_31  and  O_32
REMARK    9  A    between atoms: O_32  and  C_33
REMARK                            x       y       z     vdW  Elec       q    Type
REMARK                         _______ _______ _______ _____ _____    ______ ____
ROOT
ATOM      1  C   UNL     1       1.260   1.845  -0.304  0.00  0.00    +0.054 C 
ATOM      2  C   UNL     1      -0.169   1.471  -0.025  0.00  0.00    +0.204 C 
ATOM      3  O   UNL     1      -0.519   0.327  -0.220  0.00  0.00    -0.277 OA
ATOM      4  N   UNL     1      -1.071   2.350   0.425  0.00  0.00    -0.318 N 
ATOM      5  C   UNL     1      -0.742   3.739   0.731  0.00  0.00    +0.085 C 
ATOM      6  C   UNL     1       0.570   4.128   0.047  0.00  0.00    -0.058 C 
ATOM      7  N   UNL     1       1.587   3.112   0.362  0.00  0.00    +0.397 N 
ATOM      8  H   UNL     1      -2.100   1.985   0.562  0.00  0.00    +0.149 HD
ATOM      9  H   UNL     1       1.589   2.943   1.449  0.00  0.00    -0.079 HD
ENDROOT
BRANCH   1  12
ATOM     10  C   UNL     1       1.985   1.308   2.734  0.00  0.00    +0.068 C 
ATOM     11  C   UNL     1       2.491   0.521   1.552  0.00  0.00    +0.063 A 
ATOM     12  C   UNL     1       2.170   0.759   0.211  0.00  0.00    -0.009 A 
ATOM     13  C   UNL     1       2.817  -0.160  -0.542  0.00  0.00    +0.044 A 
ATOM     14  N   UNL     1       3.530  -0.949   0.294  0.00  0.00    -0.237 N 
ATOM     15  N   UNL     1       3.305  -0.502   1.603  0.00  0.00    -0.171 NA
ATOM     16  C   UNL     1       2.757  -0.282  -2.043  0.00  0.00    +0.066 C 
BRANCH  14  17
ATOM     17  C   UNL     1       4.344  -2.026  -0.081  0.00  0.00    +0.066 A 
ATOM     18  C   UNL     1       4.386  -3.172   0.702  0.00  0.00    +0.028 A 
ATOM     19  C   UNL     1       5.187  -4.233   0.327  0.00  0.00    +0.002 A 
ATOM     20  C   UNL     1       5.953  -4.152  -0.821  0.00  0.00    +0.000 A 
ATOM     21  C   UNL     1       5.917  -3.010  -1.600  0.00  0.00    +0.002 A 
ATOM     22  C   UNL     1       5.115  -1.947  -1.233  0.00  0.00    +0.028 A 
ENDBRANCH  14  17
ENDBRANCH   1  12
BRANCH   7  23
ATOM     23  C   UNL     1       2.929   3.575  -0.016  0.00  0.00    +0.020 C 
BRANCH  23  24
ATOM     24  C   UNL     1       2.948   3.912  -1.485  0.00  0.00    +0.201 C 
ATOM     25  O   UNL     1       1.972   3.691  -2.171  0.00  0.00    -0.278 OA
ATOM     26  N   UNL     1       4.049   4.460  -2.037  0.00  0.00    -0.284 N 
ATOM     27  H   UNL     1       4.955   4.601  -1.430  0.00  0.00    +0.155 HD
BRANCH  26  28
ATOM     28  C   UNL     1       4.039   4.848  -3.383  0.00  0.00    +0.076 A 
ATOM     29  C   UNL     1       3.194   4.215  -4.283  0.00  0.00    +0.027 A 
ATOM     30  C   UNL     1       3.186   4.600  -5.610  0.00  0.00    +0.002 A 
ATOM     31  C   UNL     1       4.019   5.614  -6.045  0.00  0.00    +0.004 A 
ATOM     32  C   UNL     1       4.864   6.249  -5.154  0.00  0.00    +0.048 A 
ATOM     33  C   UNL     1       4.875   5.873  -3.820  0.00  0.00    +0.150 A 
BRANCH  33  34
ATOM     34  O   UNL     1       5.702   6.500  -2.942  0.00  0.00    -0.454 OA
BRANCH  34  35
ATOM     35  C   UNL     1       6.915   5.939  -2.696  0.00  0.00    +0.129 A 
ATOM     36  C   UNL     1       7.320   4.820  -3.410  0.00  0.00    +0.046 A 
ATOM     37  C   UNL     1       8.556   4.255  -3.162  0.00  0.00    +0.004 A 
ATOM     38  C   UNL     1       9.384   4.796  -2.196  0.00  0.00    +0.000 A 
ATOM     39  C   UNL     1       8.980   5.908  -1.480  0.00  0.00    +0.004 A 
ATOM     40  C   UNL     1       7.748   6.480  -1.728  0.00  0.00    +0.046 A 
ENDBRANCH  34  35
ENDBRANCH  33  34
ENDBRANCH  26  28
ENDBRANCH  23  24
ENDBRANCH   7  23
TORSDOF 7
