REMARK  Name = ZINC10131083
REMARK  12 active torsions:
REMARK  status: ('A' for Active; 'I' for Inactive)
REMARK    1  A    between atoms: C_1  and  C_2
REMARK    2  A    between atoms: C_2  and  O_3
REMARK    3  A    between atoms: O_3  and  C_4
REMARK    4  A    between atoms: C_4  and  C_6
REMARK    5  A    between atoms: C_7  and  C_32
REMARK    6  A    between atoms: C_8  and  C_30
REMARK    7  A    between atoms: C_9  and  N_11
REMARK    8  A    between atoms: C_12  and  C_14
REMARK    9  A    between atoms: C_17  and  S_20
REMARK   10  A    between atoms: S_20  and  N_23
REMARK   11  A    between atoms: N_23  and  C_24
REMARK   12  A    between atoms: N_23  and  C_25
REMARK                            x       y       z     vdW  Elec       q    Type
REMARK                         _______ _______ _______ _____ _____    ______ ____
ROOT
ATOM      1  N   UNL     1      -2.512   1.631   0.022  0.00  0.00    -0.275 N 
ATOM      2  C   UNL     1      -3.563   2.475   0.032  0.00  0.00    +0.249 C 
ATOM      3  O   UNL     1      -3.378   3.676   0.038  0.00  0.00    -0.270 OA
ATOM      4  H   UNL     1      -2.659   0.673   0.017  0.00  0.00    +0.156 HD
ENDROOT
BRANCH   1   8
ATOM      5  C   UNL     1       1.052   3.535   0.011  0.00  0.00    +0.102 A 
ATOM      6  C   UNL     1       1.159   2.158   0.003  0.00  0.00    -0.010 A 
ATOM      7  C   UNL     1      -0.017   1.428   0.010  0.00  0.00    +0.084 A 
ATOM      8  C   UNL     1      -1.224   2.132   0.019  0.00  0.00    +0.091 A 
ATOM      9  S   UNL     1      -0.712   3.788   0.029  0.00  0.00    -0.065 S 
ATOM     10  C   UNL     1       2.503   1.477  -0.013  0.00  0.00    +0.046 C 
BRANCH   5  11
ATOM     11  C   UNL     1       2.119   4.534   0.006  0.00  0.00    +0.346 C 
ATOM     12  O   UNL     1       3.283   4.181  -0.008  0.00  0.00    -0.244 OA
BRANCH  11  13
ATOM     13  O   UNL     1       1.812   5.848   0.016  0.00  0.00    -0.461 OA
BRANCH  13  15
ATOM     14  C   UNL     1       2.365   8.201   0.023  0.00  0.00    +0.048 C 
ATOM     15  C   UNL     1       2.905   6.769   0.010  0.00  0.00    +0.229 C 
ENDBRANCH  13  15
ENDBRANCH  11  13
ENDBRANCH   5  11
BRANCH   7  16
ATOM     16  C   UNL     1       0.002  -0.004   0.002  0.00  0.00    +0.102 C 
ATOM     17  N   UNL     1       0.018  -1.140  -0.004  0.00  0.00    -0.191 NA
ENDBRANCH   7  16
ENDBRANCH   1   8
BRANCH   2  18
ATOM     18  C   UNL     1      -4.940   1.939   0.034  0.00  0.00    +0.037 A 
ATOM     19  C   UNL     1      -5.156   0.559   0.021  0.00  0.00    +0.015 A 
ATOM     20  C   UNL     1      -6.444   0.066   0.030  0.00  0.00    +0.029 A 
ATOM     21  C   UNL     1      -7.521   0.934   0.040  0.00  0.00    +0.106 A 
ATOM     22  C   UNL     1      -7.314   2.302   0.047  0.00  0.00    +0.029 A 
ATOM     23  C   UNL     1      -6.031   2.809   0.044  0.00  0.00    +0.015 A 
BRANCH  21  24
ATOM     24  S   UNL     1      -9.163   0.295   0.044  0.00  0.00    +0.061 S 
ATOM     25  O   UNL     1      -9.087  -1.016   0.587  0.00  0.00    -0.153 OA
ATOM     26  O   UNL     1      -9.990   1.305   0.604  0.00  0.00    -0.153 OA
BRANCH  24  27
ATOM     27  N   UNL     1      -9.626   0.126  -1.537  0.00  0.00    -0.177 NA
ATOM     28  C   UNL     1     -10.291   1.234  -2.227  0.00  0.00    +0.132 C 
BRANCH  27  29
ATOM     29  C   UNL     1      -9.371  -1.131  -2.245  0.00  0.00    +0.080 C 
ATOM     30  C   UNL     1      -8.530  -0.863  -3.510  0.00  0.00    +0.020 C 
ATOM     31  C   UNL     1      -9.098  -1.850  -4.560  0.00  0.00    +0.002 C 
ATOM     32  C   UNL     1     -10.617  -1.831  -4.260  0.00  0.00    +0.002 C 
ATOM     33  C   UNL     1     -10.698  -1.746  -2.722  0.00  0.00    +0.020 C 
ENDBRANCH  27  29
ENDBRANCH  24  27
ENDBRANCH  21  24
ENDBRANCH   2  18
TORSDOF 9
