REMARK  Name = ZINC63440658
REMARK  9 active torsions:
REMARK  status: ('A' for Active; 'I' for Inactive)
REMARK    1  A    between atoms: C_1  and  C_2
REMARK    2  A    between atoms: C_2  and  O_3
REMARK    3  A    between atoms: O_3  and  C_4
REMARK    4  A    between atoms: C_4  and  C_6
REMARK    5  A    between atoms: C_8  and  N_18
REMARK    6  A    between atoms: C_11  and  O_16
REMARK    7  A    between atoms: O_16  and  C_17
REMARK    8  A    between atoms: N_18  and  C_19
REMARK    9  A    between atoms: C_19  and  N_21
REMARK                            x       y       z     vdW  Elec       q    Type
REMARK                         _______ _______ _______ _____ _____    ______ ____
ROOT
ATOM      1  C   UNL     1       1.443  -2.345  -2.519  0.00  0.00    +0.234 C 
ATOM      2  C   UNL     1       0.511  -2.348  -3.710  0.00  0.00    +0.052 C 
ATOM      3  C   UNL     1       0.374  -3.675  -4.078  0.00  0.00    +0.021 A 
ATOM      4  C   UNL     1      -0.361  -4.309  -5.109  0.00  0.00    +0.057 A 
ATOM      5  C   UNL     1      -0.309  -5.662  -5.239  0.00  0.00    +0.121 A 
ATOM      6  C   UNL     1       0.460  -6.452  -4.374  0.00  0.00    +0.047 A 
ATOM      7  C   UNL     1       1.187  -5.910  -3.367  0.00  0.00    +0.029 A 
ATOM      8  C   UNL     1       1.182  -4.505  -3.168  0.00  0.00    +0.045 A 
ATOM      9  N   UNL     1       1.795  -3.748  -2.277  0.00  0.00    -0.367 N 
ATOM     10  H   UNL     1       2.383  -4.067  -1.574  0.00  0.00    +0.161 HD
ENDROOT
BRANCH   1  11
ATOM     11  C   UNL     1       0.745  -1.769  -1.314  0.00  0.00    +0.336 C 
ATOM     12  O   UNL     1       0.271  -2.506  -0.481  0.00  0.00    -0.248 OA
BRANCH  11  13
ATOM     13  O   UNL     1       0.649  -0.439  -1.166  0.00  0.00    -0.463 OA
BRANCH  13  15
ATOM     14  C   UNL     1      -0.035   1.567  -0.005  0.00  0.00    +0.048 C 
ATOM     15  C   UNL     1      -0.026   0.037   0.000  0.00  0.00    +0.229 C 
ENDBRANCH  13  15
ENDBRANCH  11  13
ENDBRANCH   1  11
BRANCH   5  16
ATOM     16  O   UNL     1      -1.019  -6.262  -6.232  0.00  0.00    -0.495 OA
ATOM     17  C   UNL     1      -0.930  -7.685  -6.325  0.00  0.00    +0.277 C 
ENDBRANCH   5  16
BRANCH   2  18
ATOM     18  N   UNL     1      -0.074  -1.268  -4.298  0.00  0.00    -0.297 N 
ATOM     19  H   UNL     1       0.040  -0.385  -3.913  0.00  0.00    +0.154 HD
BRANCH  18  20
ATOM     20  C   UNL     1      -0.811  -1.425  -5.415  0.00  0.00    +0.137 C 
ATOM     21  S   UNL     1      -0.139  -1.052  -6.944  0.00  0.00    -0.018 S 
BRANCH  20  22
ATOM     22  N   UNL     1      -2.078  -1.877  -5.328  0.00  0.00    -0.309 N 
ATOM     23  C   UNL     1      -2.708  -2.090  -4.018  0.00  0.00    +0.125 C 
ATOM     24  C   UNL     1      -4.015  -1.288  -3.966  0.00  0.00    +0.125 C 
ATOM     25  N   UNL     1      -4.791  -1.577  -5.181  0.00  0.00    -0.314 N 
ATOM     26  C   UNL     1      -4.161  -1.365  -6.491  0.00  0.00    +0.125 C 
ATOM     27  C   UNL     1      -2.856  -2.161  -6.542  0.00  0.00    +0.125 C 
ATOM     28  C   UNL     1      -6.098  -2.043  -5.091  0.00  0.00    +0.099 A 
ATOM     29  C   UNL     1      -6.640  -2.339  -3.844  0.00  0.00    +0.042 A 
ATOM     30  C   UNL     1      -7.941  -2.802  -3.770  0.00  0.00    +0.005 A 
ATOM     31  C   UNL     1      -8.659  -2.954  -4.949  0.00  0.00    +0.018 A 
ATOM     32  C   UNL     1      -8.058  -2.640  -6.151  0.00  0.00    +0.084 A 
ATOM     33  N   UNL     1      -6.817  -2.196  -6.192  0.00  0.00    -0.350 N 
ATOM     34  H   UNL     1      -6.420  -1.979  -7.050  0.00  0.00    +0.166 HD
ENDBRANCH  20  22
ENDBRANCH  18  20
ENDBRANCH   2  18
TORSDOF 7
