REMARK  Name = ZINC19527229
REMARK  7 active torsions:
REMARK  status: ('A' for Active; 'I' for Inactive)
REMARK    1  A    between atoms: C_1  and  C_2
REMARK    2  A    between atoms: C_2  and  N_3
REMARK    3  A    between atoms: C_7  and  C_9
REMARK    4  A    between atoms: C_9  and  N_10
REMARK    5  A    between atoms: C_11  and  C_13
REMARK    6  A    between atoms: C_13  and  N_14
REMARK    7  A    between atoms: C_23  and  C_25
REMARK                            x       y       z     vdW  Elec       q    Type
REMARK                         _______ _______ _______ _____ _____    ______ ____
ROOT
ATOM      1  N   UNL     1       1.190   2.335   1.046  0.00  0.00    -0.179 N 
ATOM      2  C   UNL     1      -0.095   2.002   0.888  0.00  0.00    +0.283 C 
ATOM      3  O   UNL     1      -0.377   0.882   0.502  0.00  0.00    -0.267 OA
ATOM      4  C   UNL     1      -1.171   2.956   1.161  0.00  0.00    +0.108 A 
ATOM      5  C   UNL     1      -2.371   3.075   0.507  0.00  0.00    +0.048 A 
ATOM      6  C   UNL     1      -3.087   4.082   1.136  0.00  0.00    +0.038 A 
ATOM      7  C   UNL     1      -2.328   4.604   2.192  0.00  0.00    +0.057 A 
ATOM      8  N   UNL     1      -1.131   3.900   2.174  0.00  0.00    -0.330 N 
ATOM      9  C   UNL     1       0.019   4.117   3.058  0.00  0.00    +0.180 C 
ATOM     10  C   UNL     1       1.217   4.430   2.195  0.00  0.00    +0.086 C 
ATOM     11  N   UNL     1       1.672   3.593   1.334  0.00  0.00    -0.179 NA
ATOM     12  C   UNL     1      -2.935   5.629   2.930  0.00  0.00    +0.034 A 
ATOM     13  C   UNL     1      -4.173   6.057   2.605  0.00  0.00    +0.048 A 
ATOM     14  S   UNL     1      -4.588   5.027   1.208  0.00  0.00    -0.095 S 
ENDROOT
BRANCH  10  15
ATOM     15  C   UNL     1       1.884   5.737   2.344  0.00  0.00    -0.000 A 
ATOM     16  C   UNL     1       3.078   5.996   1.667  0.00  0.00    +0.010 A 
ATOM     17  C   UNL     1       3.693   7.223   1.807  0.00  0.00    +0.001 A 
ATOM     18  C   UNL     1       3.137   8.191   2.624  0.00  0.00    +0.000 A 
ATOM     19  C   UNL     1       1.957   7.939   3.302  0.00  0.00    +0.001 A 
ATOM     20  C   UNL     1       1.327   6.719   3.167  0.00  0.00    +0.010 A 
ENDBRANCH  10  15
BRANCH   1  21
ATOM     21  C   UNL     1       2.176   1.262   0.901  0.00  0.00    +0.231 C 
BRANCH  21  23
ATOM     22  N   UNL     1       3.524   0.250  -0.910  0.00  0.00    -0.315 N 
ATOM     23  C   UNL     1       2.614   1.172  -0.538  0.00  0.00    +0.232 C 
ATOM     24  O   UNL     1       2.148   1.931  -1.362  0.00  0.00    -0.274 OA
ATOM     25  H   UNL     1       3.947  -0.438  -0.163  0.00  0.00    +0.149 HD
BRANCH  22  26
ATOM     26  C   UNL     1       3.949   0.163  -2.309  0.00  0.00    +0.089 C 
BRANCH  26  31
ATOM     27  N   UNL     1       6.269  -0.366  -1.648  0.00  0.00    +0.382 N 
ATOM     28  C   UNL     1       7.498  -0.708  -2.387  0.00  0.00    -0.078 C 
ATOM     29  C   UNL     1       7.066  -1.396  -3.699  0.00  0.00    -0.020 C 
ATOM     30  C   UNL     1       5.610  -0.896  -3.893  0.00  0.00    -0.016 C 
ATOM     31  C   UNL     1       5.105  -0.832  -2.430  0.00  0.00    -0.051 C 
ATOM     32  H   UNL     1       6.213   0.723  -1.508  0.00  0.00    -0.081 HD
BRANCH  27  34
ATOM     33  C   UNL     1       7.546  -0.540   0.435  0.00  0.00    -0.017 C 
ATOM     34  C   UNL     1       6.278  -0.967  -0.307  0.00  0.00    -0.082 C 
ENDBRANCH  27  34
ENDBRANCH  26  31
ENDBRANCH  22  26
ENDBRANCH  21  23
ENDBRANCH   1  21
TORSDOF 6
