REMARK  Name = ZINC52839257
REMARK  4 active torsions:
REMARK  status: ('A' for Active; 'I' for Inactive)
REMARK    1  A    between atoms: C_4  and  C_7
REMARK    2  A    between atoms: C_9  and  C_14
REMARK    3  A    between atoms: C_10  and  N_13
REMARK    4  A    between atoms: N_11  and  N_12
REMARK                            x       y       z     vdW  Elec       q    Type
REMARK                         _______ _______ _______ _____ _____    ______ ____
ROOT
ATOM      1  C   UNL     1       3.689  -0.700  -0.113  0.00  0.00    +0.160 A 
ATOM      2  N   UNL     1       4.849  -0.191  -0.452  0.00  0.00    -0.224 NA
ATOM      3  C   UNL     1       5.815  -1.107  -0.249  0.00  0.00    +0.115 A 
ATOM      4  C   UNL     1       5.217  -2.249   0.245  0.00  0.00    +0.142 A 
ATOM      5  N   UNL     1       3.878  -1.982   0.333  0.00  0.00    -0.234 N 
ENDROOT
BRANCH   3   6
ATOM      6  C   UNL     1       7.261  -0.922  -0.509  0.00  0.00    +0.040 A 
ATOM      7  C   UNL     1       7.979  -1.898  -1.200  0.00  0.00    +0.028 A 
ATOM      8  C   UNL     1       9.327  -1.720  -1.439  0.00  0.00    +0.019 A 
ATOM      9  C   UNL     1       9.967  -0.575  -0.996  0.00  0.00    +0.018 A 
ATOM     10  C   UNL     1       9.262   0.397  -0.310  0.00  0.00    +0.040 A 
ATOM     11  C   UNL     1       7.911   0.233  -0.069  0.00  0.00    +0.133 A 
ATOM     12  F   UNL     1       7.222   1.186   0.596  0.00  0.00    -0.205 F 
ATOM     13 BR   UNL     1      10.301  -3.043  -2.375  0.00  0.00    -0.050 Br
ENDBRANCH   3   6
BRANCH   1  17
ATOM     14  C   UNL     1      -0.048   1.307  -0.342  0.00  0.00    +0.000 A 
ATOM     15  C   UNL     1       1.129   2.029  -0.434  0.00  0.00    +0.001 A 
ATOM     16  C   UNL     1       2.346   1.384  -0.360  0.00  0.00    +0.011 A 
ATOM     17  C   UNL     1       2.389  -0.002  -0.192  0.00  0.00    +0.019 A 
ATOM     18  C   UNL     1       1.198  -0.724  -0.101  0.00  0.00    +0.011 A 
ATOM     19  C   UNL     1      -0.012  -0.066  -0.176  0.00  0.00    +0.001 A 
ENDBRANCH   1  17
BRANCH   5  20
ATOM     20  N   UNL     1       2.909  -2.836   0.778  0.00  0.00    -0.295 N 
ATOM     21  H   UNL     1       2.533  -3.385   0.019  0.00  0.00    +0.163 HD
ATOM     22  H   UNL     1       3.262  -3.431   1.514  0.00  0.00    +0.163 HD
ENDBRANCH   5  20
BRANCH   4  23
ATOM     23  N   UNL     1       5.851  -3.435   0.590  0.00  0.00    -0.342 N 
ATOM     24  H   UNL     1       6.819  -3.489   0.573  0.00  0.00    +0.144 HD
ATOM     25  H   UNL     1       5.326  -4.208   0.848  0.00  0.00    +0.144 HD
ENDBRANCH   4  23
TORSDOF 4
