REMARK  Name = ZINC65181569
REMARK  8 active torsions:
REMARK  status: ('A' for Active; 'I' for Inactive)
REMARK    1  A    between atoms: C_1  and  N_2
REMARK    2  A    between atoms: N_2  and  C_3
REMARK    3  A    between atoms: C_3  and  C_4
REMARK    4  A    between atoms: C_4  and  C_5
REMARK    5  A    between atoms: C_8  and  C_11
REMARK    6  A    between atoms: C_21  and  C_23
REMARK    7  A    between atoms: C_23  and  O_24
REMARK    8  A    between atoms: O_24  and  C_25
REMARK                            x       y       z     vdW  Elec       q    Type
REMARK                         _______ _______ _______ _____ _____    ______ ____
ROOT
ATOM      1  C   UNL     1      -1.388  -1.781   3.021  0.00  0.00    +0.139 C 
ATOM      2  N   UNL     1      -0.316  -2.126   3.637  0.00  0.00    -0.072 NA
ATOM      3  O   UNL     1      -0.619  -2.826   4.830  0.00  0.00    -0.367 OA
ATOM      4  C   UNL     1      -2.052  -2.891   4.907  0.00  0.00    +0.318 C 
ATOM      5  N   UNL     1      -2.513  -2.187   3.700  0.00  0.00    -0.291 N 
ATOM      6  H   UNL     1      -3.434  -2.038   3.434  0.00  0.00    +0.151 HD
ENDROOT
BRANCH   4   7
ATOM      7  C   UNL     1      -2.522  -4.347   4.898  0.00  0.00    +0.165 C 
ATOM      8  C   UNL     1      -4.030  -4.408   5.004  0.00  0.00    +0.012 C 
ATOM      9  C   UNL     1      -4.299  -5.087   6.142  0.00  0.00    -0.004 A 
ATOM     10  C   UNL     1      -5.555  -5.475   6.795  0.00  0.00    +0.010 A 
ATOM     11  C   UNL     1      -5.504  -6.168   7.956  0.00  0.00    +0.001 A 
ATOM     12  C   UNL     1      -4.284  -6.524   8.549  0.00  0.00    +0.002 A 
ATOM     13  C   UNL     1      -3.090  -6.203   8.008  0.00  0.00    +0.026 A 
ATOM     14  C   UNL     1      -3.025  -5.475   6.788  0.00  0.00    +0.043 A 
ATOM     15  N   UNL     1      -2.006  -5.052   6.077  0.00  0.00    -0.373 N 
ATOM     16  H   UNL     1      -1.070  -5.184   6.293  0.00  0.00    +0.160 HD
ENDBRANCH   4   7
BRANCH   1  17
ATOM     17  C   UNL     1      -1.411  -1.020   1.720  0.00  0.00    +0.094 C 
BRANCH  17  18
ATOM     18  C   UNL     1       0.024  -0.743   1.267  0.00  0.00    +0.115 C 
BRANCH  18  20
ATOM     19  C   UNL     1      -0.018   1.461   0.010  0.00  0.00    +0.132 C 
ATOM     20  N   UNL     1       0.002  -0.004   0.002  0.00  0.00    -0.301 N 
ATOM     21  C   UNL     1       0.000  -0.672  -1.169  0.00  0.00    +0.253 C 
ATOM     22  O   UNL     1       0.017  -1.884  -1.175  0.00  0.00    -0.272 OA
BRANCH  21  23
ATOM     23  C   UNL     1      -0.023   0.089  -2.470  0.00  0.00    +0.324 C 
BRANCH  23  24
ATOM     24  O   UNL     1      -0.020  -0.834  -3.561  0.00  0.00    -0.483 OA
BRANCH  24  25
ATOM     25  C   UNL     1      -0.039  -0.308  -4.814  0.00  0.00    +0.121 A 
ATOM     26  C   UNL     1      -0.054   1.068  -4.989  0.00  0.00    +0.047 A 
ATOM     27  C   UNL     1      -0.073   1.601  -6.264  0.00  0.00    +0.023 A 
ATOM     28  C   UNL     1      -0.079   0.763  -7.365  0.00  0.00    +0.041 A 
ATOM     29  C   UNL     1      -0.065  -0.609  -7.192  0.00  0.00    +0.023 A 
ATOM     30  C   UNL     1      -0.038  -1.146  -5.919  0.00  0.00    +0.047 A 
ATOM     31 CL   UNL     1      -0.104   1.436  -8.965  0.00  0.00    -0.084 Cl
ENDBRANCH  24  25
ENDBRANCH  23  24
ENDBRANCH  21  23
ENDBRANCH  18  20
ENDBRANCH  17  18
ENDBRANCH   1  17
TORSDOF 7
