REMARK  Name = ZINC33803746
REMARK  6 active torsions:
REMARK  status: ('A' for Active; 'I' for Inactive)
REMARK    1  A    between atoms: C_1  and  C_2
REMARK    2  A    between atoms: C_7  and  N_29
REMARK    3  A    between atoms: C_8  and  C_13
REMARK    4  A    between atoms: N_17  and  C_21
REMARK    5  A    between atoms: C_21  and  C_22
REMARK    6  A    between atoms: N_29  and  C_30
REMARK                            x       y       z     vdW  Elec       q    Type
REMARK                         _______ _______ _______ _____ _____    ______ ____
ROOT
ATOM      1  C   UNL     1       2.256  -9.116  -8.208  0.00  0.00    +0.045 C 
ATOM      2  C   UNL     1       2.167  -7.831  -7.425  0.00  0.00    -0.034 A 
ATOM      3  C   UNL     1       2.354  -6.602  -8.072  0.00  0.00    +0.008 A 
ATOM      4  C   UNL     1       2.273  -5.445  -7.356  0.00  0.00    +0.047 A 
ATOM      5  C   UNL     1       2.002  -5.501  -5.977  0.00  0.00    +0.142 A 
ATOM      6  N   UNL     1       1.919  -4.364  -5.285  0.00  0.00    -0.214 NA
ATOM      7  C   UNL     1       1.672  -4.358  -3.983  0.00  0.00    +0.134 A 
ATOM      8  C   UNL     1       1.480  -5.585  -3.305  0.00  0.00    +0.081 A 
ATOM      9  C   UNL     1       1.565  -6.785  -4.050  0.00  0.00    +0.267 A 
ATOM     10  O   UNL     1       1.406  -7.864  -3.506  0.00  0.00    -0.267 OA
ATOM     11  N   UNL     1       1.825  -6.715  -5.373  0.00  0.00    -0.267 N 
ATOM     12  C   UNL     1       1.908  -7.866  -6.098  0.00  0.00    +0.099 A 
ENDROOT
BRANCH   8  13
ATOM     13  C   UNL     1       1.209  -5.610  -1.917  0.00  0.00    +0.037 C 
ATOM     14  C   UNL     1      -0.015  -6.017  -1.468  0.00  0.00    +0.077 C 
ATOM     15  C   UNL     1      -1.191  -6.334  -2.205  0.00  0.00    +0.259 C 
ATOM     16  O   UNL     1      -1.206  -6.262  -3.421  0.00  0.00    -0.269 OA
ATOM     17  N   UNL     1      -2.264  -6.713  -1.533  0.00  0.00    -0.251 N 
ATOM     18  C   UNL     1      -2.249  -6.785  -0.184  0.00  0.00    +0.121 C 
ATOM     19  S   UNL     1      -3.511  -7.239   0.881  0.00  0.00    -0.027 S 
ATOM     20  S   UNL     1      -0.578  -6.288   0.207  0.00  0.00    -0.061 S 
BRANCH  17  21
ATOM     21  C   UNL     1      -3.489  -7.052  -2.261  0.00  0.00    +0.151 C 
BRANCH  21  22
ATOM     22  C   UNL     1      -4.161  -5.787  -2.731  0.00  0.00    -0.011 A 
ATOM     23  C   UNL     1      -3.911  -5.303  -4.002  0.00  0.00    +0.006 A 
ATOM     24  C   UNL     1      -4.527  -4.143  -4.433  0.00  0.00    +0.000 A 
ATOM     25  C   UNL     1      -5.394  -3.467  -3.594  0.00  0.00    +0.001 A 
ATOM     26  C   UNL     1      -5.645  -3.951  -2.324  0.00  0.00    +0.020 A 
ATOM     27  C   UNL     1      -5.032  -5.114  -1.894  0.00  0.00    +0.046 A 
ATOM     28 CL   UNL     1      -5.353  -5.727  -0.301  0.00  0.00    -0.083 Cl
ENDBRANCH  21  22
ENDBRANCH  17  21
ENDBRANCH   8  13
BRANCH   7  29
ATOM     29  N   UNL     1       1.598  -3.166  -3.297  0.00  0.00    -0.326 N 
ATOM     30  H   UNL     1       1.388  -3.166  -2.217  0.00  0.00    +0.148 HD
BRANCH  29  31
ATOM     31  C   UNL     1       1.798  -1.899  -4.005  0.00  0.00    +0.072 C 
ATOM     32  C   UNL     1       1.085  -0.775  -3.250  0.00  0.00    +0.022 C 
ATOM     33  C   UNL     1       1.294   0.548  -3.989  0.00  0.00    +0.002 C 
ATOM     34  C   UNL     1       2.791   0.856  -4.069  0.00  0.00    +0.000 C 
ATOM     35  C   UNL     1       3.503  -0.268  -4.824  0.00  0.00    +0.002 C 
ATOM     36  C   UNL     1       3.294  -1.591  -4.085  0.00  0.00    +0.022 C 
ENDBRANCH  29  31
ENDBRANCH   7  29
TORSDOF 5
