REMARK  Name = ZINC09496761
REMARK  6 active torsions:
REMARK  status: ('A' for Active; 'I' for Inactive)
REMARK    1  A    between atoms: C_1  and  C_2
REMARK    2  A    between atoms: C_2  and  C_3
REMARK    3  A    between atoms: C_3  and  N_58
REMARK    4  A    between atoms: C_13  and  C_15
REMARK    5  A    between atoms: C_20  and  O_21
REMARK    6  A    between atoms: O_21  and  C_22
REMARK                            x       y       z     vdW  Elec       q    Type
REMARK                         _______ _______ _______ _____ _____    ______ ____
ROOT
ATOM      1  C   UNL     1      -0.621   3.022   1.328  0.00  0.00    -0.073 C 
ATOM      2  C   UNL     1      -1.472   3.490   2.511  0.00  0.00    +0.052 C 
ATOM      3  C   UNL     1      -0.968   2.827   3.792  0.00  0.00    +0.189 C 
ATOM      4  C   UNL     1      -1.002   1.307   3.634  0.00  0.00    +0.052 C 
ATOM      5  C   UNL     1      -0.165   0.905   2.417  0.00  0.00    -0.073 C 
ATOM      6  N   UNL     1       0.399   3.268   4.081  0.00  0.00    -0.207 N 
ATOM      7  C   UNL     1       0.686   4.688   4.393  0.00  0.00    +0.136 C 
ATOM      8  C   UNL     1       2.083   4.620   5.024  0.00  0.00    +0.086 C 
ATOM      9  C   UNL     1       2.545   3.209   4.719  0.00  0.00    +0.072 C 
ATOM     10  N   UNL     1       1.572   2.543   4.188  0.00  0.00    -0.184 NA
ATOM     11  C   UNL     1      -0.361   5.126   5.384  0.00  0.00    +0.018 A 
ATOM     12  C   UNL     1      -0.161   6.288   6.106  0.00  0.00    +0.024 A 
ATOM     13  C   UNL     1      -1.125   6.734   6.990  0.00  0.00    +0.018 A 
ATOM     14  C   UNL     1      -2.295   6.013   7.150  0.00  0.00    +0.019 A 
ATOM     15  C   UNL     1      -2.493   4.850   6.438  0.00  0.00    +0.047 A 
ATOM     16  C   UNL     1      -1.522   4.387   5.551  0.00  0.00    +0.129 A 
ATOM     17  O   UNL     1      -1.776   3.221   4.902  0.00  0.00    -0.467 OA
ATOM     18 BR   UNL     1      -0.846   8.323   7.977  0.00  0.00    -0.050 Br
ATOM     19  N   UNL     1      -0.729   1.551   1.213  0.00  0.00    +0.380 N 
ATOM     20  H   UNL     1      -1.720   1.296   1.131  0.00  0.00    -0.082 HD
ENDROOT
BRANCH   9  21
ATOM     21  C   UNL     1       3.894   2.679   4.987  0.00  0.00    +0.040 A 
ATOM     22  C   UNL     1       4.869   3.497   5.561  0.00  0.00    +0.013 A 
ATOM     23  C   UNL     1       6.128   2.992   5.813  0.00  0.00    +0.001 A 
ATOM     24  C   UNL     1       6.432   1.681   5.489  0.00  0.00    +0.004 A 
ATOM     25  C   UNL     1       5.477   0.863   4.915  0.00  0.00    +0.046 A 
ATOM     26  C   UNL     1       4.206   1.352   4.660  0.00  0.00    +0.136 A 
BRANCH  26  27
ATOM     27  O   UNL     1       3.267   0.549   4.097  0.00  0.00    -0.434 OA
BRANCH  27  28
ATOM     28  C   UNL     1       3.658  -0.791   3.792  0.00  0.00    +0.541 C 
ATOM     29  F   UNL     1       4.726  -0.771   2.888  0.00  0.00    -0.166 F 
ATOM     30  F   UNL     1       4.052  -1.441   4.966  0.00  0.00    -0.166 F 
ENDBRANCH  27  28
ENDBRANCH  26  27
ENDBRANCH   9  21
BRANCH  19  31
ATOM     31  C   UNL     1      -0.013   1.086   0.008  0.00  0.00    -0.079 C 
BRANCH  31  33
ATOM     32  C   UNL     1      -0.037   1.099  -2.490  0.00  0.00    +0.002 C 
ATOM     33  C   UNL     1      -0.753   1.593  -1.232  0.00  0.00    -0.022 C 
ENDBRANCH  31  33
ENDBRANCH  19  31
TORSDOF 5
