REMARK  Name = ZINC18046334
REMARK  6 active torsions:
REMARK  status: ('A' for Active; 'I' for Inactive)
REMARK    1  A    between atoms: C_1  and  C_2
REMARK    2  A    between atoms: N_10  and  C_13
REMARK    3  A    between atoms: C_16  and  N_19
REMARK    4  A    between atoms: C_20  and  C_22
REMARK    5  A    between atoms: N_31  and  C_34
REMARK    6  A    between atoms: C_34  and  C_35
REMARK                            x       y       z     vdW  Elec       q    Type
REMARK                         _______ _______ _______ _____ _____    ______ ____
ROOT
ATOM      1  C   UNL     1      -0.400   1.378   0.079  0.00  0.00    +0.025 C 
ATOM      2  C   UNL     1      -0.166  -0.134   0.053  0.00  0.00    +0.064 C 
ATOM      3  C   UNL     1       0.623  -0.545  -1.187  0.00  0.00    +0.107 C 
ATOM      4  C   UNL     1       1.025  -1.988  -0.705  0.00  0.00    +0.123 C 
ATOM      5  C   UNL     1       1.445  -2.611  -1.936  0.00  0.00    +0.233 C 
ATOM      6  O   UNL     1       2.308  -3.450  -2.083  0.00  0.00    -0.274 OA
ATOM      7  N   UNL     1       0.653  -2.046  -2.907  0.00  0.00    -0.210 N 
ATOM      8  C   UNL     1      -0.067  -0.958  -2.448  0.00  0.00    +0.232 C 
ATOM      9  O   UNL     1      -1.046  -0.449  -2.950  0.00  0.00    -0.274 OA
ATOM     10  C   UNL     1       1.385  -1.850   0.703  0.00  0.00    +0.136 C 
ATOM     11  N   UNL     1       0.771  -0.555   1.154  0.00  0.00    -0.296 NA
ATOM     12  C   UNL     1       0.875  -2.955   1.594  0.00  0.00    +0.004 A 
ATOM     13  C   UNL     1      -0.378  -3.480   1.818  0.00  0.00    +0.008 A 
ATOM     14  C   UNL     1      -0.542  -4.516   2.720  0.00  0.00    +0.000 A 
ATOM     15  C   UNL     1       0.554  -5.022   3.394  0.00  0.00    +0.002 A 
ATOM     16  C   UNL     1       1.811  -4.499   3.172  0.00  0.00    +0.024 A 
ATOM     17  C   UNL     1       1.985  -3.456   2.265  0.00  0.00    +0.042 A 
ATOM     18  N   UNL     1       3.135  -2.769   1.874  0.00  0.00    -0.268 N 
ATOM     19  C   UNL     1       2.873  -1.815   0.964  0.00  0.00    +0.245 C 
ATOM     20  O   UNL     1       3.678  -1.067   0.449  0.00  0.00    -0.273 OA
ATOM     21  H   UNL     1       1.484   0.141   1.309  0.00  0.00    +0.123 HD
ENDROOT
BRANCH   7  22
ATOM     22  C   UNL     1       0.588  -2.514  -4.228  0.00  0.00    +0.044 A 
ATOM     23  C   UNL     1       1.348  -3.609  -4.615  0.00  0.00    +0.026 A 
ATOM     24  C   UNL     1       1.284  -4.069  -5.915  0.00  0.00    +0.025 A 
ATOM     25  C   UNL     1       0.460  -3.436  -6.836  0.00  0.00    +0.033 A 
ATOM     26  C   UNL     1      -0.300  -2.340  -6.449  0.00  0.00    +0.025 A 
ATOM     27  C   UNL     1      -0.240  -1.884  -5.147  0.00  0.00    +0.026 A 
BRANCH  25  28
ATOM     28  N   UNL     1       0.396  -3.902  -8.155  0.00  0.00    -0.286 N 
ATOM     29  C   UNL     1       0.204  -3.034  -9.168  0.00  0.00    +0.214 C 
ATOM     30  O   UNL     1       0.182  -1.841  -8.948  0.00  0.00    -0.276 OA
ATOM     31  C   UNL     1       0.015  -3.545 -10.573  0.00  0.00    +0.109 C 
ATOM     32  H   UNL     1       0.489  -4.850  -8.339  0.00  0.00    +0.155 HD
ENDBRANCH  25  28
ENDBRANCH   7  22
BRANCH  18  33
ATOM     33  C   UNL     1       4.474  -3.055   2.395  0.00  0.00    +0.125 C 
BRANCH  33  34
ATOM     34  C   UNL     1       5.150  -4.109   1.515  0.00  0.00    +0.099 C 
ATOM     35 BR   UNL     1       6.947  -4.493   2.215  0.00  0.00    -0.090 Br
ENDBRANCH  33  34
ENDBRANCH  18  33
TORSDOF 4
