REMARK  Name = ZINC22827726
REMARK  11 active torsions:
REMARK  status: ('A' for Active; 'I' for Inactive)
REMARK    1  A    between atoms: C_1  and  C_2
REMARK    2  A    between atoms: C_2  and  C_3
REMARK    3  A    between atoms: C_3  and  C_4
REMARK    4  A    between atoms: C_4  and  C_5
REMARK    5  A    between atoms: C_8  and  N_11
REMARK    6  A    between atoms: C_15  and  C_35
REMARK    7  A    between atoms: C_16  and  N_20
REMARK    8  A    between atoms: N_20  and  C_21
REMARK    9  A    between atoms: C_21  and  N_23
REMARK   10  A    between atoms: C_24  and  C_26
REMARK   11  A    between atoms: C_27  and  C_28
REMARK                            x       y       z     vdW  Elec       q    Type
REMARK                         _______ _______ _______ _____ _____    ______ ____
ROOT
ATOM      1  N   UNL     1       0.729  -8.195   0.253  0.00  0.00    -0.149 N 
ATOM      2  N   UNL     1       2.014  -8.119   0.292  0.00  0.00    -0.147 NA
ATOM      3  C   UNL     1       2.370  -6.845   0.225  0.00  0.00    +0.114 A 
ATOM      4  C   UNL     1       3.577  -6.125   0.221  0.00  0.00    +0.037 A 
ATOM      5  C   UNL     1       3.549  -4.770   0.136  0.00  0.00    -0.027 A 
ATOM      6  C   UNL     1       2.342  -4.064   0.051  0.00  0.00    +0.038 A 
ATOM      7  C   UNL     1       1.137  -4.705   0.055  0.00  0.00    +0.055 A 
ATOM      8  C   UNL     1       1.101  -6.107   0.136  0.00  0.00    +0.115 A 
ATOM      9  N   UNL     1       0.164  -7.042   0.162  0.00  0.00    -0.147 NA
ATOM     10  C   UNL     1       4.849  -4.007   0.132  0.00  0.00    +0.046 C 
ENDROOT
BRANCH   1  14
ATOM     11  C   UNL     1      -1.374 -11.790   0.403  0.00  0.00    -0.047 A 
ATOM     12  C   UNL     1      -2.059 -10.592   0.306  0.00  0.00    +0.006 A 
ATOM     13  C   UNL     1      -1.365  -9.400   0.257  0.00  0.00    +0.030 A 
ATOM     14  C   UNL     1       0.022  -9.403   0.304  0.00  0.00    +0.086 A 
ATOM     15  C   UNL     1       0.708 -10.607   0.396  0.00  0.00    +0.030 A 
ATOM     16  C   UNL     1       0.008 -11.796   0.451  0.00  0.00    +0.006 A 
BRANCH  11  17
ATOM     17  C   UNL     1      -2.134 -13.089   0.457  0.00  0.00    +0.035 C 
BRANCH  17  18
ATOM     18  C   UNL     1      -2.343 -13.617  -0.964  0.00  0.00    +0.004 C 
BRANCH  18  20
ATOM     19  C   UNL     1      -3.323 -15.465  -2.330  0.00  0.00    +0.004 C 
ATOM     20  C   UNL     1      -3.115 -14.937  -0.909  0.00  0.00    -0.003 C 
ENDBRANCH  18  20
ENDBRANCH  17  18
ENDBRANCH  11  17
ENDBRANCH   1  14
BRANCH   6  21
ATOM     21  N   UNL     1       2.373  -2.667  -0.035  0.00  0.00    -0.296 N 
ATOM     22  H   UNL     1       3.035  -2.090   0.626  0.00  0.00    +0.154 HD
BRANCH  21  23
ATOM     23  C   UNL     1       1.590  -2.030  -0.928  0.00  0.00    +0.141 C 
ATOM     24  S   UNL     1       0.664  -2.930  -2.052  0.00  0.00    -0.018 S 
BRANCH  23  25
ATOM     25  N   UNL     1       1.536  -0.683  -0.936  0.00  0.00    -0.264 N 
ATOM     26  C   UNL     1       0.753  -0.045  -1.829  0.00  0.00    +0.242 C 
ATOM     27  O   UNL     1       0.095  -0.686  -2.627  0.00  0.00    -0.270 OA
ATOM     28  H   UNL     1       2.131  -0.105  -0.214  0.00  0.00    +0.157 HD
BRANCH  26  29
ATOM     29  C   UNL     1       0.695   1.416  -1.837  0.00  0.00    +0.068 C 
ATOM     30  C   UNL     1      -0.085   2.054  -2.735  0.00  0.00    +0.013 C 
BRANCH  30  31
ATOM     31  C   UNL     1      -0.144   3.525  -2.744  0.00  0.00    -0.025 A 
ATOM     32  C   UNL     1       0.602   4.263  -1.820  0.00  0.00    +0.009 A 
ATOM     33  C   UNL     1       0.546   5.640  -1.837  0.00  0.00    +0.020 A 
ATOM     34  C   UNL     1      -0.255   6.293  -2.760  0.00  0.00    +0.041 A 
ATOM     35  C   UNL     1      -1.001   5.567  -3.675  0.00  0.00    +0.020 A 
ATOM     36  C   UNL     1      -0.951   4.190  -3.673  0.00  0.00    +0.009 A 
ATOM     37 CL   UNL     1      -0.326   8.027  -2.770  0.00  0.00    -0.084 Cl
ENDBRANCH  30  31
ENDBRANCH  26  29
ENDBRANCH  23  25
ENDBRANCH  21  23
ENDBRANCH   6  21
TORSDOF 9
