REMARK  Name = ZINC63139798
REMARK  7 active torsions:
REMARK  status: ('A' for Active; 'I' for Inactive)
REMARK    1  A    between atoms: C_1  and  C_2
REMARK    2  A    between atoms: C_2  and  C_3
REMARK    3  A    between atoms: C_2  and  C_4
REMARK    4  A    between atoms: C_7  and  C_10
REMARK    5  A    between atoms: N_29  and  C_32
REMARK    6  A    between atoms: C_32  and  C_33
REMARK    7  A    between atoms: C_33  and  C_34
REMARK                            x       y       z     vdW  Elec       q    Type
REMARK                         _______ _______ _______ _____ _____    ______ ____
ROOT
ATOM      1  C   UNL     1       2.797  -1.919   4.683  0.00  0.00    +0.133 C 
ATOM      2  C   UNL     1       3.281  -3.345   4.424  0.00  0.00    +0.131 C 
ATOM      3  C   UNL     1       3.676  -3.906   5.788  0.00  0.00    -0.034 C 
ATOM      4  C   UNL     1       4.966  -4.202   5.720  0.00  0.00    -0.001 A 
ATOM      5  C   UNL     1       5.889  -4.794   6.704  0.00  0.00    +0.010 A 
ATOM      6  C   UNL     1       7.175  -4.959   6.296  0.00  0.00    +0.001 A 
ATOM      7  C   UNL     1       7.631  -4.599   5.024  0.00  0.00    +0.002 A 
ATOM      8  C   UNL     1       6.853  -4.051   4.057  0.00  0.00    +0.026 A 
ATOM      9  C   UNL     1       5.479  -3.830   4.367  0.00  0.00    +0.043 A 
ATOM     10  N   UNL     1       4.511  -3.333   3.622  0.00  0.00    -0.375 N 
ATOM     11  C   UNL     1       2.676  -4.011   6.907  0.00  0.00    +0.065 C 
ATOM     12  C   UNL     1       1.811  -2.777   6.936  0.00  0.00    +0.167 C 
ATOM     13  N   UNL     1       1.904  -1.849   5.830  0.00  0.00    -0.279 N 
ATOM     14  C   UNL     1       1.080  -0.753   5.913  0.00  0.00    +0.234 C 
ATOM     15  O   UNL     1       1.017   0.064   5.018  0.00  0.00    -0.274 OA
ATOM     16  C   UNL     1       0.254  -0.612   7.174  0.00  0.00    +0.203 C 
ATOM     17  N   UNL     1       1.113  -0.914   8.333  0.00  0.00    -0.291 N 
ATOM     18  C   UNL     1       1.900  -2.025   8.240  0.00  0.00    +0.237 C 
ATOM     19  O   UNL     1       2.621  -2.386   9.146  0.00  0.00    -0.274 OA
ATOM     20  H   UNL     1       4.589  -3.012   2.710  0.00  0.00    +0.160 HD
ENDROOT
BRANCH   1  24
ATOM     21  C   UNL     1       0.731  -0.503   1.223  0.00  0.00    -0.045 A 
ATOM     22  C   UNL     1       2.050  -0.148   1.434  0.00  0.00    +0.004 A 
ATOM     23  C   UNL     1       2.719  -0.606   2.554  0.00  0.00    +0.006 A 
ATOM     24  C   UNL     1       2.068  -1.419   3.463  0.00  0.00    -0.025 A 
ATOM     25  C   UNL     1       0.749  -1.773   3.252  0.00  0.00    +0.006 A 
ATOM     26  C   UNL     1       0.079  -1.312   2.135  0.00  0.00    +0.004 A 
BRANCH  21  28
ATOM     27  C   UNL     1      -0.019   1.526   0.010  0.00  0.00    +0.012 C 
ATOM     28  C   UNL     1       0.002  -0.004   0.002  0.00  0.00    +0.013 C 
ATOM     29  C   UNL     1       0.718  -0.497  -1.257  0.00  0.00    +0.012 C 
ENDBRANCH  21  28
ENDBRANCH   1  24
BRANCH  17  30
ATOM     30  C   UNL     1       1.125  -0.063   9.525  0.00  0.00    +0.112 C 
BRANCH  30  31
ATOM     31  C   UNL     1       0.072  -0.561  10.517  0.00  0.00    +0.049 C 
BRANCH  31  32
ATOM     32  C   UNL     1       0.084   0.314  11.744  0.00  0.00    -0.072 C 
ATOM     33  C   UNL     1      -0.763   1.292  11.800  0.00  0.00    -0.028 C 
ATOM     34  C   UNL     1      -0.863   2.252  12.949  0.00  0.00    +0.027 C 
ATOM     35  C   UNL     1      -0.158   1.678  14.179  0.00  0.00    +0.004 C 
ATOM     36  C   UNL     1       1.238   1.199  13.759  0.00  0.00    +0.005 C 
ATOM     37  C   UNL     1       1.072  -0.005  12.827  0.00  0.00    +0.030 C 
ENDBRANCH  31  32
ENDBRANCH  30  31
ENDBRANCH  17  30
TORSDOF 5
