REMARK  Name = ZINC04646262
REMARK  8 active torsions:
REMARK  status: ('A' for Active; 'I' for Inactive)
REMARK    1  A    between atoms: C_1  and  O_2
REMARK    2  A    between atoms: O_2  and  C_3
REMARK    3  A    between atoms: C_6  and  N_9
REMARK    4  A    between atoms: C_10  and  O_35
REMARK    5  A    between atoms: C_11  and  C_25
REMARK    6  A    between atoms: N_14  and  C_17
REMARK    7  A    between atoms: C_20  and  O_23
REMARK    8  A    between atoms: O_23  and  C_24
REMARK                            x       y       z     vdW  Elec       q    Type
REMARK                         _______ _______ _______ _____ _____    ______ ____
ROOT
ATOM      1  N   UNL     1      -2.486   1.474  -2.888  0.00  0.00    -0.260 N 
ATOM      2  C   UNL     1      -1.800   0.811  -1.901  0.00  0.00    +0.206 A 
ATOM      3  C   UNL     1      -0.698   1.390  -1.345  0.00  0.00    +0.068 A 
ATOM      4  C   UNL     1      -0.293   2.660  -1.794  0.00  0.00    +0.265 A 
ATOM      5  O   UNL     1       0.686   3.199  -1.308  0.00  0.00    -0.267 OA
ATOM      6  N   UNL     1      -0.991   3.273  -2.770  0.00  0.00    -0.256 N 
ATOM      7  C   UNL     1      -2.076   2.686  -3.306  0.00  0.00    +0.175 A 
ATOM      8  S   UNL     1      -2.949   3.491  -4.539  0.00  0.00    -0.012 S 
ENDROOT
BRANCH   3   9
ATOM      9  C   UNL     1       0.072   0.683  -0.259  0.00  0.00    +0.001 C 
ATOM     10  C   UNL     1       1.448   0.342  -0.767  0.00  0.00    -0.054 A 
ATOM     11  C   UNL     1       1.572  -0.155  -2.057  0.00  0.00    +0.002 A 
ATOM     12  C   UNL     1       2.814  -0.484  -2.561  0.00  0.00    +0.000 A 
ATOM     13  C   UNL     1       3.942  -0.318  -1.779  0.00  0.00    +0.000 A 
ATOM     14  C   UNL     1       3.820   0.178  -0.496  0.00  0.00    +0.004 A 
ATOM     15  C   UNL     1       2.573   0.510   0.012  0.00  0.00    -0.047 A 
ATOM     16  C   UNL     1       2.490   1.052   1.415  0.00  0.00    +0.016 C 
ATOM     17  C   UNL     1       1.052   0.960   1.926  0.00  0.00    -0.077 C 
ATOM     18  N   UNL     1       0.157   1.559   0.918  0.00  0.00    +0.387 N 
ATOM     19  H   UNL     1      -0.779   1.678   1.322  0.00  0.00    -0.085 HD
ATOM     20  H   UNL     1       0.527   2.474   0.635  0.00  0.00    -0.085 HD
ENDBRANCH   3   9
BRANCH   1  24
ATOM     21  C   UNL     1      -5.859  -0.281  -4.602  0.00  0.00    +0.120 A 
ATOM     22  C   UNL     1      -4.606  -0.501  -5.156  0.00  0.00    +0.047 A 
ATOM     23  C   UNL     1      -3.489   0.080  -4.589  0.00  0.00    +0.030 A 
ATOM     24  C   UNL     1      -3.620   0.884  -3.465  0.00  0.00    +0.052 A 
ATOM     25  C   UNL     1      -4.873   1.100  -2.908  0.00  0.00    +0.030 A 
ATOM     26  C   UNL     1      -5.990   0.523  -3.479  0.00  0.00    +0.047 A 
BRANCH  21  28
ATOM     27  C   UNL     1      -8.217  -0.583  -4.539  0.00  0.00    +0.277 C 
ATOM     28  O   UNL     1      -6.958  -0.853  -5.161  0.00  0.00    -0.495 OA
ENDBRANCH  21  28
ENDBRANCH   1  24
BRANCH   6  29
ATOM     29  C   UNL     1      -0.588   4.537  -3.226  0.00  0.00    +0.052 A 
ATOM     30  C   UNL     1       0.317   4.640  -4.274  0.00  0.00    +0.030 A 
ATOM     31  C   UNL     1       0.711   5.884  -4.725  0.00  0.00    +0.047 A 
ATOM     32  C   UNL     1       0.210   7.031  -4.125  0.00  0.00    +0.120 A 
ATOM     33  C   UNL     1      -0.689   6.928  -3.074  0.00  0.00    +0.047 A 
ATOM     34  C   UNL     1      -1.088   5.684  -2.625  0.00  0.00    +0.030 A 
BRANCH  32  35
ATOM     35  O   UNL     1       0.603   8.255  -4.566  0.00  0.00    -0.495 OA
ATOM     36  C   UNL     1       1.531   8.287  -5.652  0.00  0.00    +0.277 C 
ENDBRANCH  32  35
ENDBRANCH   6  29
BRANCH   2  37
ATOM     37  O   UNL     1      -2.212  -0.405  -1.484  0.00  0.00    -0.493 OA
ATOM     38  H   UNL     1      -2.993  -0.736  -1.949  0.00  0.00    +0.294 HD
ENDBRANCH   2  37
TORSDOF 6
