REMARK  Name = ZINC40988958
REMARK  9 active torsions:
REMARK  status: ('A' for Active; 'I' for Inactive)
REMARK    1  A    between atoms: C_1  and  N_2
REMARK    2  A    between atoms: N_2  and  C_3
REMARK    3  A    between atoms: N_2  and  C_4
REMARK    4  A    between atoms: C_4  and  C_6
REMARK    5  A    between atoms: C_4  and  C_27
REMARK    6  A    between atoms: C_6  and  N_7
REMARK    7  A    between atoms: C_8  and  C_10
REMARK    8  A    between atoms: N_13  and  C_15
REMARK    9  A    between atoms: C_30  and  C_33
REMARK                            x       y       z     vdW  Elec       q    Type
REMARK                         _______ _______ _______ _____ _____    ______ ____
ROOT
ATOM      1  N   UNL     1       0.204  -2.151   0.754  0.00  0.00    -0.311 N 
ATOM      2  C   UNL     1       0.640  -3.421   0.866  0.00  0.00    +0.264 C 
ATOM      3  O   UNL     1       0.252  -4.268   0.085  0.00  0.00    -0.268 OA
ATOM      4  H   UNL     1       0.514  -1.475   1.378  0.00  0.00    +0.149 HD
ENDROOT
BRANCH   2   5
ATOM      5  C   UNL     1       1.590  -3.785   1.937  0.00  0.00    +0.150 A 
ATOM      6  C   UNL     1       2.136  -5.056   2.178  0.00  0.00    +0.006 A 
ATOM      7  C   UNL     1       2.947  -4.915   3.256  0.00  0.00    +0.044 A 
ATOM      8  N   UNL     1       2.887  -3.627   3.633  0.00  0.00    -0.263 N 
ATOM      9  N   UNL     1       2.095  -2.976   2.853  0.00  0.00    -0.166 NA
ATOM     10  C   UNL     1       3.739  -6.044   3.866  0.00  0.00    +0.055 C 
ATOM     11  C   UNL     1       3.160  -7.370   3.355  0.00  0.00    +0.006 C 
ATOM     12  C   UNL     1       3.034  -7.323   1.830  0.00  0.00    +0.005 C 
ATOM     13  C   UNL     1       1.917  -6.346   1.438  0.00  0.00    +0.039 C 
BRANCH   8  14
ATOM     14  C   UNL     1       3.618  -3.047   4.762  0.00  0.00    +0.130 C 
ATOM     15  C   UNL     1       4.534  -1.921   4.253  0.00  0.00    +0.051 C 
ATOM     16  C   UNL     1       5.051  -1.125   5.484  0.00  0.00    +0.168 C 
ATOM     17  S   UNL     1       3.522  -1.056   6.510  0.00  0.00    -0.029 S 
ATOM     18  O   UNL     1       2.817   0.141   6.209  0.00  0.00    -0.174 OA
ATOM     19  O   UNL     1       3.856  -1.351   7.859  0.00  0.00    -0.174 OA
ATOM     20  C   UNL     1       2.611  -2.482   5.791  0.00  0.00    +0.192 C 
ENDBRANCH   8  14
ENDBRANCH   2   5
BRANCH   1  21
ATOM     21  C   UNL     1      -0.738  -1.790  -0.308  0.00  0.00    +0.094 C 
BRANCH  21  22
ATOM     22  C   UNL     1      -1.168  -0.333  -0.135  0.00  0.00    -0.021 C 
BRANCH  22  23
ATOM     23  C   UNL     1      -1.946  -0.188   1.148  0.00  0.00    -0.059 A 
ATOM     24  C   UNL     1      -3.277  -0.556   1.195  0.00  0.00    +0.002 A 
ATOM     25  C   UNL     1      -3.990  -0.423   2.371  0.00  0.00    +0.012 A 
ATOM     26  C   UNL     1      -3.372   0.078   3.502  0.00  0.00    +0.055 A 
ATOM     27  C   UNL     1      -2.040   0.446   3.455  0.00  0.00    +0.012 A 
ATOM     28  C   UNL     1      -1.326   0.309   2.279  0.00  0.00    +0.002 A 
BRANCH  26  29
ATOM     29  C   UNL     1      -4.149   0.224   4.784  0.00  0.00    +0.417 C 
ATOM     30  F   UNL     1      -4.040  -0.954   5.532  0.00  0.00    -0.166 F 
ATOM     31  F   UNL     1      -3.634   1.294   5.523  0.00  0.00    -0.166 F 
ATOM     32  F   UNL     1      -5.495   0.466   4.489  0.00  0.00    -0.166 F 
ENDBRANCH  26  29
ENDBRANCH  22  23
BRANCH  22  34
ATOM     33  C   UNL     1      -2.469   1.450  -1.076  0.00  0.00    -0.096 C 
ATOM     34  N   UNL     1      -2.014   0.066  -1.268  0.00  0.00    +0.382 N 
ATOM     35  C   UNL     1      -1.241  -0.027  -2.513  0.00  0.00    -0.096 C 
ATOM     36  H   UNL     1      -2.814  -0.546  -1.322  0.00  0.00    -0.082 HD
ENDBRANCH  22  34
ENDBRANCH  21  22
ENDBRANCH   1  21
TORSDOF 7
