REMARK  Name = ZINC32904250
REMARK  3 active torsions:
REMARK  status: ('A' for Active; 'I' for Inactive)
REMARK    1  A    between atoms: C_3  and  C_6
REMARK    2  A    between atoms: C_8  and  C_19
REMARK    3  A    between atoms: N_10  and  C_11
REMARK                            x       y       z     vdW  Elec       q    Type
REMARK                         _______ _______ _______ _____ _____    ______ ____
ROOT
ATOM      1  C   UNL     1       0.723   5.109   0.150  0.00  0.00    +0.082 A 
ATOM      2  C   UNL     1       0.128   6.334   0.252  0.00  0.00    +0.063 A 
ATOM      3  C   UNL     1       1.111   7.311   0.009  0.00  0.00    +0.148 A 
ATOM      4  N   UNL     1       2.253   6.698  -0.239  0.00  0.00    -0.161 NA
ATOM      5  N   UNL     1       2.041   5.316  -0.157  0.00  0.00    -0.231 N 
ENDROOT
BRANCH   3   6
ATOM      6  C   UNL     1       0.899   8.773   0.022  0.00  0.00    +0.267 C 
ATOM      7  O   UNL     1      -0.223   9.223   0.146  0.00  0.00    -0.268 OA
ATOM      8  N   UNL     1       1.950   9.607  -0.102  0.00  0.00    -0.286 N 
ATOM      9  C   UNL     1       1.764  11.063  -0.218  0.00  0.00    +0.127 C 
ATOM     10  C   UNL     1       2.458  11.726   0.979  0.00  0.00    +0.123 C 
ATOM     11  N   UNL     1       3.795  11.178   1.168  0.00  0.00    -0.313 N 
ATOM     12  C   UNL     1       4.196   9.988   0.716  0.00  0.00    +0.230 C 
ATOM     13  O   UNL     1       5.310   9.606   1.004  0.00  0.00    -0.274 OA
ATOM     14  C   UNL     1       3.330   9.100  -0.135  0.00  0.00    +0.203 C 
ATOM     15  H   UNL     1       4.554  11.755   1.716  0.00  0.00    +0.149 HD
ENDBRANCH   3   6
BRANCH   5  16
ATOM     16  C   UNL     1       3.006   4.321  -0.355  0.00  0.00    +0.069 A 
ATOM     17  C   UNL     1       4.257   4.438   0.237  0.00  0.00    +0.048 A 
ATOM     18  C   UNL     1       5.207   3.452   0.043  0.00  0.00    +0.044 A 
ATOM     19  C   UNL     1       4.916   2.355  -0.748  0.00  0.00    +0.040 A 
ATOM     20  C   UNL     1       3.672   2.239  -1.343  0.00  0.00    +0.044 A 
ATOM     21  C   UNL     1       2.717   3.219  -1.149  0.00  0.00    +0.048 A 
ATOM     22 CL   UNL     1       3.311   0.861  -2.335  0.00  0.00    -0.083 Cl
ATOM     23 CL   UNL     1       6.768   3.594   0.789  0.00  0.00    -0.083 Cl
ENDBRANCH   5  16
BRANCH   1  26
ATOM     24  C   UNL     1      -1.652   2.184   0.476  0.00  0.00    +0.008 A 
ATOM     25  C   UNL     1      -1.269   3.492   0.276  0.00  0.00    +0.017 A 
ATOM     26  C   UNL     1       0.066   3.803   0.332  0.00  0.00    +0.038 A 
ATOM     27  S   UNL     1       0.799   2.214   0.684  0.00  0.00    -0.095 S 
ATOM     28  C   UNL     1      -0.702   1.248   0.733  0.00  0.00    +0.046 A 
ENDBRANCH   1  26
TORSDOF 3
