REMARK  Name = ZINC35593401
REMARK  15 active torsions:
REMARK  status: ('A' for Active; 'I' for Inactive)
REMARK    1  A    between atoms: C_1  and  C_2
REMARK    2  A    between atoms: C_2  and  C_3
REMARK    3  A    between atoms: C_3  and  C_5
REMARK    4  A    between atoms: C_3  and  N_6
REMARK    5  A    between atoms: C_7  and  C_9
REMARK    6  A    between atoms: C_9  and  N_10
REMARK    7  A    between atoms: C_13  and  C_20
REMARK    8  A    between atoms: N_15  and  C_16
REMARK    9  A    between atoms: C_16  and  C_17
REMARK   10  A    between atoms: C_16  and  C_18
REMARK   11  A    between atoms: C_16  and  C_19
REMARK   12  A    between atoms: C_20  and  C_21
REMARK   13  A    between atoms: C_20  and  C_22
REMARK   14  A    between atoms: C_20  and  C_23
REMARK   15  A    between atoms: C_24  and  C_30
REMARK                            x       y       z     vdW  Elec       q    Type
REMARK                         _______ _______ _______ _____ _____    ______ ____
ROOT
ATOM      1  N   UNL     1      10.454   3.019   4.211  0.00  0.00    -0.246 N 
ATOM      2  C   UNL     1       9.137   2.748   4.611  0.00  0.00    +0.132 A 
ATOM      3  C   UNL     1       8.373   3.609   5.322  0.00  0.00    +0.033 A 
ATOM      4  C   UNL     1       7.136   3.003   5.542  0.00  0.00    +0.075 A 
ATOM      5  N   UNL     1       7.157   1.820   4.977  0.00  0.00    -0.173 NA
ATOM      6  N   UNL     1       8.413   1.637   4.379  0.00  0.00    -0.244 N 
ATOM      7  C   UNL     1       8.814   4.977   5.776  0.00  0.00    +0.115 C 
ATOM      8  S   UNL     1      10.003   4.780   7.152  0.00  0.00    -0.138 S 
ATOM      9  C   UNL     1      11.005   3.366   6.583  0.00  0.00    +0.166 C 
ATOM     10  C   UNL     1      11.315   3.483   5.123  0.00  0.00    +0.231 C 
ATOM     11  O   UNL     1      12.350   4.005   4.766  0.00  0.00    -0.274 OA
ENDROOT
BRANCH   7  12
ATOM     12  C   UNL     1       7.617   5.764   6.245  0.00  0.00    +0.005 A 
ATOM     13  C   UNL     1       7.170   5.632   7.546  0.00  0.00    +0.008 A 
ATOM     14  C   UNL     1       6.072   6.354   7.976  0.00  0.00    +0.000 A 
ATOM     15  C   UNL     1       5.421   7.209   7.106  0.00  0.00    +0.003 A 
ATOM     16  C   UNL     1       5.867   7.342   5.805  0.00  0.00    +0.038 A 
ATOM     17  C   UNL     1       6.970   6.624   5.374  0.00  0.00    +0.128 A 
ATOM     18  F   UNL     1       7.409   6.757   4.104  0.00  0.00    -0.205 F 
ENDBRANCH   7  12
BRANCH   6  19
ATOM     19  C   UNL     1       8.856   0.453   3.638  0.00  0.00    +0.057 C 
ATOM     20  C   UNL     1      10.236   0.024   4.140  0.00  0.00    +0.036 C 
ATOM     21  C   UNL     1       7.858  -0.686   3.854  0.00  0.00    +0.036 C 
ATOM     22  C   UNL     1       8.936   0.785   2.147  0.00  0.00    +0.036 C 
ENDBRANCH   6  19
BRANCH   4  23
ATOM     23  C   UNL     1       5.978   3.603   6.296  0.00  0.00    +0.007 C 
ATOM     24  C   UNL     1       5.631   4.968   5.697  0.00  0.00    +0.017 C 
ATOM     25  C   UNL     1       4.765   2.677   6.191  0.00  0.00    +0.017 C 
ATOM     26  C   UNL     1       6.362   3.775   7.768  0.00  0.00    +0.017 C 
ENDBRANCH   4  23
BRANCH   1  27
ATOM     27  C   UNL     1      10.879   2.793   2.827  0.00  0.00    +0.210 C 
BRANCH  27  29
ATOM     28  N   UNL     1      11.976   0.958   1.584  0.00  0.00    -0.311 N 
ATOM     29  C   UNL     1      11.757   1.570   2.764  0.00  0.00    +0.231 C 
ATOM     30  O   UNL     1      12.267   1.137   3.776  0.00  0.00    -0.274 OA
ATOM     31  H   UNL     1      11.568   1.304   0.775  0.00  0.00    +0.149 HD
BRANCH  28  32
ATOM     32  C   UNL     1      12.830  -0.231   1.523  0.00  0.00    +0.070 C 
ATOM     33  C   UNL     1      14.294   0.197   1.405  0.00  0.00    +0.028 C 
BRANCH  32  35
ATOM     34  C   UNL     1      11.022  -1.606   0.482  0.00  0.00    +0.005 C 
ATOM     35  C   UNL     1      12.445  -1.073   0.305  0.00  0.00    +0.018 C 
ENDBRANCH  32  35
ENDBRANCH  28  32
ENDBRANCH  27  29
ENDBRANCH   1  27
TORSDOF 7
