REMARK  Name = ZINC05479803
REMARK  7 active torsions:
REMARK  status: ('A' for Active; 'I' for Inactive)
REMARK    1  A    between atoms: C_1  and  C_2
REMARK    2  A    between atoms: C_1  and  C_9
REMARK    3  A    between atoms: C_2  and  N_19
REMARK    4  A    between atoms: C_3  and  C_4
REMARK    5  A    between atoms: C_3  and  N_19
REMARK    6  A    between atoms: C_6  and  P_7
REMARK    7  A    between atoms: C_6  and  N_19
REMARK                            x       y       z     vdW  Elec       q    Type
REMARK                         _______ _______ _______ _____ _____    ______ ____
ROOT
ATOM      1  N   UNL     1      -0.156   2.010   2.635  0.00  0.00    +0.395 N 
ATOM      2  H   UNL     1       0.866   1.989   2.539  0.00  0.00    -0.080 HD
ENDROOT
BRANCH   1   3
ATOM      3  C   UNL     1      -0.644   0.635   2.876  0.00  0.00    -0.062 C 
BRANCH   3   4
ATOM      4  C   UNL     1      -0.060  -0.290   1.806  0.00  0.00    +0.100 C 
BRANCH   4   5
ATOM      5  C   UNL     1      -0.456  -1.679   2.089  0.00  0.00    +0.061 C 
ATOM      6  N   UNL     1      -0.761  -2.751   2.307  0.00  0.00    -0.197 NA
ENDBRANCH   4   5
ENDBRANCH   3   4
ENDBRANCH   1   3
BRANCH   1   7
ATOM      7  C   UNL     1      -0.513   2.879   3.776  0.00  0.00    +0.049 C 
BRANCH   7   8
ATOM      8  C   UNL     1       0.180   4.207   3.611  0.00  0.00    +0.340 C 
ATOM      9  O   UNL     1       0.876   4.409   2.644  0.00  0.00    -0.249 OA
ATOM     10  O   UNL     1       0.024   5.165   4.538  0.00  0.00    -0.249 OA
ENDBRANCH   7   8
ENDBRANCH   1   7
BRANCH   1  11
ATOM     11  C   UNL     1      -0.745   2.544   1.389  0.00  0.00    +0.056 C 
BRANCH  11  12
ATOM     12  P   UNL     1       0.554   2.588   0.111  0.00  0.00    +0.371 P 
ATOM     13  O   UNL     1       0.037   3.275  -1.094  0.00  0.00    -0.256 OA
ATOM     14  O   UNL     1       0.982   1.084  -0.272  0.00  0.00    -0.140 OA
ATOM     15  O   UNL     1       1.835   3.384   0.674  0.00  0.00    -0.140 OA
ENDBRANCH  11  12
ENDBRANCH   1  11
TORSDOF 7
