REMARK  Name = ZINC40037828
REMARK  7 active torsions:
REMARK  status: ('A' for Active; 'I' for Inactive)
REMARK    1  A    between atoms: C_1  and  C_2
REMARK    2  A    between atoms: C_2  and  N_3
REMARK    3  A    between atoms: C_4  and  C_6
REMARK    4  A    between atoms: C_10  and  N_11
REMARK    5  A    between atoms: C_12  and  C_14
REMARK    6  A    between atoms: C_15  and  C_24
REMARK    7  A    between atoms: C_19  and  C_23
REMARK                            x       y       z     vdW  Elec       q    Type
REMARK                         _______ _______ _______ _____ _____    ______ ____
ROOT
ATOM      1  C   UNL     1      -2.976  -2.347   0.018  0.00  0.00    +0.069 A 
ATOM      2  C   UNL     1      -3.696  -2.607  -1.216  0.00  0.00    -0.023 A 
ATOM      3  C   UNL     1      -4.951  -3.071  -1.036  0.00  0.00    -0.004 A 
ATOM      4  S   UNL     1      -5.152  -3.154   0.719  0.00  0.00    -0.077 S 
ATOM      5  C   UNL     1      -3.642  -2.604   1.206  0.00  0.00    +0.085 A 
ATOM      6  C   UNL     1      -5.939  -3.430  -2.103  0.00  0.00    +0.043 C 
ATOM      7  C   UNL     1      -5.450  -2.837  -3.433  0.00  0.00    +0.005 C 
ATOM      8  C   UNL     1      -3.969  -3.181  -3.614  0.00  0.00    +0.005 C 
ATOM      9  C   UNL     1      -3.125  -2.392  -2.610  0.00  0.00    +0.037 C 
ENDROOT
BRANCH   1  11
ATOM     10  N   UNL     1      -1.372  -0.511   0.012  0.00  0.00    -0.312 N 
ATOM     11  C   UNL     1      -1.601  -1.839   0.007  0.00  0.00    +0.247 C 
ATOM     12  O   UNL     1      -0.665  -2.618  -0.006  0.00  0.00    -0.270 OA
ATOM     13  H   UNL     1      -2.118   0.109   0.023  0.00  0.00    +0.149 HD
BRANCH  10  15
ATOM     14  C   UNL     1      -0.019   1.526   0.010  0.00  0.00    +0.024 C 
ATOM     15  C   UNL     1       0.002  -0.004   0.002  0.00  0.00    +0.101 C 
ENDBRANCH  10  15
ENDBRANCH   1  11
BRANCH   5  16
ATOM     16  N   UNL     1      -3.171  -2.442   2.499  0.00  0.00    -0.273 N 
ATOM     17  C   UNL     1      -3.963  -2.744   3.547  0.00  0.00    +0.284 C 
ATOM     18  O   UNL     1      -5.091  -3.158   3.358  0.00  0.00    -0.266 OA
ATOM     19  H   UNL     1      -2.272  -2.111   2.649  0.00  0.00    +0.156 HD
BRANCH  17  20
ATOM     20  C   UNL     1      -3.463  -2.572   4.918  0.00  0.00    +0.194 A 
ATOM     21  C   UNL     1      -4.167  -2.848   6.047  0.00  0.00    +0.008 A 
ATOM     22  C   UNL     1      -3.281  -2.528   7.165  0.00  0.00    +0.024 A 
ATOM     23  C   UNL     1      -3.406  -2.589   8.555  0.00  0.00    +0.012 A 
ATOM     24  C   UNL     1      -2.360  -2.206   9.347  0.00  0.00    +0.004 A 
ATOM     25  C   UNL     1      -1.176  -1.756   8.778  0.00  0.00    -0.047 A 
ATOM     26  C   UNL     1      -1.032  -1.688   7.410  0.00  0.00    +0.050 A 
ATOM     27  C   UNL     1      -2.082  -2.073   6.584  0.00  0.00    +0.136 A 
ATOM     28  O   UNL     1      -2.234  -2.121   5.246  0.00  0.00    -0.450 OA
ATOM     29  C   UNL     1      -0.034  -1.337   9.669  0.00  0.00    +0.044 C 
ATOM     30  C   UNL     1      -5.576  -3.376   6.130  0.00  0.00    +0.048 C 
ENDBRANCH  17  20
ENDBRANCH   5  16
TORSDOF 4
