REMARK  Name = ZINC12598894
REMARK  15 active torsions:
REMARK  status: ('A' for Active; 'I' for Inactive)
REMARK    1  A    between atoms: C_1  and  C_2
REMARK    2  A    between atoms: C_2  and  C_3
REMARK    3  A    between atoms: C_2  and  C_4
REMARK    4  A    between atoms: C_4  and  C_6
REMARK    5  A    between atoms: C_4  and  N_26
REMARK    6  A    between atoms: C_6  and  O_8
REMARK    7  A    between atoms: O_8  and  C_9
REMARK    8  A    between atoms: C_9  and  C_10
REMARK    9  A    between atoms: C_10  and  C_12
REMARK   10  A    between atoms: N_21  and  S_22
REMARK   11  A    between atoms: S_22  and  C_25
REMARK   12  A    between atoms: C_27  and  C_29
REMARK   13  A    between atoms: C_30  and  C_31
REMARK   14  A    between atoms: C_34  and  O_37
REMARK   15  A    between atoms: O_37  and  C_38
REMARK                            x       y       z     vdW  Elec       q    Type
REMARK                         _______ _______ _______ _____ _____    ______ ____
ROOT
ATOM      1  C   UNL     1       4.654   1.136  -1.018  0.00  0.00    +0.328 C 
ATOM      2  O   UNL     1       4.412   0.022  -1.419  0.00  0.00    -0.249 OA
ENDROOT
BRANCH   1   3
ATOM      3  C   UNL     1       3.549   1.991  -0.454  0.00  0.00    +0.185 C 
BRANCH   3   4
ATOM      4  N   UNL     1       2.285   1.251  -0.504  0.00  0.00    -0.299 N 
ATOM      5  C   UNL     1       1.115   1.917  -0.544  0.00  0.00    +0.238 C 
ATOM      6  O   UNL     1       1.107   3.135  -0.540  0.00  0.00    -0.271 OA
ATOM      7  H   UNL     1       2.291   0.281  -0.507  0.00  0.00    +0.150 HD
BRANCH   5   8
ATOM      8  C   UNL     1      -0.146   1.179  -0.594  0.00  0.00    +0.068 C 
ATOM      9  C   UNL     1      -1.319   1.846  -0.640  0.00  0.00    +0.013 C 
BRANCH   9  10
ATOM     10  C   UNL     1      -2.586   1.104  -0.696  0.00  0.00    -0.025 A 
ATOM     11  C   UNL     1      -2.580  -0.296  -0.707  0.00  0.00    +0.011 A 
ATOM     12  C   UNL     1      -3.770  -0.987  -0.753  0.00  0.00    +0.046 A 
ATOM     13  C   UNL     1      -4.975  -0.296  -0.800  0.00  0.00    +0.120 A 
ATOM     14  C   UNL     1      -4.987   1.094  -0.796  0.00  0.00    +0.046 A 
ATOM     15  C   UNL     1      -3.803   1.794  -0.744  0.00  0.00    +0.011 A 
BRANCH  13  16
ATOM     16  O   UNL     1      -6.146  -0.982  -0.852  0.00  0.00    -0.495 OA
ATOM     17  C   UNL     1      -6.062  -2.409  -0.854  0.00  0.00    +0.277 C 
ENDBRANCH  13  16
ENDBRANCH   9  10
ENDBRANCH   5   8
ENDBRANCH   3   4
BRANCH   3  19
ATOM     18  C   UNL     1       2.750   3.220   1.569  0.00  0.00    +0.009 C 
ATOM     19  C   UNL     1       3.872   2.351   0.997  0.00  0.00    +0.014 C 
ATOM     20  C   UNL     1       3.998   1.071   1.825  0.00  0.00    +0.009 C 
ENDBRANCH   3  19
ENDBRANCH   1   3
BRANCH   1  21
ATOM     21  O   UNL     1       5.908   1.611  -1.073  0.00  0.00    -0.455 OA
BRANCH  21  22
ATOM     22  C   UNL     1       6.922   0.732  -1.628  0.00  0.00    +0.311 C 
BRANCH  22  23
ATOM     23  C   UNL     1       8.257   1.431  -1.610  0.00  0.00    +0.200 C 
ATOM     24  O   UNL     1       8.346   2.559  -1.172  0.00  0.00    -0.288 OA
BRANCH  23  25
ATOM     25  C   UNL     1       9.451   0.747  -2.121  0.00  0.00    +0.021 A 
ATOM     26  C   UNL     1       9.352  -0.558  -2.622  0.00  0.00    +0.013 A 
ATOM     27  C   UNL     1      10.466  -1.185  -3.100  0.00  0.00    +0.026 A 
ATOM     28  C   UNL     1      11.701  -0.537  -3.080  0.00  0.00    +0.054 A 
ATOM     29  C   UNL     1      11.806   0.757  -2.583  0.00  0.00    -0.024 A 
ATOM     30  C   UNL     1      10.692   1.394  -2.105  0.00  0.00    +0.017 A 
ATOM     31  C   UNL     1      13.124   1.486  -2.559  0.00  0.00    +0.038 C 
ATOM     32  C   UNL     1      14.285   0.495  -2.640  0.00  0.00    +0.025 C 
ATOM     33  C   UNL     1      14.049  -0.447  -3.828  0.00  0.00    +0.131 C 
ATOM     34  N   UNL     1      12.822  -1.208  -3.562  0.00  0.00    -0.207 N 
BRANCH  34  35
ATOM     35  S   UNL     1      12.771  -2.842  -3.829  0.00  0.00    +0.043 S 
ATOM     36  O   UNL     1      14.134  -3.243  -3.882  0.00  0.00    -0.155 OA
ATOM     37  O   UNL     1      11.906  -3.348  -2.823  0.00  0.00    -0.155 OA
ATOM     38  C   UNL     1      12.003  -3.023  -5.463  0.00  0.00    +0.218 C 
ENDBRANCH  34  35
ENDBRANCH  23  25
ENDBRANCH  22  23
ENDBRANCH  21  22
ENDBRANCH   1  21
TORSDOF 11
