REMARK  Name = ZINC09158424
REMARK  5 active torsions:
REMARK  status: ('A' for Active; 'I' for Inactive)
REMARK    1  A    between atoms: C_6  and  C_7
REMARK    2  A    between atoms: C_13  and  O_22
REMARK    3  A    between atoms: C_17  and  C_18
REMARK    4  A    between atoms: O_22  and  C_23
REMARK    5  A    between atoms: C_23  and  C_24
REMARK                            x       y       z     vdW  Elec       q    Type
REMARK                         _______ _______ _______ _____ _____    ______ ____
ROOT
ATOM      1  C   UNL     1      -1.581   7.846   3.327  0.00  0.00    +0.076 A 
ATOM      2  C   UNL     1      -0.691   7.425   2.231  0.00  0.00    +0.201 A 
ATOM      3  O   UNL     1       0.130   8.185   1.746  0.00  0.00    -0.286 OA
ATOM      4  C   UNL     1      -0.841   6.040   1.748  0.00  0.00    +0.065 A 
ATOM      5  C   UNL     1      -0.046   5.544   0.714  0.00  0.00    +0.019 A 
ATOM      6  C   UNL     1      -0.207   4.254   0.294  0.00  0.00    +0.046 A 
ATOM      7  C   UNL     1      -1.168   3.437   0.887  0.00  0.00    +0.126 A 
ATOM      8  C   UNL     1      -1.963   3.915   1.914  0.00  0.00    +0.092 A 
ATOM      9  C   UNL     1      -1.809   5.222   2.357  0.00  0.00    +0.143 A 
ATOM     10  O   UNL     1      -2.575   5.703   3.355  0.00  0.00    -0.450 OA
ATOM     11  C   UNL     1      -2.473   6.950   3.823  0.00  0.00    +0.219 A 
ENDROOT
BRANCH   1  17
ATOM     12  C   UNL     1      -1.001   9.431   5.161  0.00  0.00    +0.010 A 
ATOM     13  C   UNL     1      -0.926  10.713   5.668  0.00  0.00    +0.016 A 
ATOM     14  C   UNL     1      -1.359  11.786   4.909  0.00  0.00    +0.018 A 
ATOM     15  C   UNL     1      -1.863  11.581   3.636  0.00  0.00    +0.016 A 
ATOM     16  C   UNL     1      -1.937  10.304   3.118  0.00  0.00    +0.010 A 
ATOM     17  C   UNL     1      -1.503   9.220   3.878  0.00  0.00    -0.011 A 
ATOM     18 BR   UNL     1      -1.261  13.539   5.613  0.00  0.00    -0.050 Br
ENDBRANCH   1  17
BRANCH  11  19
ATOM     19  C   UNL     1      -3.383   7.380   4.944  0.00  0.00    +0.451 C 
ATOM     20  F   UNL     1      -4.030   8.569   4.590  0.00  0.00    -0.163 F 
ATOM     21  F   UNL     1      -4.336   6.383   5.179  0.00  0.00    -0.163 F 
ATOM     22  F   UNL     1      -2.629   7.587   6.104  0.00  0.00    -0.163 F 
ENDBRANCH  11  19
BRANCH   7  23
ATOM     23  O   UNL     1      -1.321   2.159   0.457  0.00  0.00    -0.477 OA
BRANCH  23  24
ATOM     24  C   UNL     1      -0.469   1.725  -0.606  0.00  0.00    +0.346 C 
BRANCH  24  25
ATOM     25  C   UNL     1      -0.774   0.324  -0.938  0.00  0.00    +0.104 C 
ATOM     26  N   UNL     1      -1.008  -0.757  -1.195  0.00  0.00    -0.193 NA
ENDBRANCH  24  25
ENDBRANCH  23  24
ENDBRANCH   7  23
TORSDOF 5
