REMARK  Name = ZINC00725855
REMARK  5 active torsions:
REMARK  status: ('A' for Active; 'I' for Inactive)
REMARK    1  A    between atoms: C_3  and  N_22
REMARK    2  A    between atoms: C_6  and  C_7
REMARK    3  A    between atoms: N_9  and  C_10
REMARK    4  A    between atoms: C_10  and  C_12
REMARK    5  A    between atoms: C_10  and  N_42
REMARK                            x       y       z     vdW  Elec       q    Type
REMARK                         _______ _______ _______ _____ _____    ______ ____
ROOT
ATOM      1  C   UNL     1      -1.533   1.379   1.890  0.00  0.00    +0.243 C 
ATOM      2  O   UNL     1      -1.756   0.184   1.858  0.00  0.00    -0.270 OA
ATOM      3  N   UNL     1      -0.676   1.928   1.006  0.00  0.00    -0.321 N 
ATOM      4  H   UNL     1      -0.498   2.881   1.032  0.00  0.00    +0.147 HD
ENDROOT
BRANCH   1  10
ATOM      5  C   UNL     1      -1.944   3.600   2.940  0.00  0.00    +0.015 A 
ATOM      6  C   UNL     1      -2.577   4.388   3.879  0.00  0.00    +0.033 A 
ATOM      7  C   UNL     1      -3.456   3.821   4.784  0.00  0.00    +0.126 A 
ATOM      8  C   UNL     1      -3.712   2.462   4.751  0.00  0.00    +0.033 A 
ATOM      9  C   UNL     1      -3.090   1.663   3.813  0.00  0.00    +0.015 A 
ATOM     10  C   UNL     1      -2.202   2.229   2.897  0.00  0.00    +0.037 A 
BRANCH   7  11
ATOM     11  N   UNL     1      -4.126   4.672   5.793  0.00  0.00    +0.056 N 
ATOM     12  O   UNL     1      -4.901   4.176   6.591  0.00  0.00    -0.126 OA
ATOM     13  O   UNL     1      -3.903   5.869   5.825  0.00  0.00    -0.126 OA
ENDBRANCH   7  11
ENDBRANCH   1  10
BRANCH   3  14
ATOM     14  C   UNL     1      -0.013   1.086   0.008  0.00  0.00    +0.071 C 
BRANCH  14  21
ATOM     15  C   UNL     1      -0.482   2.711  -1.737  0.00  0.00    -0.076 C 
ATOM     16  C   UNL     1      -1.327   3.047  -2.936  0.00  0.00    -0.018 C 
ATOM     17  C   UNL     1      -2.666   3.634  -2.442  0.00  0.00    -0.002 C 
ATOM     18  C   UNL     1      -3.586   2.598  -1.985  0.00  0.00    -0.002 C 
ATOM     19  C   UNL     1      -3.016   1.796  -0.796  0.00  0.00    -0.018 C 
ATOM     20  C   UNL     1      -2.024   0.797  -1.326  0.00  0.00    -0.076 C 
ATOM     21  N   UNL     1      -0.597   1.269  -1.330  0.00  0.00    +0.395 N 
ATOM     22  H   UNL     1      -0.070   0.700  -2.003  0.00  0.00    -0.079 HD
ENDBRANCH  14  21
BRANCH  14  23
ATOM     23  C   UNL     1       1.472   1.450  -0.062  0.00  0.00    +0.194 C 
ATOM     24 CL   UNL     1       1.643   3.229  -0.303  0.00  0.00    -0.084 Cl
ATOM     25 CL   UNL     1       2.281   0.972   1.476  0.00  0.00    -0.084 Cl
ATOM     26 CL   UNL     1       2.240   0.580  -1.442  0.00  0.00    -0.084 Cl
ENDBRANCH  14  23
ENDBRANCH   3  14
TORSDOF 5
