REMARK  Name = ZINC38550557
REMARK  8 active torsions:
REMARK  status: ('A' for Active; 'I' for Inactive)
REMARK    1  A    between atoms: C_1  and  C_2
REMARK    2  A    between atoms: C_4  and  C_15
REMARK    3  A    between atoms: C_5  and  N_7
REMARK    4  A    between atoms: C_8  and  C_10
REMARK    5  A    between atoms: C_15  and  C_17
REMARK    6  A    between atoms: C_15  and  N_27
REMARK    7  A    between atoms: C_20  and  O_23
REMARK    8  A    between atoms: O_23  and  C_24
REMARK                            x       y       z     vdW  Elec       q    Type
REMARK                         _______ _______ _______ _____ _____    ______ ____
ROOT
ATOM      1  C   UNL     1      -2.036  -3.109  -0.018  0.00  0.00    +0.135 C 
ENDROOT
BRANCH   1   2
ATOM      2  N   UNL     1      -3.300  -2.723  -0.651  0.00  0.00    -0.320 N 
ATOM      3  C   UNL     1      -3.470  -2.886  -2.021  0.00  0.00    +0.097 A 
ATOM      4  C   UNL     1      -2.411  -3.347  -2.797  0.00  0.00    +0.041 A 
ATOM      5  C   UNL     1      -2.594  -3.504  -4.159  0.00  0.00    +0.005 A 
ATOM      6  C   UNL     1      -3.834  -3.194  -4.701  0.00  0.00    +0.018 A 
ATOM      7  C   UNL     1      -4.840  -2.740  -3.872  0.00  0.00    +0.084 A 
ATOM      8  N   UNL     1      -4.639  -2.605  -2.575  0.00  0.00    -0.350 N 
ATOM      9  H   UNL     1      -4.018  -2.354  -0.114  0.00  0.00    +0.148 HD
ATOM     10  H   UNL     1      -5.364  -2.288  -2.014  0.00  0.00    +0.166 HD
ENDBRANCH   1   2
BRANCH   1  14
ATOM     11  C   UNL     1      -0.834   1.823  -0.417  0.00  0.00    +0.051 C 
ATOM     12  C   UNL     1      -0.598   0.340  -0.299  0.00  0.00    -0.011 A 
ATOM     13  C   UNL     1      -1.505  -0.663  -0.216  0.00  0.00    +0.018 A 
ATOM     14  C   UNL     1      -1.057  -1.968  -0.113  0.00  0.00    +0.006 A 
ATOM     15  C   UNL     1       0.285  -2.201  -0.098  0.00  0.00    +0.078 A 
ATOM     16  S   UNL     1       0.948  -0.550  -0.240  0.00  0.00    -0.078 S 
BRANCH  15  17
ATOM     17  N   UNL     1       0.965  -3.417  -0.002  0.00  0.00    -0.273 N 
ATOM     18  C   UNL     1       2.312  -3.438  -0.004  0.00  0.00    +0.284 C 
ATOM     19  O   UNL     1       2.937  -2.396  -0.089  0.00  0.00    -0.266 OA
ATOM     20  H   UNL     1       0.467  -4.247   0.066  0.00  0.00    +0.156 HD
BRANCH  18  21
ATOM     21  C   UNL     1       3.026  -4.714   0.097  0.00  0.00    +0.189 A 
ATOM     22  C   UNL     1       4.382  -4.876   0.112  0.00  0.00    +0.054 A 
ATOM     23  C   UNL     1       4.623  -6.255   0.220  0.00  0.00    +0.042 A 
ATOM     24  C   UNL     1       3.418  -6.866   0.266  0.00  0.00    +0.196 A 
ATOM     25  O   UNL     1       2.459  -5.934   0.196  0.00  0.00    -0.458 OA
ENDBRANCH  18  21
ENDBRANCH  15  17
ENDBRANCH   1  14
BRANCH   1  26
ATOM     26  C   UNL     1      -2.281  -3.442   1.431  0.00  0.00    -0.023 A 
ATOM     27  C   UNL     1      -3.067  -2.611   2.207  0.00  0.00    +0.009 A 
ATOM     28  C   UNL     1      -3.293  -2.914   3.535  0.00  0.00    +0.046 A 
ATOM     29  C   UNL     1      -2.730  -4.054   4.091  0.00  0.00    +0.127 A 
ATOM     30  C   UNL     1      -1.942  -4.887   3.310  0.00  0.00    +0.046 A 
ATOM     31  C   UNL     1      -1.724  -4.582   1.981  0.00  0.00    +0.009 A 
BRANCH  29  32
ATOM     32  O   UNL     1      -2.950  -4.354   5.398  0.00  0.00    -0.434 OA
BRANCH  32  33
ATOM     33  C   UNL     1      -2.340  -5.543   5.903  0.00  0.00    +0.541 C 
ATOM     34  F   UNL     1      -2.803  -6.648   5.180  0.00  0.00    -0.166 F 
ATOM     35  F   UNL     1      -0.950  -5.447   5.768  0.00  0.00    -0.166 F 
ENDBRANCH  32  33
ENDBRANCH  29  32
ENDBRANCH   1  26
TORSDOF 7
