REMARK  Name = ZINC05736380
REMARK  10 active torsions:
REMARK  status: ('A' for Active; 'I' for Inactive)
REMARK    1  A    between atoms: C_1  and  C_2
REMARK    2  A    between atoms: C_2  and  N_3
REMARK    3  A    between atoms: N_3  and  C_4
REMARK    4  A    between atoms: N_3  and  C_6
REMARK    5  A    between atoms: C_4  and  C_5
REMARK    6  A    between atoms: C_9  and  C_12
REMARK    7  A    between atoms: N_13  and  N_14
REMARK    8  A    between atoms: C_15  and  C_17
REMARK    9  A    between atoms: C_22  and  C_23
REMARK   10  A    between atoms: C_22  and  N_61
REMARK                            x       y       z     vdW  Elec       q    Type
REMARK                         _______ _______ _______ _____ _____    ______ ____
ROOT
ATOM      1  N   UNL     1      -4.837   0.929   0.031  0.00  0.00    -0.207 N 
ATOM      2  C   UNL     1      -6.011   1.590   0.040  0.00  0.00    +0.235 C 
ATOM      3  O   UNL     1      -6.025   2.803   0.046  0.00  0.00    -0.274 OA
ATOM      4  H   UNL     1      -4.825  -0.041   0.026  0.00  0.00    +0.177 HD
ENDROOT
BRANCH   2   5
ATOM      5  C   UNL     1      -7.308   0.821   0.042  0.00  0.00    +0.073 C 
ATOM      6  C   UNL     1      -7.390  -0.048  -1.216  0.00  0.00    -0.006 C 
ATOM      7  C   UNL     1      -8.734  -0.779  -1.238  0.00  0.00    -0.078 C 
ATOM      8  C   UNL     1      -9.796   1.017  -0.006  0.00  0.00    -0.078 C 
ATOM      9  C   UNL     1      -8.484   1.802   0.053  0.00  0.00    -0.006 C 
ATOM     10  N   UNL     1      -9.823   0.221  -1.251  0.00  0.00    +0.382 N 
ATOM     11  H   UNL     1      -9.689   0.849  -2.052  0.00  0.00    -0.081 HD
BRANCH  10  12
ATOM     12  C   UNL     1     -11.129  -0.458  -1.388  0.00  0.00    -0.043 C 
BRANCH  12  13
ATOM     13  C   UNL     1     -11.211  -1.080  -2.758  0.00  0.00    -0.064 A 
ATOM     14  C   UNL     1     -11.716  -0.351  -3.818  0.00  0.00    +0.003 A 
ATOM     15  C   UNL     1     -11.787  -0.918  -5.076  0.00  0.00    +0.020 A 
ATOM     16  C   UNL     1     -11.363  -2.221  -5.272  0.00  0.00    +0.041 A 
ATOM     17  C   UNL     1     -10.863  -2.952  -4.209  0.00  0.00    +0.020 A 
ATOM     18  C   UNL     1     -10.787  -2.381  -2.953  0.00  0.00    +0.003 A 
ATOM     19 CL   UNL     1     -11.458  -2.937  -6.851  0.00  0.00    -0.084 Cl
ENDBRANCH  12  13
ENDBRANCH  10  12
ENDBRANCH   2   5
BRANCH   1  21
ATOM     20  C   UNL     1      -2.500   1.008   0.020  0.00  0.00    +0.138 C 
ATOM     21  N   UNL     1      -3.631   1.644   0.029  0.00  0.00    -0.188 NA
BRANCH  20  25
ATOM     22  C   UNL     1       1.152   3.172   0.008  0.00  0.00    +0.030 A 
ATOM     23  C   UNL     1       1.170   1.782   0.001  0.00  0.00    +0.024 A 
ATOM     24  C   UNL     1      -0.013   1.076   0.008  0.00  0.00    +0.011 A 
ATOM     25  C   UNL     1      -1.232   1.759   0.017  0.00  0.00    -0.005 A 
ATOM     26  C   UNL     1      -1.246   3.157   0.029  0.00  0.00    +0.011 A 
ATOM     27  C   UNL     1      -0.059   3.856   0.022  0.00  0.00    +0.024 A 
BRANCH  22  28
ATOM     28  N   UNL     1       2.352   3.884   0.000  0.00  0.00    -0.330 N 
BRANCH  28  30
ATOM     29  C   UNL     1       2.343   5.851   1.452  0.00  0.00    +0.024 C 
ATOM     30  C   UNL     1       2.335   5.348   0.007  0.00  0.00    +0.102 C 
ENDBRANCH  28  30
BRANCH  28  31
ATOM     31  C   UNL     1       3.629   3.166  -0.016  0.00  0.00    +0.102 C 
ATOM     32  C   UNL     1       4.060   2.923  -1.463  0.00  0.00    +0.024 C 
ENDBRANCH  28  31
ENDBRANCH  22  28
ENDBRANCH  20  25
ENDBRANCH   1  21
TORSDOF 8
