REMARK  Name = ZINC59197855
REMARK  9 active torsions:
REMARK  status: ('A' for Active; 'I' for Inactive)
REMARK    1  A    between atoms: C_1  and  C_2
REMARK    2  A    between atoms: C_5  and  C_8
REMARK    3  A    between atoms: C_8  and  O_9
REMARK    4  A    between atoms: O_9  and  C_10
REMARK    5  A    between atoms: C_11  and  O_27
REMARK    6  A    between atoms: C_13  and  C_17
REMARK    7  A    between atoms: N_18  and  N_19
REMARK    8  A    between atoms: C_20  and  C_22
REMARK    9  A    between atoms: O_27  and  C_28
REMARK                            x       y       z     vdW  Elec       q    Type
REMARK                         _______ _______ _______ _____ _____    ______ ____
ROOT
ATOM      1  C   UNL     1       1.608  -6.080  -0.040  0.00  0.00    +0.175 A 
ATOM      2  C   UNL     1       1.709  -6.775   1.163  0.00  0.00    +0.163 A 
ATOM      3  C   UNL     1       1.908  -8.142   1.157  0.00  0.00    +0.059 A 
ATOM      4  C   UNL     1       2.008  -8.825  -0.058  0.00  0.00    -0.001 A 
ATOM      5  C   UNL     1       1.905  -8.122  -1.261  0.00  0.00    +0.027 A 
ATOM      6  C   UNL     1       1.701  -6.758  -1.247  0.00  0.00    +0.059 A 
ATOM      7  I   UNL     1       1.539  -5.707  -3.051  0.00  0.00    -0.040 I 
ENDROOT
BRANCH   4   8
ATOM      8  C   UNL     1       2.221 -10.284  -0.070  0.00  0.00    +0.138 C 
ATOM      9  N   UNL     1       2.313 -10.917  -1.200  0.00  0.00    -0.187 NA
BRANCH   9  10
ATOM     10  N   UNL     1       2.515 -12.303  -1.212  0.00  0.00    -0.203 N 
ATOM     11  C   UNL     1       2.611 -12.960  -2.385  0.00  0.00    +0.270 C 
ATOM     12  O   UNL     1       2.521 -12.349  -3.434  0.00  0.00    -0.268 OA
ATOM     13  H   UNL     1       2.586 -12.790  -0.376  0.00  0.00    +0.178 HD
BRANCH  11  14
ATOM     14  C   UNL     1       2.822 -14.410  -2.397  0.00  0.00    +0.075 A 
ATOM     15  C   UNL     1       2.953 -15.265  -3.481  0.00  0.00    +0.021 A 
ATOM     16  C   UNL     1       3.144 -16.591  -3.175  0.00  0.00    +0.008 A 
ATOM     17  C   UNL     1       3.193 -16.967  -1.874  0.00  0.00    +0.046 A 
ATOM     18  S   UNL     1       2.987 -15.533  -1.023  0.00  0.00    -0.092 S 
ENDBRANCH  11  14
ENDBRANCH   9  10
ENDBRANCH   4   8
BRANCH   2  19
ATOM     19  O   UNL     1       1.612  -6.107   2.344  0.00  0.00    -0.491 OA
ATOM     20  C   UNL     1       1.725  -6.883   3.539  0.00  0.00    +0.277 C 
ENDBRANCH   2  19
BRANCH   1  21
ATOM     21  O   UNL     1       1.413  -4.734  -0.032  0.00  0.00    -0.483 OA
BRANCH  21  22
ATOM     22  C   UNL     1       0.059  -4.275  -0.021  0.00  0.00    +0.264 C 
BRANCH  22  27
ATOM     23  C   UNL     1      -0.018   1.503   0.010  0.00  0.00    +0.044 C 
ATOM     24  C   UNL     1       0.002  -0.004   0.002  0.00  0.00    -0.050 A 
ATOM     25  C   UNL     1       0.006  -0.689  -1.199  0.00  0.00    +0.004 A 
ATOM     26  C   UNL     1       0.025  -2.071  -1.206  0.00  0.00    +0.007 A 
ATOM     27  C   UNL     1       0.040  -2.768  -0.013  0.00  0.00    -0.010 A 
ATOM     28  C   UNL     1       0.037  -2.084   1.188  0.00  0.00    +0.007 A 
ATOM     29  C   UNL     1       0.023  -0.702   1.195  0.00  0.00    +0.004 A 
ENDBRANCH  22  27
ENDBRANCH  21  22
ENDBRANCH   1  21
TORSDOF 7
