REMARK  Name = ZINC12625731
REMARK  9 active torsions:
REMARK  status: ('A' for Active; 'I' for Inactive)
REMARK    1  A    between atoms: C_1  and  C_2
REMARK    2  A    between atoms: C_2  and  C_30
REMARK    3  A    between atoms: N_3  and  N_4
REMARK    4  A    between atoms: C_5  and  C_18
REMARK    5  A    between atoms: N_9  and  C_10
REMARK    6  A    between atoms: C_13  and  O_16
REMARK    7  A    between atoms: O_16  and  C_17
REMARK    8  A    between atoms: C_21  and  C_24
REMARK    9  A    between atoms: C_33  and  O_36
REMARK                            x       y       z     vdW  Elec       q    Type
REMARK                         _______ _______ _______ _____ _____    ______ ____
ROOT
ATOM      1  N   UNL     1       8.545   3.667   0.077  0.00  0.00    -0.207 N 
ATOM      2  C   UNL     1       7.377   4.379   0.078  0.00  0.00    +0.082 A 
ATOM      3  C   UNL     1       7.417   5.727   0.007  0.00  0.00    +0.077 A 
ATOM      4  S   UNL     1       9.171   6.047  -0.073  0.00  0.00    -0.056 S 
ATOM      5  C   UNL     1       9.736   4.355  -0.007  0.00  0.00    +0.195 A 
ATOM      6  N   UNL     1      10.969   3.887  -0.029  0.00  0.00    -0.222 NA
ENDROOT
BRANCH   6   7
ATOM      7  C   UNL     1      12.030   4.752  -0.007  0.00  0.00    +0.067 A 
ATOM      8  C   UNL     1      12.506   5.307  -1.197  0.00  0.00    +0.031 A 
ATOM      9  C   UNL     1      13.572   6.182  -1.169  0.00  0.00    +0.048 A 
ATOM     10  C   UNL     1      14.178   6.502   0.038  0.00  0.00    +0.120 A 
ATOM     11  C   UNL     1      13.712   5.949   1.222  0.00  0.00    +0.048 A 
ATOM     12  C   UNL     1      12.643   5.077   1.205  0.00  0.00    +0.031 A 
BRANCH  10  13
ATOM     13  O   UNL     1      15.232   7.361   0.059  0.00  0.00    -0.495 OA
ATOM     14  C   UNL     1      15.661   7.894  -1.195  0.00  0.00    +0.277 C 
ENDBRANCH  10  13
ENDBRANCH   6   7
BRANCH   2  15
ATOM     15  C   UNL     1       6.079   3.677   0.162  0.00  0.00    +0.001 A 
ATOM     16  C   UNL     1       4.943   4.235  -0.429  0.00  0.00    +0.010 A 
ATOM     17  C   UNL     1       3.734   3.581  -0.350  0.00  0.00    +0.009 A 
ATOM     18  C   UNL     1       3.643   2.361   0.321  0.00  0.00    -0.018 A 
ATOM     19  C   UNL     1       4.776   1.806   0.916  0.00  0.00    +0.009 A 
ATOM     20  C   UNL     1       5.987   2.455   0.833  0.00  0.00    +0.010 A 
BRANCH  18  21
ATOM     21  C   UNL     1       2.341   1.658   0.406  0.00  0.00    -0.018 A 
ATOM     22  C   UNL     1       1.206   2.214  -0.181  0.00  0.00    +0.008 A 
ATOM     23  C   UNL     1      -0.004   1.555  -0.099  0.00  0.00    +0.001 A 
ATOM     24  C   UNL     1      -0.091   0.345   0.567  0.00  0.00    +0.000 A 
ATOM     25  C   UNL     1       1.032  -0.211   1.153  0.00  0.00    +0.001 A 
ATOM     26  C   UNL     1       2.247   0.439   1.076  0.00  0.00    +0.008 A 
ENDBRANCH  18  21
ENDBRANCH   2  15
BRANCH   1  29
ATOM     27  C   UNL     1       9.899   2.237  -1.855  0.00  0.00    +0.068 C 
ATOM     28  C   UNL     1       9.215   1.563  -0.694  0.00  0.00    +0.066 C 
ATOM     29  N   UNL     1       8.531   2.268   0.155  0.00  0.00    -0.169 NA
BRANCH  28  30
ATOM     30  C   UNL     1       9.322   0.103  -0.522  0.00  0.00    -0.002 A 
ATOM     31  C   UNL     1       8.694  -0.524   0.557  0.00  0.00    +0.013 A 
ATOM     32  C   UNL     1       8.792  -1.890   0.710  0.00  0.00    +0.046 A 
ATOM     33  C   UNL     1       9.524  -2.642  -0.200  0.00  0.00    +0.117 A 
ATOM     34  C   UNL     1      10.156  -2.022  -1.271  0.00  0.00    +0.046 A 
ATOM     35  C   UNL     1      10.058  -0.658  -1.435  0.00  0.00    +0.013 A 
BRANCH  33  36
ATOM     36  O   UNL     1       9.623  -3.988  -0.042  0.00  0.00    -0.507 OA
ATOM     37  H   UNL     1      10.376  -4.266   0.496  0.00  0.00    +0.292 HD
ENDBRANCH  33  36
ENDBRANCH  28  30
ENDBRANCH   1  29
TORSDOF 7
