REMARK  Name = ZINC37725479
REMARK  12 active torsions:
REMARK  status: ('A' for Active; 'I' for Inactive)
REMARK    1  A    between atoms: C_1  and  C_2
REMARK    2  A    between atoms: C_2  and  C_3
REMARK    3  A    between atoms: C_3  and  C_5
REMARK    4  A    between atoms: C_3  and  N_6
REMARK    5  A    between atoms: C_7  and  C_9
REMARK    6  A    between atoms: C_9  and  O_10
REMARK    7  A    between atoms: O_10  and  C_11
REMARK    8  A    between atoms: C_16  and  C_17
REMARK    9  A    between atoms: C_17  and  C_18
REMARK   10  A    between atoms: C_18  and  C_20
REMARK   11  A    between atoms: C_18  and  N_22
REMARK   12  A    between atoms: C_20  and  C_21
REMARK                            x       y       z     vdW  Elec       q    Type
REMARK                         _______ _______ _______ _____ _____    ______ ____
ROOT
ATOM      1  C   UNL     1       0.210   0.778   7.176  0.00  0.00    +0.124 A 
ATOM      2  C   UNL     1      -1.151   1.026   7.282  0.00  0.00    +0.047 A 
ATOM      3  C   UNL     1      -1.698   1.365   8.503  0.00  0.00    +0.019 A 
ATOM      4  C   UNL     1      -0.889   1.459   9.622  0.00  0.00    +0.018 A 
ATOM      5  C   UNL     1       0.468   1.213   9.520  0.00  0.00    +0.022 A 
ATOM      6  C   UNL     1       1.018   0.867   8.300  0.00  0.00    -0.006 A 
ATOM      7 BR   UNL     1      -1.641   1.925  11.294  0.00  0.00    -0.050 Br
ENDROOT
BRANCH   1   8
ATOM      8  O   UNL     1       0.750   0.443   5.975  0.00  0.00    -0.483 OA
BRANCH   8   9
ATOM      9  C   UNL     1      -0.142   0.370   4.861  0.00  0.00    +0.324 C 
BRANCH   9  11
ATOM     10  N   UNL     1      -0.008  -0.140   2.444  0.00  0.00    -0.310 N 
ATOM     11  C   UNL     1       0.630  -0.011   3.624  0.00  0.00    +0.251 C 
ATOM     12  O   UNL     1       1.826  -0.202   3.690  0.00  0.00    -0.272 OA
ATOM     13  H   UNL     1      -0.965   0.013   2.391  0.00  0.00    +0.149 HD
BRANCH  10  14
ATOM     14  C   UNL     1       0.742  -0.511   1.242  0.00  0.00    +0.070 C 
ATOM     15  C   UNL     1       0.872  -2.034   1.171  0.00  0.00    +0.028 C 
BRANCH  14  17
ATOM     16  C   UNL     1      -0.019   1.526   0.010  0.00  0.00    +0.005 C 
ATOM     17  C   UNL     1       0.002  -0.004   0.002  0.00  0.00    +0.018 C 
ENDBRANCH  14  17
ENDBRANCH  10  14
ENDBRANCH   9  11
ENDBRANCH   8   9
ENDBRANCH   1   8
BRANCH   6  18
ATOM     18  C   UNL     1       2.495   0.591   8.191  0.00  0.00    +0.022 C 
BRANCH  18  19
ATOM     19  C   UNL     1       3.220   1.865   7.750  0.00  0.00    -0.071 C 
BRANCH  19  20
ATOM     20  N   UNL     1       3.092   2.888   8.796  0.00  0.00    +0.380 N 
ATOM     21  H   UNL     1       3.502   2.547   9.652  0.00  0.00    -0.090 HD
ATOM     22  H   UNL     1       3.570   3.728   8.505  0.00  0.00    -0.090 HD
ATOM     23  H   UNL     1       2.116   3.092   8.949  0.00  0.00    -0.090 HD
ENDBRANCH  19  20
BRANCH  19  24
ATOM     24  C   UNL     1       4.700   1.555   7.518  0.00  0.00    -0.019 C 
ATOM     25  C   UNL     1       5.399   2.796   6.958  0.00  0.00    +0.002 C 
ENDBRANCH  19  24
ENDBRANCH  18  19
ENDBRANCH   6  18
TORSDOF 9
