REMARK  Name = ZINC39631566
REMARK  14 active torsions:
REMARK  status: ('A' for Active; 'I' for Inactive)
REMARK    1  A    between atoms: C_1  and  C_2
REMARK    2  A    between atoms: C_2  and  C_4
REMARK    3  A    between atoms: C_2  and  N_11
REMARK    4  A    between atoms: C_4  and  C_5
REMARK    5  A    between atoms: C_5  and  C_6
REMARK    6  A    between atoms: C_6  and  C_7
REMARK    7  A    between atoms: C_7  and  C_8
REMARK    8  A    between atoms: C_7  and  C_9
REMARK    9  A    between atoms: C_7  and  O_10
REMARK   10  A    between atoms: C_12  and  C_14
REMARK   11  A    between atoms: C_25  and  C_27
REMARK   12  A    between atoms: C_27  and  C_29
REMARK   13  A    between atoms: C_27  and  O_30
REMARK   14  A    between atoms: O_30  and  C_31
REMARK                            x       y       z     vdW  Elec       q    Type
REMARK                         _______ _______ _______ _____ _____    ______ ____
ROOT
ATOM      1  C   UNL     1       0.668  -0.896  -3.568  0.00  0.00    +0.100 C 
ATOM      2  C   UNL     1       1.748   0.081  -4.083  0.00  0.00    +0.121 C 
ATOM      3  N   UNL     1       1.659  -0.007  -5.560  0.00  0.00    -0.297 N 
ATOM      4  C   UNL     1       0.205  -0.099  -5.836  0.00  0.00    +0.115 C 
ATOM      5  C   UNL     1      -0.343  -1.011  -4.721  0.00  0.00    -0.004 C 
ATOM      6  C   UNL     1      -1.717  -0.525  -4.269  0.00  0.00    -0.010 C 
ATOM      7  C   UNL     1      -2.718  -0.703  -5.414  0.00  0.00    -0.082 C 
ATOM      8  N   UNL     1      -2.780  -2.119  -5.796  0.00  0.00    +0.379 N 
ATOM      9  C   UNL     1      -1.478  -2.554  -6.317  0.00  0.00    -0.082 C 
ATOM     10  C   UNL     1      -0.424  -2.454  -5.211  0.00  0.00    -0.010 C 
ATOM     11  C   UNL     1       2.671  -0.004  -6.450  0.00  0.00    +0.256 C 
ATOM     12  O   UNL     1       3.820  -0.018  -6.062  0.00  0.00    -0.272 OA
ATOM     13  H   UNL     1      -3.020  -2.674  -4.989  0.00  0.00    -0.086 HD
ATOM     14  H   UNL     1      -3.484  -2.243  -6.508  0.00  0.00    -0.086 HD
ENDROOT
BRANCH   1  16
ATOM     15  N   UNL     1      -0.575  -1.172  -1.447  0.00  0.00    -0.312 N 
ATOM     16  C   UNL     1       0.000  -0.339  -2.337  0.00  0.00    +0.218 C 
ATOM     17  O   UNL     1      -0.020   0.859  -2.148  0.00  0.00    -0.275 OA
ATOM     18  H   UNL     1      -0.559  -2.130  -1.599  0.00  0.00    +0.149 HD
BRANCH  15  20
ATOM     19  C   UNL     1      -0.179  -0.417   0.845  0.00  0.00    +0.028 C 
ATOM     20  C   UNL     1      -1.224  -0.630  -0.251  0.00  0.00    +0.070 C 
BRANCH  20  21
ATOM     21  C   UNL     1      -2.287  -1.614   0.242  0.00  0.00    +0.022 C 
BRANCH  21  22
ATOM     22  C   UNL     1      -3.398  -1.731  -0.803  0.00  0.00    +0.005 C 
BRANCH  22  23
ATOM     23  C   UNL     1      -4.461  -2.715  -0.310  0.00  0.00    +0.034 C 
BRANCH  23  24
ATOM     24  C   UNL     1      -5.571  -2.833  -1.356  0.00  0.00    +0.061 C 
ATOM     25  C   UNL     1      -4.980  -3.339  -2.673  0.00  0.00    +0.041 C 
ATOM     26  C   UNL     1      -6.634  -3.817  -0.863  0.00  0.00    +0.041 C 
BRANCH  24  27
ATOM     27  O   UNL     1      -6.168  -1.551  -1.563  0.00  0.00    -0.389 OA
ATOM     28  H   UNL     1      -6.564  -1.169  -0.768  0.00  0.00    +0.210 HD
ENDBRANCH  24  27
ENDBRANCH  23  24
ENDBRANCH  22  23
ENDBRANCH  21  22
ENDBRANCH  20  21
ENDBRANCH  15  20
ENDBRANCH   1  16
BRANCH  11  29
ATOM     29  C   UNL     1       2.374   0.017  -7.928  0.00  0.00    +0.256 C 
ATOM     30  C   UNL     1       1.710   1.345  -8.296  0.00  0.00    +0.062 C 
BRANCH  29  31
ATOM     31  O   UNL     1       3.592  -0.126  -8.660  0.00  0.00    -0.480 OA
BRANCH  31  32
ATOM     32  C   UNL     1       3.501  -0.637  -9.916  0.00  0.00    +0.122 A 
ATOM     33  C   UNL     1       4.652  -0.908 -10.641  0.00  0.00    +0.045 A 
ATOM     34  C   UNL     1       4.557  -1.429 -11.917  0.00  0.00    +0.004 A 
ATOM     35  C   UNL     1       3.316  -1.680 -12.471  0.00  0.00    +0.000 A 
ATOM     36  C   UNL     1       2.167  -1.411 -11.751  0.00  0.00    +0.004 A 
ATOM     37  C   UNL     1       2.257  -0.896 -10.472  0.00  0.00    +0.045 A 
ENDBRANCH  31  32
ENDBRANCH  29  31
ENDBRANCH  11  29
TORSDOF 10
