REMARK  Name = ZINC23124224
REMARK  10 active torsions:
REMARK  status: ('A' for Active; 'I' for Inactive)
REMARK    1  A    between atoms: C_1  and  C_2
REMARK    2  A    between atoms: C_2  and  N_3
REMARK    3  A    between atoms: N_3  and  C_4
REMARK    4  A    between atoms: N_3  and  S_6
REMARK    5  A    between atoms: C_4  and  C_5
REMARK    6  A    between atoms: S_6  and  C_9
REMARK    7  A    between atoms: C_12  and  O_30
REMARK    8  A    between atoms: C_13  and  N_15
REMARK    9  A    between atoms: C_16  and  C_18
REMARK   10  A    between atoms: O_30  and  C_31
REMARK                            x       y       z     vdW  Elec       q    Type
REMARK                         _______ _______ _______ _____ _____    ______ ____
ROOT
ATOM      1  C   UNL     1      -1.142   1.532   1.405  0.00  0.00    +0.107 A 
ATOM      2  C   UNL     1      -0.893   2.809   1.873  0.00  0.00    +0.032 A 
ATOM      3  C   UNL     1      -1.556   3.281   2.990  0.00  0.00    +0.050 A 
ATOM      4  C   UNL     1      -2.466   2.471   3.650  0.00  0.00    +0.150 A 
ATOM      5  C   UNL     1      -2.713   1.182   3.182  0.00  0.00    +0.078 A 
ATOM      6  C   UNL     1      -2.048   0.717   2.058  0.00  0.00    +0.055 A 
ENDROOT
BRANCH   5   7
ATOM      7  N   UNL     1      -3.632   0.358   3.846  0.00  0.00    -0.279 N 
ATOM      8  C   UNL     1      -3.518  -0.982   3.763  0.00  0.00    +0.258 C 
ATOM      9  O   UNL     1      -2.657  -1.475   3.065  0.00  0.00    -0.271 OA
ATOM     10  H   UNL     1      -4.447   0.806   4.434  0.00  0.00    +0.155 HD
BRANCH   8  11
ATOM     11  C   UNL     1      -4.460  -1.868   4.537  0.00  0.00    +0.266 C 
ATOM     12  C   UNL     1      -5.883  -1.684   4.008  0.00  0.00    +0.090 C 
ATOM     13  C   UNL     1      -6.796  -2.731   4.590  0.00  0.00    -0.029 A 
ATOM     14  C   UNL     1      -8.160  -2.519   4.614  0.00  0.00    +0.004 A 
ATOM     15  C   UNL     1      -9.004  -3.481   5.140  0.00  0.00    +0.000 A 
ATOM     16  C   UNL     1      -8.492  -4.663   5.645  0.00  0.00    +0.001 A 
ATOM     17  C   UNL     1      -7.130  -4.889   5.629  0.00  0.00    +0.015 A 
ATOM     18  C   UNL     1      -6.276  -3.921   5.102  0.00  0.00    +0.062 A 
ATOM     19  C   UNL     1      -4.812  -4.145   5.080  0.00  0.00    +0.340 C 
ATOM     20  O   UNL     1      -4.305  -5.079   5.668  0.00  0.00    -0.245 OA
ATOM     21  O   UNL     1      -4.062  -3.260   4.375  0.00  0.00    -0.448 OA
ENDBRANCH   8  11
ENDBRANCH   5   7
BRANCH   1  22
ATOM     22  S   UNL     1      -0.298   0.939  -0.024  0.00  0.00    +0.061 S 
ATOM     23  O   UNL     1      -0.296  -0.479   0.065  0.00  0.00    -0.153 OA
ATOM     24  O   UNL     1       0.899   1.696  -0.131  0.00  0.00    -0.153 OA
BRANCH  22  25
ATOM     25  N   UNL     1      -1.225   1.330  -1.339  0.00  0.00    -0.177 NA
BRANCH  25  27
ATOM     26  C   UNL     1      -0.078   2.417  -3.205  0.00  0.00    +0.022 C 
ATOM     27  C   UNL     1      -1.026   2.611  -2.020  0.00  0.00    +0.106 C 
ENDBRANCH  25  27
BRANCH  25  28
ATOM     28  C   UNL     1      -2.245   0.394  -1.820  0.00  0.00    +0.106 C 
ATOM     29  C   UNL     1      -3.600   0.761  -1.213  0.00  0.00    +0.022 C 
ENDBRANCH  25  28
ENDBRANCH  22  25
ENDBRANCH   1  22
BRANCH   4  30
ATOM     30  O   UNL     1      -3.115   2.933   4.752  0.00  0.00    -0.454 OA
BRANCH  30  31
ATOM     31  C   UNL     1      -2.562   2.688   5.968  0.00  0.00    +0.129 A 
ATOM     32  C   UNL     1      -1.320   2.074   6.056  0.00  0.00    +0.046 A 
ATOM     33  C   UNL     1      -0.758   1.829   7.294  0.00  0.00    +0.004 A 
ATOM     34  C   UNL     1      -1.435   2.188   8.445  0.00  0.00    +0.000 A 
ATOM     35  C   UNL     1      -2.674   2.795   8.361  0.00  0.00    +0.004 A 
ATOM     36  C   UNL     1      -3.239   3.046   7.125  0.00  0.00    +0.046 A 
ENDBRANCH  30  31
ENDBRANCH   4  30
TORSDOF 8
