REMARK  Name = ZINC08845454
REMARK  11 active torsions:
REMARK  status: ('A' for Active; 'I' for Inactive)
REMARK    1  A    between atoms: C_1  and  C_2
REMARK    2  A    between atoms: C_4  and  O_39
REMARK    3  A    between atoms: C_5  and  C_9
REMARK    4  A    between atoms: N_17  and  C_27
REMARK    5  A    between atoms: C_18  and  C_20
REMARK    6  A    between atoms: C_27  and  C_28
REMARK    7  A    between atoms: C_28  and  C_29
REMARK    8  A    between atoms: C_32  and  O_37
REMARK    9  A    between atoms: C_33  and  O_35
REMARK   10  A    between atoms: O_35  and  C_36
REMARK   11  A    between atoms: O_37  and  C_38
REMARK                            x       y       z     vdW  Elec       q    Type
REMARK                         _______ _______ _______ _____ _____    ______ ____
ROOT
ATOM      1  C   UNL     1       0.058  -4.256  -0.011  0.00  0.00    +0.075 A 
ATOM      2  C   UNL     1       1.056  -5.053  -0.475  0.00  0.00    +0.035 A 
ATOM      3  C   UNL     1       0.621  -6.382  -0.268  0.00  0.00    +0.153 A 
ATOM      4  N   UNL     1      -0.572  -6.312   0.288  0.00  0.00    -0.168 NA
ATOM      5  N   UNL     1      -0.921  -5.086   0.454  0.00  0.00    -0.276 N 
ATOM      6  H   UNL     1      -1.758  -4.794   0.849  0.00  0.00    +0.189 HD
ATOM      7  C   UNL     1       1.677  -7.286  -0.758  0.00  0.00    +0.268 C 
ATOM      8  O   UNL     1       1.619  -8.500  -0.728  0.00  0.00    -0.268 OA
ATOM      9  N   UNL     1       2.712  -6.579  -1.243  0.00  0.00    -0.285 N 
ATOM     10  C   UNL     1       2.417  -5.147  -1.109  0.00  0.00    +0.141 C 
ENDROOT
BRANCH   1  15
ATOM     11  C   UNL     1      -0.018   1.503   0.010  0.00  0.00    +0.045 C 
ATOM     12  C   UNL     1       0.002  -0.004   0.002  0.00  0.00    -0.029 A 
ATOM     13  C   UNL     1       0.006  -0.685  -1.201  0.00  0.00    +0.050 A 
ATOM     14  C   UNL     1       0.024  -2.070  -1.215  0.00  0.00    +0.126 A 
ATOM     15  C   UNL     1       0.039  -2.777  -0.007  0.00  0.00    +0.043 A 
ATOM     16  C   UNL     1       0.036  -2.080   1.201  0.00  0.00    +0.034 A 
ATOM     17  C   UNL     1       0.023  -0.699   1.199  0.00  0.00    +0.045 A 
ATOM     18 CL   UNL     1       0.026   0.168   2.703  0.00  0.00    -0.083 Cl
BRANCH  14  19
ATOM     19  O   UNL     1       0.027  -2.740  -2.397  0.00  0.00    -0.506 OA
ATOM     20  H   UNL     1       0.911  -2.922  -2.744  0.00  0.00    +0.292 HD
ENDBRANCH  14  19
ENDBRANCH   1  15
BRANCH  10  21
ATOM     21  C   UNL     1       2.401  -4.493  -2.467  0.00  0.00    -0.022 A 
ATOM     22  C   UNL     1       1.859  -5.161  -3.549  0.00  0.00    +0.008 A 
ATOM     23  C   UNL     1       1.843  -4.562  -4.795  0.00  0.00    +0.038 A 
ATOM     24  C   UNL     1       2.371  -3.292  -4.958  0.00  0.00    +0.123 A 
ATOM     25  C   UNL     1       2.913  -2.624  -3.873  0.00  0.00    +0.038 A 
ATOM     26  C   UNL     1       2.923  -3.223  -2.628  0.00  0.00    +0.008 A 
ATOM     27  F   UNL     1       2.356  -2.706  -6.175  0.00  0.00    -0.205 F 
ENDBRANCH  10  21
BRANCH   9  28
ATOM     28  C   UNL     1       3.937  -7.145  -1.812  0.00  0.00    +0.114 C 
BRANCH  28  29
ATOM     29  C   UNL     1       3.754  -7.346  -3.318  0.00  0.00    +0.054 C 
BRANCH  29  30
ATOM     30  C   UNL     1       5.014  -7.928  -3.905  0.00  0.00    -0.042 A 
ATOM     31  C   UNL     1       6.012  -7.090  -4.365  0.00  0.00    +0.007 A 
ATOM     32  C   UNL     1       7.170  -7.620  -4.904  0.00  0.00    +0.049 A 
ATOM     33  C   UNL     1       7.332  -8.994  -4.982  0.00  0.00    +0.161 A 
ATOM     34  C   UNL     1       6.327  -9.838  -4.518  0.00  0.00    +0.162 A 
ATOM     35  C   UNL     1       5.171  -9.300  -3.975  0.00  0.00    +0.053 A 
BRANCH  34  36
ATOM     36  O   UNL     1       6.482 -11.187  -4.593  0.00  0.00    -0.491 OA
ATOM     37  C   UNL     1       5.410 -11.991  -4.097  0.00  0.00    +0.277 C 
ENDBRANCH  34  36
BRANCH  33  38
ATOM     38  O   UNL     1       8.470  -9.517  -5.512  0.00  0.00    -0.491 OA
ATOM     39  C   UNL     1       9.458  -8.591  -5.969  0.00  0.00    +0.277 C 
ENDBRANCH  33  38
ENDBRANCH  29  30
ENDBRANCH  28  29
ENDBRANCH   9  28
TORSDOF 8
