REMARK  Name = ZINC58167351
REMARK  8 active torsions:
REMARK  status: ('A' for Active; 'I' for Inactive)
REMARK    1  A    between atoms: C_1  and  C_2
REMARK    2  A    between atoms: N_7  and  S_9
REMARK    3  A    between atoms: S_9  and  C_12
REMARK    4  A    between atoms: C_15  and  N_21
REMARK    5  A    between atoms: C_16  and  N_18
REMARK    6  A    between atoms: N_21  and  C_22
REMARK    7  A    between atoms: C_22  and  C_23
REMARK    8  A    between atoms: C_26  and  C_29
REMARK                            x       y       z     vdW  Elec       q    Type
REMARK                         _______ _______ _______ _____ _____    ______ ____
ROOT
ATOM      1  C   UNL     1       2.717  -3.441  -0.148  0.00  0.00    +0.108 A 
ATOM      2  C   UNL     1       2.054  -4.389  -0.906  0.00  0.00    +0.030 A 
ATOM      3  C   UNL     1       2.311  -4.496  -2.259  0.00  0.00    +0.027 A 
ATOM      4  C   UNL     1       3.236  -3.650  -2.858  0.00  0.00    +0.058 A 
ATOM      5  C   UNL     1       3.900  -2.699  -2.093  0.00  0.00    +0.149 A 
ATOM      6  C   UNL     1       3.635  -2.594  -0.742  0.00  0.00    +0.063 A 
ENDROOT
BRANCH   1   7
ATOM      7  S   UNL     1       2.386  -3.308   1.578  0.00  0.00    +0.061 S 
ATOM      8  O   UNL     1       3.531  -2.705   2.165  0.00  0.00    -0.153 OA
ATOM      9  O   UNL     1       1.893  -4.573   1.996  0.00  0.00    -0.153 OA
BRANCH   7  15
ATOM     10  C   UNL     1       0.771   1.482   1.114  0.00  0.00    +0.009 C 
ATOM     11  C   UNL     1       0.611  -0.020   0.871  0.00  0.00    +0.002 C 
ATOM     12  C   UNL     1      -0.868  -0.400   0.976  0.00  0.00    +0.006 C 
ATOM     13  C   UNL     1      -1.034  -1.896   0.700  0.00  0.00    +0.017 C 
ATOM     14  C   UNL     1      -0.254  -2.694   1.750  0.00  0.00    +0.109 C 
ATOM     15  N   UNL     1       1.141  -2.232   1.756  0.00  0.00    -0.176 NA
ATOM     16  C   UNL     1       1.409  -0.797   1.922  0.00  0.00    +0.112 C 
ENDBRANCH   7  15
ENDBRANCH   1   7
BRANCH   5  17
ATOM     17  N   UNL     1       4.887  -1.797  -2.727  0.00  0.00    +0.058 N 
ATOM     18  O   UNL     1       5.616  -2.213  -3.596  0.00  0.00    -0.126 OA
ATOM     19  O   UNL     1       4.963  -0.642  -2.375  0.00  0.00    -0.126 OA
ENDBRANCH   5  17
BRANCH   4  20
ATOM     20  N   UNL     1       3.498  -3.756  -4.226  0.00  0.00    -0.335 N 
ATOM     21  H   UNL     1       4.079  -3.111  -4.659  0.00  0.00    +0.147 HD
BRANCH  20  22
ATOM     22  C   UNL     1       2.896  -4.840  -5.005  0.00  0.00    +0.174 C 
BRANCH  22  23
ATOM     23  C   UNL     1       3.334  -4.729  -6.443  0.00  0.00    +0.102 A 
ATOM     24  N   UNL     1       3.298  -5.726  -7.353  0.00  0.00    -0.342 N 
ATOM     25  H   UNL     1       2.988  -6.632  -7.203  0.00  0.00    +0.167 HD
ATOM     26  C   UNL     1       3.783  -5.212  -8.535  0.00  0.00    +0.064 A 
ATOM     27  C   UNL     1       4.097  -3.911  -8.290  0.00  0.00    +0.110 A 
ATOM     28  N   UNL     1       3.806  -3.651  -7.011  0.00  0.00    -0.348 N 
ATOM     29  H   UNL     1       3.929  -2.795  -6.572  0.00  0.00    +0.166 HD
BRANCH  26  30
ATOM     30  C   UNL     1       3.933  -5.933  -9.818  0.00  0.00    -0.000 A 
ATOM     31  C   UNL     1       3.561  -7.274  -9.915  0.00  0.00    +0.010 A 
ATOM     32  C   UNL     1       3.703  -7.941 -11.115  0.00  0.00    +0.001 A 
ATOM     33  C   UNL     1       4.215  -7.283 -12.219  0.00  0.00    +0.000 A 
ATOM     34  C   UNL     1       4.587  -5.954 -12.128  0.00  0.00    +0.001 A 
ATOM     35  C   UNL     1       4.444  -5.274 -10.936  0.00  0.00    +0.010 A 
ENDBRANCH  26  30
ENDBRANCH  22  23
ENDBRANCH  20  22
ENDBRANCH   4  20
TORSDOF 7
