REMARK  Name = ZINC44747713
REMARK  5 active torsions:
REMARK  status: ('A' for Active; 'I' for Inactive)
REMARK    1  A    between atoms: C_1  and  C_2
REMARK    2  A    between atoms: C_4  and  N_19
REMARK    3  A    between atoms: C_7  and  C_8
REMARK    4  A    between atoms: N_10  and  C_11
REMARK    5  A    between atoms: C_11  and  C_16
REMARK                            x       y       z     vdW  Elec       q    Type
REMARK                         _______ _______ _______ _____ _____    ______ ____
ROOT
ATOM      1  C   UNL     1       0.242   0.021   2.481  0.00  0.00    +0.245 C 
ATOM      2  O   UNL     1       0.134   1.232   2.503  0.00  0.00    -0.270 OA
ATOM      3  N   UNL     1       0.465  -0.656   3.625  0.00  0.00    -0.295 N 
ATOM      4  H   UNL     1       0.550  -1.622   3.607  0.00  0.00    +0.150 HD
ENDROOT
BRANCH   1  11
ATOM      5  C   UNL     1      -0.512   1.452   0.082  0.00  0.00    +0.044 C 
ATOM      6  C   UNL     1      -0.235  -0.028   0.036  0.00  0.00    -0.036 A 
ATOM      7  C   UNL     1      -0.334  -0.714  -1.157  0.00  0.00    +0.036 A 
ATOM      8  C   UNL     1      -0.080  -2.073  -1.200  0.00  0.00    +0.126 A 
ATOM      9  C   UNL     1       0.275  -2.754  -0.049  0.00  0.00    +0.033 A 
ATOM     10  C   UNL     1       0.378  -2.080   1.150  0.00  0.00    +0.015 A 
ATOM     11  C   UNL     1       0.128  -0.708   1.200  0.00  0.00    +0.040 A 
BRANCH   8  12
ATOM     12  N   UNL     1      -0.189  -2.803  -2.484  0.00  0.00    +0.056 N 
ATOM     13  O   UNL     1      -0.499  -2.210  -3.491  0.00  0.00    -0.126 OA
ATOM     14  O   UNL     1       0.033  -3.990  -2.525  0.00  0.00    -0.126 OA
ENDBRANCH   8  12
ENDBRANCH   1  11
BRANCH   3  15
ATOM     15  C   UNL     1       0.577   0.067   4.894  0.00  0.00    +0.146 C 
ATOM     16  C   UNL     1       0.877  -0.931   6.025  0.00  0.00    +0.049 C 
ATOM     17  C   UNL     1      -0.418  -1.746   6.307  0.00  0.00    +0.072 C 
ATOM     18  S   UNL     1      -1.687  -0.416   6.186  0.00  0.00    -0.158 S 
ATOM     19  C   UNL     1      -0.751   0.808   5.183  0.00  0.00    +0.106 C 
BRANCH  15  20
ATOM     20  C   UNL     1       1.700   1.068   4.802  0.00  0.00    +0.380 C 
ATOM     21  O   UNL     1       2.353   1.159   3.776  0.00  0.00    -0.244 OA
ATOM     22  O   UNL     1       1.954   1.787   5.753  0.00  0.00    -0.244 OA
ENDBRANCH  15  20
ENDBRANCH   3  15
TORSDOF 4
