REMARK  Name = ZINC08849586
REMARK  7 active torsions:
REMARK  status: ('A' for Active; 'I' for Inactive)
REMARK    1  A    between atoms: C_4  and  C_7
REMARK    2  A    between atoms: C_10  and  S_22
REMARK    3  A    between atoms: N_11  and  C_12
REMARK    4  A    between atoms: C_12  and  C_13
REMARK    5  A    between atoms: S_22  and  C_23
REMARK    6  A    between atoms: C_23  and  C_24
REMARK    7  A    between atoms: N_26  and  C_27
REMARK                            x       y       z     vdW  Elec       q    Type
REMARK                         _______ _______ _______ _____ _____    ______ ____
ROOT
ATOM      1  C   UNL     1       3.754  14.032   0.695  0.00  0.00    +0.165 A 
ATOM      2  N   UNL     1       2.544  13.681   0.325  0.00  0.00    -0.128 NA
ATOM      3  N   UNL     1       2.450  12.400   0.290  0.00  0.00    -0.122 NA
ATOM      4  C   UNL     1       3.595  11.854   0.635  0.00  0.00    +0.193 A 
ATOM      5  N   UNL     1       4.462  12.872   0.910  0.00  0.00    -0.298 N 
ENDROOT
BRANCH   1   9
ATOM      6  C   UNL     1       5.202  17.998   1.157  0.00  0.00    +0.000 A 
ATOM      7  C   UNL     1       3.892  17.700   1.489  0.00  0.00    +0.001 A 
ATOM      8  C   UNL     1       3.415  16.414   1.341  0.00  0.00    +0.011 A 
ATOM      9  C   UNL     1       4.258  15.412   0.856  0.00  0.00    +0.019 A 
ATOM     10  C   UNL     1       5.580  15.718   0.528  0.00  0.00    +0.011 A 
ATOM     11  C   UNL     1       6.042  17.010   0.675  0.00  0.00    +0.001 A 
ENDBRANCH   1   9
BRANCH   5  12
ATOM     12  C   UNL     1       5.857  12.755   1.342  0.00  0.00    +0.161 C 
BRANCH  12  13
ATOM     13  C   UNL     1       5.931  12.879   2.842  0.00  0.00    -0.024 A 
ATOM     14  C   UNL     1       5.921  11.742   3.630  0.00  0.00    +0.009 A 
ATOM     15  C   UNL     1       5.989  11.851   5.006  0.00  0.00    +0.050 A 
ATOM     16  C   UNL     1       6.067  13.101   5.600  0.00  0.00    +0.166 A 
ATOM     17  C   UNL     1       6.077  14.245   4.806  0.00  0.00    +0.167 A 
ATOM     18  C   UNL     1       6.014  14.128   3.427  0.00  0.00    +0.055 A 
ATOM     19  O   UNL     1       6.159  15.339   5.619  0.00  0.00    -0.453 OA
ATOM     20  C   UNL     1       6.610  14.839   6.892  0.00  0.00    +0.466 C 
ATOM     21  O   UNL     1       6.143  13.477   6.910  0.00  0.00    -0.453 OA
ENDBRANCH  12  13
ENDBRANCH   5  12
BRANCH   4  22
ATOM     22  S   UNL     1       3.944  10.129   0.731  0.00  0.00    -0.077 S 
BRANCH  22  23
ATOM     23  C   UNL     1       2.338   9.456   0.238  0.00  0.00    +0.173 C 
BRANCH  23  24
ATOM     24  C   UNL     1       2.400   7.950   0.248  0.00  0.00    +0.227 C 
ATOM     25  O   UNL     1       3.429   7.388   0.558  0.00  0.00    -0.275 OA
ATOM     26  N   UNL     1       1.312   7.229  -0.087  0.00  0.00    -0.285 N 
ATOM     27  H   UNL     1       0.510   7.677  -0.400  0.00  0.00    +0.155 HD
BRANCH  26  28
ATOM     28  C   UNL     1       1.339   5.834   0.016  0.00  0.00    +0.034 A 
ATOM     29  C   UNL     1       2.520   5.141  -0.273  0.00  0.00    +0.024 A 
ATOM     30  C   UNL     1       2.575   3.786  -0.181  0.00  0.00    +0.010 A 
ATOM     31  C   UNL     1       1.434   3.063   0.208  0.00  0.00    -0.018 A 
ATOM     32  C   UNL     1       1.461   1.661   0.311  0.00  0.00    +0.008 A 
ATOM     33  C   UNL     1       0.339   0.991   0.690  0.00  0.00    +0.001 A 
ATOM     34  C   UNL     1      -0.843   1.673   0.974  0.00  0.00    +0.001 A 
ATOM     35  C   UNL     1      -0.905   3.030   0.891  0.00  0.00    +0.008 A 
ATOM     36  C   UNL     1       0.234   3.757   0.502  0.00  0.00    -0.016 A 
ATOM     37  C   UNL     1       0.203   5.157   0.400  0.00  0.00    +0.031 A 
ENDBRANCH  26  28
ENDBRANCH  23  24
ENDBRANCH  22  23
ENDBRANCH   4  22
TORSDOF 7
