REMARK  Name = ZINC20730784
REMARK  8 active torsions:
REMARK  status: ('A' for Active; 'I' for Inactive)
REMARK    1  A    between atoms: C_1  and  C_2
REMARK    2  A    between atoms: C_2  and  C_3
REMARK    3  A    between atoms: C_2  and  C_4
REMARK    4  A    between atoms: C_4  and  C_6
REMARK    5  A    between atoms: C_4  and  N_10
REMARK    6  A    between atoms: C_6  and  O_8
REMARK    7  A    between atoms: O_8  and  C_9
REMARK    8  A    between atoms: C_22  and  C_24
REMARK                            x       y       z     vdW  Elec       q    Type
REMARK                         _______ _______ _______ _____ _____    ______ ____
ROOT
ATOM      1  N   UNL     1      -1.216  -2.011   2.490  0.00  0.00    -0.286 N 
ATOM      2  C   UNL     1      -1.286  -2.610   1.285  0.00  0.00    +0.304 C 
ATOM      3  O   UNL     1      -1.466  -1.943   0.284  0.00  0.00    -0.253 OA
ATOM      4  N   UNL     1      -1.155  -3.948   1.188  0.00  0.00    -0.273 N 
ATOM      5  C   UNL     1      -1.121  -4.610  -0.124  0.00  0.00    +0.116 C 
ATOM      6  C   UNL     1      -2.345  -5.523  -0.260  0.00  0.00    +0.076 C 
ATOM      7  C   UNL     1      -2.508  -6.313   1.014  0.00  0.00    +0.066 A 
ATOM      8  C   UNL     1      -1.936  -5.985   2.193  0.00  0.00    +0.064 A 
ATOM      9  N   UNL     1      -2.315  -6.924   3.100  0.00  0.00    -0.346 N 
ATOM     10  H   UNL     1      -2.064  -6.956   4.037  0.00  0.00    +0.167 HD
ATOM     11  C   UNL     1      -3.109  -7.805   2.449  0.00  0.00    +0.197 A 
ATOM     12  N   UNL     1      -3.217  -7.430   1.201  0.00  0.00    -0.240 NA
ATOM     13  C   UNL     1      -1.038  -4.785   2.396  0.00  0.00    +0.159 C 
ATOM     14  H   UNL     1      -1.134  -2.547   3.294  0.00  0.00    +0.151 HD
ENDROOT
BRANCH  13  15
ATOM     15  C   UNL     1       0.391  -5.232   2.574  0.00  0.00    +0.015 A 
ATOM     16  C   UNL     1       0.755  -6.526   2.251  0.00  0.00    +0.028 A 
ATOM     17  C   UNL     1       2.066  -6.936   2.413  0.00  0.00    +0.041 A 
ATOM     18  C   UNL     1       3.013  -6.052   2.899  0.00  0.00    +0.023 A 
ATOM     19  C   UNL     1       2.650  -4.758   3.222  0.00  0.00    +0.040 A 
ATOM     20  C   UNL     1       1.339  -4.345   3.054  0.00  0.00    +0.129 A 
ATOM     21  F   UNL     1       0.984  -3.079   3.365  0.00  0.00    -0.205 F 
ATOM     22 CL   UNL     1       2.523  -8.561   2.009  0.00  0.00    -0.084 Cl
ENDBRANCH  13  15
BRANCH   1  23
ATOM     23  C   UNL     1      -1.263  -0.550   2.586  0.00  0.00    +0.186 C 
BRANCH  23  25
ATOM     24  C   UNL     1      -2.770   1.439   2.704  0.00  0.00    +0.009 C 
ATOM     25  C   UNL     1      -2.721  -0.087   2.604  0.00  0.00    +0.014 C 
ATOM     26  C   UNL     1      -3.415  -0.536   1.316  0.00  0.00    +0.009 C 
ENDBRANCH  23  25
BRANCH  23  27
ATOM     27  C   UNL     1      -0.580  -0.107   3.854  0.00  0.00    +0.328 C 
ATOM     28  O   UNL     1      -0.102  -0.928   4.601  0.00  0.00    -0.249 OA
BRANCH  27  29
ATOM     29  O   UNL     1      -0.502   1.199   4.154  0.00  0.00    -0.467 OA
ATOM     30  C   UNL     1       0.160   1.546   5.372  0.00  0.00    +0.280 C 
ENDBRANCH  27  29
ENDBRANCH  23  27
ENDBRANCH   1  23
TORSDOF 5
