REMARK  Name = ZINC02421524
REMARK  10 active torsions:
REMARK  status: ('A' for Active; 'I' for Inactive)
REMARK    1  A    between atoms: C_1  and  C_2
REMARK    2  A    between atoms: C_2  and  C_31
REMARK    3  A    between atoms: C_6  and  N_23
REMARK    4  A    between atoms: C_12  and  N_18
REMARK    5  A    between atoms: C_14  and  S_16
REMARK    6  A    between atoms: S_16  and  C_17
REMARK    7  A    between atoms: N_18  and  C_19
REMARK    8  A    between atoms: N_18  and  C_20
REMARK    9  A    between atoms: C_20  and  C_21
REMARK   10  A    between atoms: C_21  and  O_22
REMARK                            x       y       z     vdW  Elec       q    Type
REMARK                         _______ _______ _______ _____ _____    ______ ____
ROOT
ATOM      1  C   UNL     1       5.280  -2.906   0.631  0.00  0.00    +0.041 C 
ATOM      2  C   UNL     1       3.985  -2.161   0.961  0.00  0.00    +0.068 C 
ATOM      3  C   UNL     1       4.071  -0.724   0.444  0.00  0.00    +0.070 C 
ATOM      4  C   UNL     1       2.713  -0.079   0.509  0.00  0.00    -0.024 A 
ATOM      5  C   UNL     1       1.574  -0.810   0.640  0.00  0.00    +0.020 A 
ATOM      6  C   UNL     1       0.333  -0.166   0.683  0.00  0.00    +0.105 A 
ATOM      7  C   UNL     1       1.342   1.891   0.481  0.00  0.00    +0.089 A 
ATOM      8  C   UNL     1       2.631   1.332   0.426  0.00  0.00    +0.036 A 
ATOM      9  C   UNL     1       3.744   2.289   0.286  0.00  0.00    +0.094 A 
ATOM     10  C   UNL     1       3.385   3.641   0.230  0.00  0.00    +0.080 A 
ATOM     11  S   UNL     1       1.618   3.641   0.356  0.00  0.00    -0.066 S 
ATOM     12  C   UNL     1       4.347   4.633   0.100  0.00  0.00    +0.140 A 
ATOM     13  N   UNL     1       5.627   4.269   0.028  0.00  0.00    -0.206 NA
ATOM     14  C   UNL     1       5.955   2.984   0.081  0.00  0.00    +0.190 A 
ATOM     15  N   UNL     1       5.067   2.020   0.204  0.00  0.00    -0.221 NA
ATOM     16  C   UNL     1       1.612  -2.313   0.748  0.00  0.00    +0.199 C 
ATOM     17  O   UNL     1       2.880  -2.808   0.319  0.00  0.00    -0.369 OA
ATOM     18  C   UNL     1       3.767  -2.152   2.475  0.00  0.00    +0.041 C 
ATOM     19  N   UNL     1       0.191   1.187   0.605  0.00  0.00    -0.337 N 
ATOM     20  H   UNL     1      -0.729   1.643   0.638  0.00  0.00    +0.168 HD
ENDROOT
BRANCH   6  21
ATOM     21  N   UNL     1      -0.829  -0.915   0.810  0.00  0.00    -0.312 N 
ATOM     22  C   UNL     1      -1.736  -0.678  -0.322  0.00  0.00    +0.134 C 
ATOM     23  C   UNL     1      -2.974  -1.566  -0.173  0.00  0.00    +0.178 C 
ATOM     24  O   UNL     1      -3.598  -1.297   1.086  0.00  0.00    -0.377 OA
ATOM     25  C   UNL     1      -2.743  -1.519   2.211  0.00  0.00    +0.178 C 
ATOM     26  C   UNL     1      -1.502  -0.630   2.086  0.00  0.00    +0.134 C 
ENDBRANCH   6  21
BRANCH  14  27
ATOM     27  S   UNL     1       7.659   2.548  -0.018  0.00  0.00    -0.089 S 
ATOM     28  C   UNL     1       7.530   0.746   0.099  0.00  0.00    +0.093 C 
ENDBRANCH  14  27
BRANCH  12  29
ATOM     29  N   UNL     1       3.986   5.970   0.045  0.00  0.00    -0.315 N 
ATOM     30  C   UNL     1       3.194   6.349   1.223  0.00  0.00    +0.131 C 
BRANCH  29  31
ATOM     31  C   UNL     1       5.168   6.830  -0.093  0.00  0.00    +0.134 C 
BRANCH  31  32
ATOM     32  C   UNL     1       5.684   6.760  -1.532  0.00  0.00    +0.174 C 
BRANCH  32  33
ATOM     33  O   UNL     1       4.706   7.311  -2.416  0.00  0.00    -0.393 OA
ATOM     34  H   UNL     1       4.966   7.299  -3.347  0.00  0.00    +0.209 HD
ENDBRANCH  32  33
ENDBRANCH  31  32
ENDBRANCH  29  31
ENDBRANCH  12  29
TORSDOF 6
