REMARK  Name = ZINC33291564
REMARK  7 active torsions:
REMARK  status: ('A' for Active; 'I' for Inactive)
REMARK    1  A    between atoms: C_1  and  O_2
REMARK    2  A    between atoms: O_2  and  C_3
REMARK    3  A    between atoms: C_3  and  C_5
REMARK    4  A    between atoms: C_5  and  O_6
REMARK    5  A    between atoms: O_6  and  C_7
REMARK    6  A    between atoms: C_10  and  C_14
REMARK    7  A    between atoms: N_20  and  C_21
REMARK                            x       y       z     vdW  Elec       q    Type
REMARK                         _______ _______ _______ _____ _____    ______ ____
ROOT
ATOM      1  C   UNL     1       1.975  -8.021   3.117  0.00  0.00    +0.028 C 
ATOM      2  C   UNL     1       3.007  -8.689   2.542  0.00  0.00    +0.078 C 
ATOM      3  C   UNL     1       4.138  -8.164   1.754  0.00  0.00    +0.256 C 
ATOM      4  O   UNL     1       4.258  -6.974   1.527  0.00  0.00    -0.269 OA
ATOM      5  N   UNL     1       5.016  -9.045   1.304  0.00  0.00    -0.260 N 
ATOM      6  C   UNL     1       4.863 -10.388   1.572  0.00  0.00    +0.166 C 
ATOM      7  N   UNL     1       5.635 -11.387   1.206  0.00  0.00    -0.226 NA
ATOM      8  S   UNL     1       3.366 -10.439   2.544  0.00  0.00    -0.049 S 
ATOM      9  H   UNL     1       5.776  -8.743   0.781  0.00  0.00    +0.157 HD
ENDROOT
BRANCH   1  13
ATOM     10  C   UNL     1       1.400  -3.898   2.303  0.00  0.00    +0.158 A 
ATOM     11  C   UNL     1       1.799  -4.756   1.284  0.00  0.00    +0.085 A 
ATOM     12  C   UNL     1       1.987  -6.096   1.543  0.00  0.00    +0.031 A 
ATOM     13  C   UNL     1       1.776  -6.593   2.835  0.00  0.00    -0.021 A 
ATOM     14  C   UNL     1       1.375  -5.725   3.857  0.00  0.00    +0.031 A 
ATOM     15  C   UNL     1       1.194  -4.385   3.588  0.00  0.00    +0.085 A 
ATOM     16 CL   UNL     1       0.703  -3.306   4.856  0.00  0.00    -0.080 Cl
ATOM     17 CL   UNL     1       2.059  -4.138  -0.318  0.00  0.00    -0.080 Cl
BRANCH  10  18
ATOM     18  O   UNL     1       1.216  -2.577   2.042  0.00  0.00    -0.478 OA
BRANCH  18  19
ATOM     19  C   UNL     1       2.350  -1.721   2.198  0.00  0.00    +0.349 C 
BRANCH  19  20
ATOM     20  C   UNL     1       1.959  -0.304   1.868  0.00  0.00    +0.345 C 
ATOM     21  O   UNL     1       0.825  -0.053   1.533  0.00  0.00    -0.247 OA
BRANCH  20  23
ATOM     22  C   UNL     1       2.429   1.999   1.619  0.00  0.00    +0.280 C 
ATOM     23  O   UNL     1       2.869   0.679   1.946  0.00  0.00    -0.466 OA
ENDBRANCH  20  23
ENDBRANCH  19  20
ENDBRANCH  18  19
ENDBRANCH  10  18
ENDBRANCH   1  13
BRANCH   7  24
ATOM     24  C   UNL     1       5.316 -12.668   1.572  0.00  0.00    +0.067 A 
ATOM     25  C   UNL     1       4.910 -12.943   2.880  0.00  0.00    +0.030 A 
ATOM     26  C   UNL     1       4.590 -14.235   3.242  0.00  0.00    +0.040 A 
ATOM     27  C   UNL     1       4.671 -15.258   2.312  0.00  0.00    +0.124 A 
ATOM     28  C   UNL     1       5.073 -14.991   1.013  0.00  0.00    +0.040 A 
ATOM     29  C   UNL     1       5.389 -13.702   0.637  0.00  0.00    +0.030 A 
ATOM     30  F   UNL     1       4.356 -16.522   2.672  0.00  0.00    -0.205 F 
ENDBRANCH   7  24
TORSDOF 6
