REMARK  Name = ZINC07389631
REMARK  8 active torsions:
REMARK  status: ('A' for Active; 'I' for Inactive)
REMARK    1  A    between atoms: C_1  and  C_2
REMARK    2  A    between atoms: C_2  and  O_3
REMARK    3  A    between atoms: O_3  and  C_4
REMARK    4  A    between atoms: C_9  and  C_10
REMARK    5  A    between atoms: C_17  and  O_29
REMARK    6  A    between atoms: C_18  and  C_21
REMARK    7  A    between atoms: C_21  and  N_56
REMARK    8  A    between atoms: C_25  and  C_28
REMARK                            x       y       z     vdW  Elec       q    Type
REMARK                         _______ _______ _______ _____ _____    ______ ____
ROOT
ATOM      1  C   UNL     1       3.328   4.914   0.001  0.00  0.00    +0.061 C 
ATOM      2  C   UNL     1       2.790   3.689  -0.235  0.00  0.00    +0.176 C 
ATOM      3  C   UNL     1       3.528   2.423  -0.343  0.00  0.00    +0.231 C 
ATOM      4  O   UNL     1       4.730   2.248  -0.241  0.00  0.00    -0.283 OA
ATOM      5  C   UNL     1       2.488   1.410  -0.601  0.00  0.00    +0.068 A 
ATOM      6  C   UNL     1       2.529   0.029  -0.797  0.00  0.00    +0.019 A 
ATOM      7  C   UNL     1       1.371  -0.661  -1.020  0.00  0.00    +0.046 A 
ATOM      8  C   UNL     1       0.151   0.010  -1.050  0.00  0.00    +0.122 A 
ATOM      9  C   UNL     1       0.096   1.380  -0.857  0.00  0.00    +0.020 A 
ATOM     10  C   UNL     1       1.264   2.098  -0.630  0.00  0.00    +0.144 A 
ATOM     11  O   UNL     1       1.476   3.414  -0.414  0.00  0.00    -0.451 OA
ENDROOT
BRANCH   1  17
ATOM     12  C   UNL     1       3.082   7.383  -0.205  0.00  0.00    +0.128 A 
ATOM     13  C   UNL     1       2.280   8.509  -0.295  0.00  0.00    +0.046 A 
ATOM     14  C   UNL     1       0.904   8.384  -0.277  0.00  0.00    +0.004 A 
ATOM     15  C   UNL     1       0.314   7.134  -0.170  0.00  0.00    +0.001 A 
ATOM     16  C   UNL     1       1.094   6.002  -0.084  0.00  0.00    +0.011 A 
ATOM     17  C   UNL     1       2.490   6.114  -0.095  0.00  0.00    +0.020 A 
BRANCH  12  18
ATOM     18  O   UNL     1       4.434   7.506  -0.223  0.00  0.00    -0.492 OA
BRANCH  18  20
ATOM     19  C   UNL     1       6.492   8.766  -0.339  0.00  0.00    +0.048 C 
ATOM     20  C   UNL     1       4.964   8.828  -0.336  0.00  0.00    +0.226 C 
ENDBRANCH  18  20
ENDBRANCH  12  18
ENDBRANCH   1  17
BRANCH   8  21
ATOM     21  O   UNL     1      -0.994  -0.685  -1.272  0.00  0.00    -0.506 OA
ATOM     22  H   UNL     1      -1.234  -0.760  -2.205  0.00  0.00    +0.292 HD
ENDBRANCH   8  21
BRANCH   9  23
ATOM     23  C   UNL     1      -1.230   2.094  -0.899  0.00  0.00    -0.036 C 
BRANCH  23  30
ATOM     24  C   UNL     1      -0.999   2.954   1.352  0.00  0.00    -0.078 C 
ATOM     25  C   UNL     1      -1.550   2.849   2.776  0.00  0.00    -0.018 C 
ATOM     26  C   UNL     1      -3.005   3.324   2.791  0.00  0.00    -0.001 C 
ATOM     27  C   UNL     1      -3.820   2.480   1.807  0.00  0.00    -0.031 C 
ATOM     28  C   UNL     1      -3.203   2.595   0.411  0.00  0.00    -0.075 C 
ATOM     29  C   UNL     1      -5.263   2.986   1.773  0.00  0.00    +0.005 C 
ATOM     30  N   UNL     1      -1.811   2.100   0.460  0.00  0.00    +0.383 N 
ATOM     31  H   UNL     1      -1.811   1.141   0.826  0.00  0.00    -0.081 HD
ENDBRANCH  23  30
ENDBRANCH   9  23
TORSDOF 6
