REMARK  Name = ZINC58944815
REMARK  6 active torsions:
REMARK  status: ('A' for Active; 'I' for Inactive)
REMARK    1  A    between atoms: C_1  and  N_2
REMARK    2  A    between atoms: C_3  and  C_5
REMARK    3  A    between atoms: N_10  and  C_21
REMARK    4  A    between atoms: N_12  and  C_13
REMARK    5  A    between atoms: C_21  and  C_22
REMARK    6  A    between atoms: C_22  and  C_23
REMARK                            x       y       z     vdW  Elec       q    Type
REMARK                         _______ _______ _______ _____ _____    ______ ____
ROOT
ATOM      1  C   UNL     1       0.606  -2.171  -1.026  0.00  0.00    +0.148 C 
ATOM      2  C   UNL     1       1.903  -2.668  -1.667  0.00  0.00    +0.120 C 
ATOM      3  C   UNL     1       1.897  -4.140  -1.898  0.00  0.00    +0.223 C 
ATOM      4  O   UNL     1       2.985  -4.677  -1.892  0.00  0.00    -0.275 OA
ATOM      5  N   UNL     1       0.863  -4.939  -2.108  0.00  0.00    -0.250 N 
ATOM      6  C   UNL     1      -0.459  -4.543  -2.012  0.00  0.00    +0.164 C 
ATOM      7  N   UNL     1      -1.430  -5.421  -1.918  0.00  0.00    -0.226 NA
ATOM      8  S   UNL     1      -0.788  -2.801  -2.018  0.00  0.00    -0.077 S 
ENDROOT
BRANCH   7   9
ATOM      9  C   UNL     1      -2.729  -4.998  -1.823  0.00  0.00    +0.067 A 
ATOM     10  C   UNL     1      -3.064  -3.949  -0.965  0.00  0.00    +0.029 A 
ATOM     11  C   UNL     1      -4.374  -3.527  -0.875  0.00  0.00    +0.022 A 
ATOM     12  C   UNL     1      -5.356  -4.141  -1.633  0.00  0.00    +0.041 A 
ATOM     13  C   UNL     1      -5.031  -5.183  -2.485  0.00  0.00    +0.022 A 
ATOM     14  C   UNL     1      -3.723  -5.610  -2.589  0.00  0.00    +0.029 A 
ATOM     15 CL   UNL     1      -7.003  -3.605  -1.513  0.00  0.00    -0.084 Cl
ENDBRANCH   7   9
BRANCH   1  18
ATOM     16  C   UNL     1      -0.018   1.461   0.010  0.00  0.00    +0.128 C 
ATOM     17  N   UNL     1       0.002  -0.004   0.002  0.00  0.00    -0.317 N 
ATOM     18  C   UNL     1       0.585  -0.664  -1.018  0.00  0.00    +0.227 C 
ATOM     19  O   UNL     1       1.093  -0.046  -1.929  0.00  0.00    -0.275 OA
ATOM     20  H   UNL     1      -0.404  -0.499   0.731  0.00  0.00    +0.148 HD
ENDBRANCH   1  18
BRANCH   5  21
ATOM     21  C   UNL     1       1.136  -6.333  -2.467  0.00  0.00    +0.120 C 
BRANCH  21  22
ATOM     22  C   UNL     1       1.225  -7.179  -1.195  0.00  0.00    +0.054 C 
BRANCH  22  23
ATOM     23  C   UNL     1       1.506  -8.613  -1.563  0.00  0.00    -0.042 A 
ATOM     24  C   UNL     1       0.458  -9.483  -1.798  0.00  0.00    +0.007 A 
ATOM     25  C   UNL     1       0.711 -10.799  -2.137  0.00  0.00    +0.050 A 
ATOM     26  C   UNL     1       2.017 -11.249  -2.241  0.00  0.00    +0.166 A 
ATOM     27  C   UNL     1       3.073 -10.373  -2.005  0.00  0.00    +0.166 A 
ATOM     28  C   UNL     1       2.812  -9.054  -1.671  0.00  0.00    +0.053 A 
ATOM     29  O   UNL     1       4.247 -11.050  -2.169  0.00  0.00    -0.453 OA
ATOM     30  C   UNL     1       3.897 -12.445  -2.108  0.00  0.00    +0.466 C 
ATOM     31  O   UNL     1       2.529 -12.475  -2.554  0.00  0.00    -0.453 OA
ENDBRANCH  22  23
ENDBRANCH  21  22
ENDBRANCH   5  21
TORSDOF 5
