REMARK  Name = ZINC44322238
REMARK  11 active torsions:
REMARK  status: ('A' for Active; 'I' for Inactive)
REMARK    1  A    between atoms: C_1  and  O_2
REMARK    2  A    between atoms: O_2  and  C_3
REMARK    3  A    between atoms: C_3  and  C_5
REMARK    4  A    between atoms: C_5  and  N_6
REMARK    5  A    between atoms: C_8  and  C_15
REMARK    6  A    between atoms: C_15  and  CA_16
REMARK    7  A    between atoms: CA_16  and  C_18
REMARK    8  A    between atoms: CA_16  and  N_21
REMARK    9  A    between atoms: C_22  and  O_24
REMARK   10  A    between atoms: O_24  and  C_25
REMARK   11  A    between atoms: C_25  and  C_26
REMARK                            x       y       z     vdW  Elec       q    Type
REMARK                         _______ _______ _______ _____ _____    ______ ____
ROOT
ATOM      1  CA  UNL     1       1.364  -5.069  -5.975  0.00  0.00    +0.193 C 
ENDROOT
BRANCH   1   2
ATOM      2  N   UNL     1       0.219  -5.575  -5.214  0.00  0.00    -0.267 N 
ATOM      3  C   UNL     1       0.236  -6.831  -4.727  0.00  0.00    +0.401 C 
ATOM      4  O   UNL     1       1.200  -7.545  -4.920  0.00  0.00    -0.226 OA
ATOM      5  H   UNL     1      -0.551  -5.005  -5.061  0.00  0.00    +0.153 HD
BRANCH   3   6
ATOM      6  O   UNL     1      -0.817  -7.296  -4.028  0.00  0.00    -0.449 OA
BRANCH   6   7
ATOM      7  C   UNL     1      -0.731  -8.637  -3.542  0.00  0.00    +0.246 C 
BRANCH   7   8
ATOM      8  C   UNL     1      -2.010  -8.985  -2.778  0.00  0.00    +0.088 C 
ATOM      9  C   UNL     1      -3.179  -9.065  -3.730  0.00  0.00    -0.029 A 
ATOM     10  C   UNL     1      -3.755  -8.134  -4.568  0.00  0.00    +0.005 A 
ATOM     11  C   UNL     1      -4.842  -8.485  -5.349  0.00  0.00    +0.000 A 
ATOM     12  C   UNL     1      -5.353  -9.769  -5.290  0.00  0.00    +0.001 A 
ATOM     13  C   UNL     1      -4.783 -10.707  -4.454  0.00  0.00    +0.009 A 
ATOM     14  C   UNL     1      -3.686 -10.360  -3.664  0.00  0.00    -0.014 A 
ATOM     15  C   UNL     1      -2.890 -11.153  -2.694  0.00  0.00    -0.014 A 
ATOM     16  C   UNL     1      -1.887 -10.354  -2.154  0.00  0.00    -0.029 A 
ATOM     17  C   UNL     1      -1.012 -10.870  -1.222  0.00  0.00    +0.005 A 
ATOM     18  C   UNL     1      -1.128 -12.189  -0.819  0.00  0.00    +0.000 A 
ATOM     19  C   UNL     1      -2.122 -12.991  -1.349  0.00  0.00    +0.001 A 
ATOM     20  C   UNL     1      -3.002 -12.482  -2.282  0.00  0.00    +0.009 A 
ENDBRANCH   7   8
ENDBRANCH   6   7
ENDBRANCH   3   6
ENDBRANCH   1   2
BRANCH   1  21
ATOM     21  C   UNL     1       1.227  -5.476  -7.420  0.00  0.00    +0.376 C 
ATOM     22  O   UNL     1       2.223  -5.664  -8.097  0.00  0.00    -0.244 OA
ATOM     23  OXT UNL     1       0.120  -5.617  -7.911  0.00  0.00    -0.244 OA
ENDBRANCH   1  21
BRANCH   1  24
ATOM     24  C   UNL     1       1.408  -3.542  -5.877  0.00  0.00    +0.071 C 
BRANCH  24  27
ATOM     25  N   UNL     1       1.354  -2.503  -2.345  0.00  0.00    -0.336 N 
ATOM     26  C   UNL     1       0.744  -2.815  -3.530  0.00  0.00    +0.091 A 
ATOM     27  C   UNL     1       1.668  -3.138  -4.449  0.00  0.00    -0.020 A 
ATOM     28  C   UNL     1       2.976  -3.022  -3.800  0.00  0.00    +0.003 A 
ATOM     29  C   UNL     1       2.720  -2.614  -2.478  0.00  0.00    +0.050 A 
ATOM     30  C   UNL     1       3.786  -2.412  -1.609  0.00  0.00    +0.026 A 
ATOM     31  C   UNL     1       5.076  -2.611  -2.050  0.00  0.00    +0.002 A 
ATOM     32  C   UNL     1       5.324  -3.010  -3.356  0.00  0.00    +0.001 A 
ATOM     33  C   UNL     1       4.290  -3.222  -4.225  0.00  0.00    +0.010 A 
BRANCH  25  34
ATOM     34  C   UNL     1       0.657  -2.104  -1.120  0.00  0.00    +0.242 C 
BRANCH  34  35
ATOM     35  C   UNL     1       0.598  -0.600  -1.043  0.00  0.00    +0.327 C 
ATOM     36  O   UNL     1       1.088   0.070  -1.921  0.00  0.00    -0.249 OA
BRANCH  35  38
ATOM     37  C   UNL     1      -0.017   1.425   0.010  0.00  0.00    +0.280 C 
ATOM     38  O   UNL     1       0.002  -0.004   0.002  0.00  0.00    -0.467 OA
ENDBRANCH  35  38
ENDBRANCH  34  35
ENDBRANCH  25  34
ENDBRANCH  24  27
ENDBRANCH   1  24
TORSDOF 10
