REMARK  Name = ZINC20609741
REMARK  6 active torsions:
REMARK  status: ('A' for Active; 'I' for Inactive)
REMARK    1  A    between atoms: C_1  and  C_2
REMARK    2  A    between atoms: C_19  and  C_21
REMARK    3  A    between atoms: C_21  and  N_22
REMARK    4  A    between atoms: N_25  and  C_28
REMARK    5  A    between atoms: C_28  and  C_30
REMARK    6  A    between atoms: C_28  and  C_36
REMARK                            x       y       z     vdW  Elec       q    Type
REMARK                         _______ _______ _______ _____ _____    ______ ____
ROOT
ATOM      1  N   UNL     1       0.375   8.023  -0.186  0.00  0.00    +0.382 N 
ATOM      2  C   UNL     1      -1.022   8.050   0.267  0.00  0.00    -0.063 C 
ATOM      3  C   UNL     1      -1.429   9.493   0.573  0.00  0.00    +0.067 C 
ATOM      4  N   UNL     1      -1.253  10.315  -0.633  0.00  0.00    -0.295 NA
ATOM      5  C   UNL     1       0.145  10.288  -1.086  0.00  0.00    +0.067 C 
ATOM      6  C   UNL     1       0.551   8.844  -1.392  0.00  0.00    -0.063 C 
ATOM      7  H   UNL     1       1.000   8.452   0.612  0.00  0.00    -0.082 HD
ENDROOT
BRANCH   1   8
ATOM      8  C   UNL     1       0.827   6.644  -0.417  0.00  0.00    -0.064 C 
BRANCH   8  24
ATOM      9  C   UNL     1       6.103   4.979   0.407  0.00  0.00    +0.012 C 
ATOM     10  C   UNL     1       5.377   3.768  -0.185  0.00  0.00    -0.022 C 
ATOM     11  C   UNL     1       6.306   2.555  -0.171  0.00  0.00    +0.007 C 
ATOM     12  C   UNL     1       7.596   2.886  -0.924  0.00  0.00    +0.005 C 
ATOM     13  C   UNL     1       7.274   3.174  -2.393  0.00  0.00    +0.030 C 
ATOM     14  C   UNL     1       6.217   4.255  -2.456  0.00  0.00    -0.073 C 
ATOM     15  C   UNL     1       6.383   5.318  -3.203  0.00  0.00    +0.008 C 
ATOM     16  C   UNL     1       4.963   4.072  -1.632  0.00  0.00    +0.021 C 
ATOM     17  C   UNL     1       4.144   5.359  -1.631  0.00  0.00    +0.016 C 
ATOM     18  C   UNL     1       2.858   5.178  -0.822  0.00  0.00    +0.042 C 
ATOM     19  C   UNL     1       3.162   4.632   0.587  0.00  0.00    +0.181 C 
ATOM     20  C   UNL     1       4.107   3.473   0.612  0.00  0.00    +0.052 C 
ATOM     21  O   UNL     1       3.689   5.819   1.286  0.00  0.00    -0.461 OA
ATOM     22  C   UNL     1       2.938   6.878   0.908  0.00  0.00    +0.309 C 
ATOM     23  O   UNL     1       2.759   7.878   1.561  0.00  0.00    -0.251 OA
ATOM     24  C   UNL     1       2.356   6.610  -0.467  0.00  0.00    +0.088 C 
ENDBRANCH   8  24
ENDBRANCH   1   8
BRANCH   4  25
ATOM     25  C   UNL     1      -1.705  11.693  -0.401  0.00  0.00    +0.117 C 
BRANCH  25  26
ATOM     26  C   UNL     1      -3.151  11.683   0.023  0.00  0.00    -0.026 A 
ATOM     27  C   UNL     1      -4.062  10.889  -0.647  0.00  0.00    +0.007 A 
ATOM     28  C   UNL     1      -5.387  10.875  -0.255  0.00  0.00    +0.020 A 
ATOM     29  C   UNL     1      -5.804  11.665   0.801  0.00  0.00    +0.041 A 
ATOM     30  C   UNL     1      -4.893  12.465   1.468  0.00  0.00    +0.020 A 
ATOM     31  C   UNL     1      -3.567  12.473   1.078  0.00  0.00    +0.007 A 
ATOM     32 CL   UNL     1      -7.470  11.654   1.290  0.00  0.00    -0.084 Cl
ENDBRANCH  25  26
BRANCH  25  33
ATOM     33  C   UNL     1      -1.560  12.490  -1.672  0.00  0.00    -0.026 A 
ATOM     34  C   UNL     1      -1.904  11.924  -2.886  0.00  0.00    +0.005 A 
ATOM     35  C   UNL     1      -1.776  12.656  -4.051  0.00  0.00    +0.000 A 
ATOM     36  C   UNL     1      -1.293  13.951  -4.004  0.00  0.00    +0.000 A 
ATOM     37  C   UNL     1      -0.943  14.514  -2.791  0.00  0.00    +0.000 A 
ATOM     38  C   UNL     1      -1.077  13.784  -1.625  0.00  0.00    +0.005 A 
ENDBRANCH  25  33
ENDBRANCH   4  25
TORSDOF 5
