REMARK  Name = ZINC39631042
REMARK  15 active torsions:
REMARK  status: ('A' for Active; 'I' for Inactive)
REMARK    1  A    between atoms: C_1  and  C_2
REMARK    2  A    between atoms: C_2  and  C_3
REMARK    3  A    between atoms: C_2  and  C_4
REMARK    4  A    between atoms: C_4  and  C_6
REMARK    5  A    between atoms: C_4  and  O_30
REMARK    6  A    between atoms: C_10  and  C_19
REMARK    7  A    between atoms: N_21  and  C_22
REMARK    8  A    between atoms: C_22  and  C_23
REMARK    9  A    between atoms: C_23  and  C_24
REMARK   10  A    between atoms: C_23  and  C_25
REMARK   11  A    between atoms: C_23  and  C_26
REMARK   12  A    between atoms: C_26  and  N_27
REMARK   13  A    between atoms: N_27  and  C_28
REMARK   14  A    between atoms: N_27  and  C_29
REMARK   15  A    between atoms: O_30  and  C_31
REMARK                            x       y       z     vdW  Elec       q    Type
REMARK                         _______ _______ _______ _____ _____    ______ ____
ROOT
ATOM      1  C   UNL     1      -2.102   0.193  -3.049  0.00  0.00    +0.257 C 
ATOM      2  O   UNL     1      -2.211  -0.799  -3.736  0.00  0.00    -0.272 OA
ATOM      3  N   UNL     1      -1.957   1.402  -3.627  0.00  0.00    -0.297 N 
ATOM      4  C   UNL     1      -1.707   2.703  -2.963  0.00  0.00    +0.121 C 
ATOM      5  C   UNL     1      -0.702   3.426  -3.888  0.00  0.00    +0.100 C 
ATOM      6  C   UNL     1      -0.908   2.784  -5.270  0.00  0.00    -0.004 C 
ATOM      7  C   UNL     1      -2.006   1.729  -5.073  0.00  0.00    +0.115 C 
ATOM      8  C   UNL     1       0.380   2.115  -5.740  0.00  0.00    -0.010 C 
ATOM      9  C   UNL     1       0.167   1.534  -7.140  0.00  0.00    -0.082 C 
ATOM     10  N   UNL     1      -0.216   2.609  -8.065  0.00  0.00    +0.379 N 
ATOM     11  C   UNL     1      -1.503   3.185  -7.658  0.00  0.00    -0.082 C 
ATOM     12  C   UNL     1      -1.360   3.836  -6.279  0.00  0.00    -0.010 C 
ATOM     13  H   UNL     1       0.492   3.328  -8.053  0.00  0.00    -0.086 HD
ATOM     14  H   UNL     1      -0.296   2.235  -8.998  0.00  0.00    -0.086 HD
ENDROOT
BRANCH   5  15
ATOM     15  C   UNL     1       0.709   3.200  -3.407  0.00  0.00    +0.218 C 
ATOM     16  O   UNL     1       1.009   2.150  -2.880  0.00  0.00    -0.275 OA
ATOM     17  N   UNL     1       1.636   4.165  -3.563  0.00  0.00    -0.315 N 
ATOM     18  H   UNL     1       1.396   5.005  -3.985  0.00  0.00    +0.149 HD
BRANCH  17  19
ATOM     19  C   UNL     1       3.007   3.946  -3.096  0.00  0.00    +0.108 C 
BRANCH  19  20
ATOM     20  C   UNL     1       3.852   5.187  -3.392  0.00  0.00    -0.034 C 
ATOM     21  C   UNL     1       3.862   5.449  -4.900  0.00  0.00    +0.010 C 
ATOM     22  C   UNL     1       3.254   6.395  -2.669  0.00  0.00    +0.010 C 
BRANCH  20  23
ATOM     23  C   UNL     1       5.284   4.958  -2.904  0.00  0.00    -0.072 C 
BRANCH  23  24
ATOM     24  N   UNL     1       6.096   6.147  -3.195  0.00  0.00    +0.376 N 
ATOM     25  C   UNL     1       5.969   7.108  -2.091  0.00  0.00    -0.097 C 
ATOM     26  C   UNL     1       7.504   5.754  -3.343  0.00  0.00    -0.097 C 
ATOM     27  H   UNL     1       5.774   6.574  -4.050  0.00  0.00    -0.083 HD
ENDBRANCH  23  24
ENDBRANCH  20  23
ENDBRANCH  19  20
ENDBRANCH  17  19
ENDBRANCH   5  15
BRANCH   1  28
ATOM     28  C   UNL     1      -2.130   0.076  -1.546  0.00  0.00    +0.261 C 
BRANCH  28  30
ATOM     29  C   UNL     1      -4.526  -0.634  -1.542  0.00  0.00    +0.011 C 
ATOM     30  C   UNL     1      -3.532   0.413  -1.034  0.00  0.00    +0.033 C 
ATOM     31  C   UNL     1      -3.529   0.413   0.496  0.00  0.00    +0.011 C 
ENDBRANCH  28  30
BRANCH  28  32
ATOM     32  O   UNL     1      -1.185   0.986  -0.980  0.00  0.00    -0.479 OA
BRANCH  32  33
ATOM     33  C   UNL     1      -0.486   0.554   0.103  0.00  0.00    +0.122 A 
ATOM     34  C   UNL     1      -0.757  -0.689   0.655  0.00  0.00    +0.045 A 
ATOM     35  C   UNL     1      -0.045  -1.126   1.755  0.00  0.00    +0.004 A 
ATOM     36  C   UNL     1       0.937  -0.324   2.307  0.00  0.00    +0.000 A 
ATOM     37  C   UNL     1       1.209   0.916   1.759  0.00  0.00    +0.004 A 
ATOM     38  C   UNL     1       0.504   1.354   0.655  0.00  0.00    +0.045 A 
ENDBRANCH  32  33
ENDBRANCH  28  32
ENDBRANCH   1  28
TORSDOF 9
