REMARK  Name = ZINC06965039
REMARK  9 active torsions:
REMARK  status: ('A' for Active; 'I' for Inactive)
REMARK    1  A    between atoms: C_1  and  C_2
REMARK    2  A    between atoms: C_5  and  C_29
REMARK    3  A    between atoms: C_6  and  N_8
REMARK    4  A    between atoms: C_9  and  C_11
REMARK    5  A    between atoms: C_12  and  C_28
REMARK    6  A    between atoms: C_17  and  C_19
REMARK    7  A    between atoms: C_22  and  N_25
REMARK    8  A    between atoms: N_25  and  C_26
REMARK    9  A    between atoms: N_25  and  C_27
REMARK                            x       y       z     vdW  Elec       q    Type
REMARK                         _______ _______ _______ _____ _____    ______ ____
ROOT
ATOM      1  C   UNL     1      -3.615   6.140  -0.045  0.00  0.00    +0.056 C 
ATOM      2  C   UNL     1      -3.635   7.487  -0.108  0.00  0.00    +0.019 C 
ATOM      3  N   UNL     1      -4.816   8.173  -0.163  0.00  0.00    -0.273 N 
ATOM      4  C   UNL     1      -6.018   7.583  -0.159  0.00  0.00    +0.304 C 
ATOM      5  O   UNL     1      -7.014   8.277  -0.210  0.00  0.00    -0.252 OA
ATOM      6  N   UNL     1      -6.159   6.244  -0.098  0.00  0.00    -0.288 N 
ATOM      7  C   UNL     1      -4.944   5.413  -0.042  0.00  0.00    +0.142 C 
ATOM      8  C   UNL     1      -2.335   8.249  -0.119  0.00  0.00    +0.061 C 
ATOM      9  H   UNL     1      -4.782   9.142  -0.208  0.00  0.00    +0.156 HD
ATOM     10  H   UNL     1      -7.039   5.837  -0.096  0.00  0.00    +0.151 HD
ENDROOT
BRANCH   7  11
ATOM     11  C   UNL     1      -5.015   4.579   1.211  0.00  0.00    -0.022 A 
ATOM     12  C   UNL     1      -5.352   5.169   2.415  0.00  0.00    +0.007 A 
ATOM     13  C   UNL     1      -5.423   4.406   3.564  0.00  0.00    +0.023 A 
ATOM     14  C   UNL     1      -5.146   3.046   3.511  0.00  0.00    +0.029 A 
ATOM     15  C   UNL     1      -4.802   2.457   2.300  0.00  0.00    +0.023 A 
ATOM     16  C   UNL     1      -4.738   3.225   1.154  0.00  0.00    +0.007 A 
BRANCH  14  17
ATOM     17  N   UNL     1      -5.211   2.272   4.672  0.00  0.00    -0.336 N 
ATOM     18  C   UNL     1      -4.795   0.868   4.641  0.00  0.00    +0.129 C 
ATOM     19  C   UNL     1      -5.695   2.865   5.921  0.00  0.00    +0.129 C 
ENDBRANCH  14  17
ENDBRANCH   7  11
BRANCH   1  21
ATOM     20  N   UNL     1      -1.707   5.354   1.171  0.00  0.00    -0.281 N 
ATOM     21  C   UNL     1      -2.391   5.428   0.012  0.00  0.00    +0.248 C 
ATOM     22  O   UNL     1      -1.957   4.883  -0.987  0.00  0.00    -0.270 OA
ATOM     23  H   UNL     1      -2.067   5.765   1.973  0.00  0.00    +0.155 HD
BRANCH  20  29
ATOM     24  C   UNL     1       1.360   2.004  -0.709  0.00  0.00    +0.044 C 
ATOM     25  C   UNL     1       1.033   3.057   0.318  0.00  0.00    -0.049 A 
ATOM     26  C   UNL     1       1.948   3.362   1.310  0.00  0.00    +0.004 A 
ATOM     27  C   UNL     1       1.652   4.327   2.255  0.00  0.00    +0.005 A 
ATOM     28  C   UNL     1       0.439   4.986   2.215  0.00  0.00    -0.029 A 
ATOM     29  C   UNL     1      -0.480   4.686   1.217  0.00  0.00    +0.037 A 
ATOM     30  C   UNL     1      -0.179   3.716   0.270  0.00  0.00    +0.027 A 
ATOM     31  C   UNL     1       0.114   6.032   3.249  0.00  0.00    +0.045 C 
ENDBRANCH  20  29
ENDBRANCH   1  21
TORSDOF 4
