REMARK  Name = ZINC67299076
REMARK  7 active torsions:
REMARK  status: ('A' for Active; 'I' for Inactive)
REMARK    1  A    between atoms: C_1  and  O_2
REMARK    2  A    between atoms: O_2  and  C_3
REMARK    3  A    between atoms: N_11  and  C_12
REMARK    4  A    between atoms: C_16  and  C_18
REMARK    5  A    between atoms: C_22  and  C_24
REMARK    6  A    between atoms: N_26  and  C_27
REMARK    7  A    between atoms: C_27  and  C_28
REMARK                            x       y       z     vdW  Elec       q    Type
REMARK                         _______ _______ _______ _____ _____    ______ ____
ROOT
ATOM      1  C   UNL     1       0.535  -0.652  -1.121  0.00  0.00    +0.163 A 
ATOM      2  C   UNL     1       1.088   0.116  -2.132  0.00  0.00    +0.049 A 
ATOM      3  C   UNL     1       1.728  -0.484  -3.205  0.00  0.00    +0.004 A 
ATOM      4  C   UNL     1       1.823  -1.856  -3.284  0.00  0.00    +0.012 A 
ATOM      5  C   UNL     1       1.267  -2.648  -2.272  0.00  0.00    +0.022 A 
ATOM      6  C   UNL     1       0.626  -2.039  -1.178  0.00  0.00    +0.179 A 
ATOM      7  O   UNL     1       0.100  -2.807  -0.191  0.00  0.00    -0.435 OA
ATOM      8  C   UNL     1      -0.295  -4.060  -0.529  0.00  0.00    +0.212 A 
ATOM      9  N   UNL     1      -1.409  -4.572  -0.051  0.00  0.00    -0.325 N 
ATOM     10  C   UNL     1       0.564  -4.832  -1.449  0.00  0.00    +0.097 A 
ATOM     11  C   UNL     1       1.347  -4.110  -2.336  0.00  0.00    +0.030 A 
ATOM     12  H   UNL     1      -1.723  -5.433  -0.369  0.00  0.00    +0.169 HD
ENDROOT
BRANCH   9  13
ATOM     13  C   UNL     1      -2.125  -3.890   0.894  0.00  0.00    +0.042 A 
ATOM     14  C   UNL     1      -1.470  -3.295   1.976  0.00  0.00    +0.026 A 
ATOM     15  C   UNL     1      -2.198  -2.609   2.925  0.00  0.00    +0.003 A 
ATOM     16  C   UNL     1      -3.574  -2.509   2.808  0.00  0.00    +0.012 A 
ATOM     17  C   UNL     1      -4.228  -3.096   1.740  0.00  0.00    +0.057 A 
ATOM     18  C   UNL     1      -3.513  -3.780   0.779  0.00  0.00    +0.038 A 
BRANCH  17  19
ATOM     19  C   UNL     1      -5.726  -2.982   1.622  0.00  0.00    +0.417 C 
ATOM     20  F   UNL     1      -6.225  -2.245   2.701  0.00  0.00    -0.166 F 
ATOM     21  F   UNL     1      -6.052  -2.336   0.425  0.00  0.00    -0.166 F 
ATOM     22  F   UNL     1      -6.293  -4.261   1.630  0.00  0.00    -0.166 F 
ENDBRANCH  17  19
ENDBRANCH   9  13
BRANCH  10  23
ATOM     23  C   UNL     1       0.578  -6.305  -1.433  0.00  0.00    +0.250 C 
ATOM     24  O   UNL     1      -0.184  -6.913  -0.705  0.00  0.00    -0.270 OA
ATOM     25  N   UNL     1       1.435  -6.979  -2.225  0.00  0.00    -0.304 N 
ATOM     26  H   UNL     1       2.092  -6.496  -2.750  0.00  0.00    +0.149 HD
BRANCH  25  27
ATOM     27  C   UNL     1       1.373  -8.441  -2.293  0.00  0.00    +0.179 C 
BRANCH  27  28
ATOM     28  C   UNL     1       2.430  -8.945  -3.243  0.00  0.00    +0.122 A 
ATOM     29  C   UNL     1       3.689  -9.281  -2.912  0.00  0.00    +0.046 A 
ATOM     30  C   UNL     1       4.329  -9.697  -4.102  0.00  0.00    +0.041 A 
ATOM     31  C   UNL     1       3.422  -9.589  -5.090  0.00  0.00    +0.195 A 
ATOM     32  O   UNL     1       2.272  -9.139  -4.562  0.00  0.00    -0.466 OA
ENDBRANCH  27  28
ENDBRANCH  25  27
ENDBRANCH  10  23
BRANCH   1  34
ATOM     33  C   UNL     1      -0.144   1.376  -0.081  0.00  0.00    +0.277 C 
ATOM     34  O   UNL     1      -0.089  -0.052  -0.073  0.00  0.00    -0.491 OA
ENDBRANCH   1  34
TORSDOF 6
