REMARK  Name = ZINC39279882
REMARK  9 active torsions:
REMARK  status: ('A' for Active; 'I' for Inactive)
REMARK    1  A    between atoms: C_1  and  C_2
REMARK    2  A    between atoms: C_4  and  C_33
REMARK    3  A    between atoms: C_6  and  S_10
REMARK    4  A    between atoms: C_7  and  C_8
REMARK    5  A    between atoms: S_10  and  C_11
REMARK    6  A    between atoms: C_11  and  C_12
REMARK    7  A    between atoms: C_14  and  C_26
REMARK    8  A    between atoms: C_16  and  C_24
REMARK    9  A    between atoms: C_17  and  N_23
REMARK                            x       y       z     vdW  Elec       q    Type
REMARK                         _______ _______ _______ _____ _____    ______ ____
ROOT
ATOM      1  C   UNL     1       0.096  -5.715   3.259  0.00  0.00    +0.079 C 
ATOM      2  C   UNL     1      -0.931  -6.411   3.684  0.00  0.00    +0.031 C 
ATOM      3  C   UNL     1      -2.312  -6.658   3.141  0.00  0.00    +0.098 C 
ATOM      4  C   UNL     1      -2.576  -8.137   3.358  0.00  0.00    +0.097 C 
ATOM      5  C   UNL     1      -1.743  -8.906   4.089  0.00  0.00    +0.195 C 
ATOM      6  O   UNL     1      -0.602  -8.515   4.683  0.00  0.00    -0.448 OA
ATOM      7  C   UNL     1      -0.438  -7.119   4.946  0.00  0.00    +0.343 C 
ATOM      8  N   UNL     1       0.974  -6.724   4.986  0.00  0.00    -0.138 NA
ATOM      9  N   UNL     1       1.179  -5.947   4.045  0.00  0.00    -0.154 NA
ENDROOT
BRANCH   3  10
ATOM     10  C   UNL     1      -2.361  -6.327   1.672  0.00  0.00    -0.035 A 
ATOM     11  C   UNL     1      -1.545  -7.002   0.784  0.00  0.00    +0.007 A 
ATOM     12  C   UNL     1      -1.589  -6.700  -0.564  0.00  0.00    +0.038 A 
ATOM     13  C   UNL     1      -2.452  -5.720  -1.025  0.00  0.00    +0.123 A 
ATOM     14  C   UNL     1      -3.269  -5.044  -0.134  0.00  0.00    +0.038 A 
ATOM     15  C   UNL     1      -3.227  -5.352   1.212  0.00  0.00    +0.007 A 
ATOM     16  F   UNL     1      -2.496  -5.423  -2.342  0.00  0.00    -0.205 F 
ENDBRANCH   3  10
BRANCH   5  17
ATOM     17  N   UNL     1      -2.098 -10.223   4.243  0.00  0.00    -0.329 N 
ATOM     18  H   UNL     1      -2.912 -10.557   3.835  0.00  0.00    +0.145 HD
ATOM     19  H   UNL     1      -1.534 -10.820   4.759  0.00  0.00    +0.145 HD
ENDBRANCH   5  17
BRANCH   4  20
ATOM     20  C   UNL     1      -3.740  -8.730   2.771  0.00  0.00    +0.101 C 
ATOM     21  N   UNL     1      -4.663  -9.202   2.306  0.00  0.00    -0.191 NA
ENDBRANCH   4  20
BRANCH   1  22
ATOM     22  C   UNL     1       0.078  -4.794   2.067  0.00  0.00    +0.133 C 
BRANCH  22  23
ATOM     23  S   UNL     1       0.057  -3.071   2.633  0.00  0.00    -0.098 S 
BRANCH  23  29
ATOM     24  C   UNL     1      -0.018   1.503   0.010  0.00  0.00    +0.045 C 
ATOM     25  C   UNL     1       0.002  -0.004   0.002  0.00  0.00    -0.029 A 
ATOM     26  C   UNL     1       0.006  -0.707  -1.191  0.00  0.00    +0.027 A 
ATOM     27  C   UNL     1       0.025  -2.089  -1.167  0.00  0.00    +0.040 A 
ATOM     28  N   UNL     1       0.040  -2.754  -0.028  0.00  0.00    -0.244 NA
ATOM     29  C   UNL     1       0.037  -2.133   1.142  0.00  0.00    +0.115 A 
ATOM     30  C   UNL     1       0.023  -0.727   1.200  0.00  0.00    +0.086 A 
ATOM     31  C   UNL     1       0.029  -2.851  -2.467  0.00  0.00    +0.065 C 
BRANCH  30  32
ATOM     32  C   UNL     1       0.026  -0.049   2.461  0.00  0.00    +0.102 C 
ATOM     33  N   UNL     1       0.028   0.489   3.462  0.00  0.00    -0.191 NA
ENDBRANCH  30  32
ENDBRANCH  23  29
ENDBRANCH  22  23
ENDBRANCH   1  22
TORSDOF 7
