REMARK  Name = ZINC50025429
REMARK  7 active torsions:
REMARK  status: ('A' for Active; 'I' for Inactive)
REMARK    1  A    between atoms: C_1  and  C_2
REMARK    2  A    between atoms: C_5  and  N_8
REMARK    3  A    between atoms: C_9  and  C_26
REMARK    4  A    between atoms: C_10  and  C_13
REMARK    5  A    between atoms: C_13  and  C_14
REMARK    6  A    between atoms: N_16  and  C_17
REMARK    7  A    between atoms: C_20  and  N_24
REMARK                            x       y       z     vdW  Elec       q    Type
REMARK                         _______ _______ _______ _____ _____    ______ ____
ROOT
ATOM      1  C   UNL     1      -0.049  -7.936   2.206  0.00  0.00    +0.223 C 
ATOM      2  O   UNL     1      -1.058  -7.288   2.389  0.00  0.00    -0.275 OA
ATOM      3  N   UNL     1       0.181  -9.044   2.937  0.00  0.00    -0.285 N 
ATOM      4  H   UNL     1       0.953  -9.600   2.745  0.00  0.00    +0.155 HD
ENDROOT
BRANCH   3   5
ATOM      5  C   UNL     1      -0.694  -9.395   3.974  0.00  0.00    +0.036 A 
ATOM      6  C   UNL     1      -0.199  -9.984   5.129  0.00  0.00    +0.045 A 
ATOM      7  C   UNL     1      -1.062 -10.330   6.152  0.00  0.00    +0.065 A 
ATOM      8  C   UNL     1      -2.424 -10.088   6.024  0.00  0.00    +0.062 A 
ATOM      9  C   UNL     1      -2.918  -9.498   4.867  0.00  0.00    +0.065 A 
ATOM     10  C   UNL     1      -2.054  -9.147   3.847  0.00  0.00    +0.045 A 
ATOM     11 CL   UNL     1      -4.620  -9.195   4.705  0.00  0.00    -0.082 Cl
ATOM     12 CL   UNL     1      -0.444 -11.067   7.597  0.00  0.00    -0.082 Cl
BRANCH   8  13
ATOM     13  N   UNL     1      -3.298 -10.438   7.060  0.00  0.00    -0.356 N 
ATOM     14  H   UNL     1      -2.953 -10.850   7.867  0.00  0.00    +0.142 HD
ATOM     15  H   UNL     1      -4.249 -10.269   6.970  0.00  0.00    +0.142 HD
ENDBRANCH   8  13
ENDBRANCH   3   5
BRANCH   1  16
ATOM     16  C   UNL     1       0.946  -7.502   1.160  0.00  0.00    +0.155 C 
BRANCH  16  19
ATOM     17  N   UNL     1       0.066  -4.173  -0.021  0.00  0.00    -0.217 N 
ATOM     18  C   UNL     1       0.710  -4.971   0.874  0.00  0.00    +0.065 A 
ATOM     19  C   UNL     1       0.455  -6.244   0.491  0.00  0.00    +0.095 A 
ATOM     20  N   UNL     1      -0.319  -6.167  -0.598  0.00  0.00    -0.133 NA
ATOM     21  N   UNL     1      -0.535  -4.929  -0.872  0.00  0.00    -0.060 NA
ATOM     22  C   UNL     1       1.540  -4.527   2.051  0.00  0.00    +0.068 C 
BRANCH  17  27
ATOM     23  C   UNL     1       0.015   1.503   0.010  0.00  0.00    +0.044 C 
ATOM     24  C   UNL     1       0.028  -0.004   0.002  0.00  0.00    -0.050 A 
ATOM     25  C   UNL     1       0.022  -0.687  -1.200  0.00  0.00    +0.005 A 
ATOM     26  C   UNL     1       0.034  -2.068  -1.211  0.00  0.00    +0.028 A 
ATOM     27  C   UNL     1       0.053  -2.770  -0.013  0.00  0.00    +0.067 A 
ATOM     28  C   UNL     1       0.060  -2.081   1.192  0.00  0.00    +0.028 A 
ATOM     29  C   UNL     1       0.053  -0.700   1.196  0.00  0.00    +0.005 A 
ENDBRANCH  17  27
ENDBRANCH  16  19
ENDBRANCH   1  16
TORSDOF 5
