REMARK  Name = ZINC35483328
REMARK  12 active torsions:
REMARK  status: ('A' for Active; 'I' for Inactive)
REMARK    1  A    between atoms: C_1  and  C_2
REMARK    2  A    between atoms: C_2  and  N_3
REMARK    3  A    between atoms: N_3  and  C_4
REMARK    4  A    between atoms: N_3  and  C_6
REMARK    5  A    between atoms: C_4  and  C_5
REMARK    6  A    between atoms: C_6  and  C_7
REMARK    7  A    between atoms: C_7  and  C_8
REMARK    8  A    between atoms: C_8  and  N_9
REMARK    9  A    between atoms: C_10  and  C_25
REMARK   10  A    between atoms: C_28  and  O_33
REMARK   11  A    between atoms: C_29  and  O_31
REMARK   12  A    between atoms: O_31  and  C_32
REMARK                            x       y       z     vdW  Elec       q    Type
REMARK                         _______ _______ _______ _____ _____    ______ ____
ROOT
ATOM      1  N   UNL     1       2.127  -4.497  -3.857  0.00  0.00    -0.284 N 
ATOM      2  C   UNL     1       1.645  -4.630  -5.242  0.00  0.00    +0.145 C 
ATOM      3  C   UNL     1       2.811  -5.129  -6.032  0.00  0.00    +0.072 A 
ATOM      4  C   UNL     1       2.943  -5.460  -7.454  0.00  0.00    +0.199 A 
ATOM      5  O   UNL     1       2.089  -5.197  -8.283  0.00  0.00    -0.287 OA
ATOM      6  C   UNL     1       4.216  -6.146  -7.789  0.00  0.00    +0.064 A 
ATOM      7  C   UNL     1       4.409  -6.702  -9.053  0.00  0.00    +0.015 A 
ATOM      8  C   UNL     1       5.585  -7.335  -9.344  0.00  0.00    +0.001 A 
ATOM      9  C   UNL     1       6.585  -7.426  -8.386  0.00  0.00    +0.004 A 
ATOM     10  C   UNL     1       6.413  -6.882  -7.133  0.00  0.00    +0.047 A 
ATOM     11  C   UNL     1       5.223  -6.228  -6.813  0.00  0.00    +0.139 A 
ATOM     12  O   UNL     1       5.079  -5.692  -5.579  0.00  0.00    -0.450 OA
ATOM     13  C   UNL     1       3.867  -5.264  -5.176  0.00  0.00    +0.199 A 
ATOM     14  C   UNL     1       3.424  -4.864  -3.829  0.00  0.00    +0.283 C 
ATOM     15  O   UNL     1       4.125  -4.867  -2.836  0.00  0.00    -0.267 OA
ENDROOT
BRANCH   2  16
ATOM     16  C   UNL     1       0.511  -5.620  -5.305  0.00  0.00    -0.019 A 
ATOM     17  C   UNL     1       0.558  -6.773  -4.544  0.00  0.00    +0.009 A 
ATOM     18  C   UNL     1      -0.481  -7.684  -4.598  0.00  0.00    +0.049 A 
ATOM     19  C   UNL     1      -1.572  -7.442  -5.416  0.00  0.00    +0.158 A 
ATOM     20  C   UNL     1      -1.620  -6.281  -6.182  0.00  0.00    +0.162 A 
ATOM     21  C   UNL     1      -0.578  -5.370  -6.119  0.00  0.00    +0.055 A 
BRANCH  20  22
ATOM     22  O   UNL     1      -2.689  -6.039  -6.987  0.00  0.00    -0.491 OA
ATOM     23  C   UNL     1      -2.671  -4.827  -7.744  0.00  0.00    +0.277 C 
ENDBRANCH  20  22
BRANCH  19  24
ATOM     24  O   UNL     1      -2.595  -8.337  -5.471  0.00  0.00    -0.503 OA
ATOM     25  H   UNL     1      -3.294  -8.175  -4.824  0.00  0.00    +0.292 HD
ENDBRANCH  19  24
ENDBRANCH   2  16
BRANCH   1  26
ATOM     26  C   UNL     1       1.336  -4.039  -2.711  0.00  0.00    +0.107 C 
BRANCH  26  27
ATOM     27  C   UNL     1       1.453  -2.519  -2.586  0.00  0.00    +0.000 C 
BRANCH  27  28
ATOM     28  C   UNL     1       0.628  -2.041  -1.389  0.00  0.00    -0.077 C 
BRANCH  28  29
ATOM     29  N   UNL     1       0.826  -0.598  -1.203  0.00  0.00    +0.379 N 
ATOM     30  H   UNL     1       1.813  -0.402  -1.119  0.00  0.00    -0.082 HD
BRANCH  29  32
ATOM     31  C   UNL     1       0.597   1.616  -2.224  0.00  0.00    -0.017 C 
ATOM     32  C   UNL     1       0.280   0.126  -2.359  0.00  0.00    -0.082 C 
ENDBRANCH  29  32
BRANCH  29  33
ATOM     33  C   UNL     1       0.136  -0.162   0.018  0.00  0.00    -0.082 C 
ATOM     34  C   UNL     1       0.810  -0.793   1.238  0.00  0.00    -0.017 C 
ENDBRANCH  29  33
ENDBRANCH  28  29
ENDBRANCH  27  28
ENDBRANCH  26  27
ENDBRANCH   1  26
TORSDOF 9
