REMARK  Name = ZINC35895207
REMARK  3 active torsions:
REMARK  status: ('A' for Active; 'I' for Inactive)
REMARK    1  A    between atoms: C_1  and  C_2
REMARK    2  A    between atoms: C_23  and  C_31
REMARK    3  A    between atoms: C_31  and  C_33
REMARK                            x       y       z     vdW  Elec       q    Type
REMARK                         _______ _______ _______ _____ _____    ______ ____
ROOT
ATOM      1  C   UNL     1      -0.066   1.440   0.069  0.00  0.00    +0.044 C 
ATOM      2  C   UNL     1      -0.004  -0.065   0.034  0.00  0.00    -0.049 A 
ATOM      3  C   UNL     1       0.004  -0.731  -1.180  0.00  0.00    +0.008 A 
ATOM      4  C   UNL     1       0.061  -2.106  -1.210  0.00  0.00    -0.025 A 
ATOM      5  C   UNL     1       0.112  -2.841  -0.032  0.00  0.00    +0.054 A 
ATOM      6  C   UNL     1       0.105  -2.164   1.187  0.00  0.00    +0.063 A 
ATOM      7  C   UNL     1       0.053  -0.784   1.213  0.00  0.00    +0.025 A 
ATOM      8 CL   UNL     1       0.167  -3.057   2.674  0.00  0.00    -0.082 Cl
ATOM      9  N   UNL     1       0.165  -4.207  -0.317  0.00  0.00    -0.285 N 
ATOM     10  C   UNL     1       0.155  -4.451  -1.640  0.00  0.00    +0.212 C 
ATOM     11  O   UNL     1       0.194  -5.539  -2.174  0.00  0.00    -0.277 OA
ATOM     12  C   UNL     1       0.087  -3.112  -2.332  0.00  0.00    +0.060 C 
ATOM     13  C   UNL     1      -1.159  -3.004  -3.201  0.00  0.00    +0.085 C 
ATOM     14  C   UNL     1      -1.773  -4.348  -3.479  0.00  0.00    -0.011 A 
ATOM     15  C   UNL     1      -1.303  -5.502  -4.065  0.00  0.00    +0.006 A 
ATOM     16  C   UNL     1      -2.130  -6.605  -4.182  0.00  0.00    +0.000 A 
ATOM     17  C   UNL     1      -3.428  -6.546  -3.709  0.00  0.00    +0.002 A 
ATOM     18  C   UNL     1      -3.902  -5.392  -3.120  0.00  0.00    +0.023 A 
ATOM     19  C   UNL     1      -3.077  -4.277  -2.998  0.00  0.00    +0.038 A 
ATOM     20  N   UNL     1      -3.322  -3.016  -2.450  0.00  0.00    -0.285 N 
ATOM     21  C   UNL     1      -2.246  -2.209  -2.531  0.00  0.00    +0.228 C 
ATOM     22  O   UNL     1      -2.169  -1.064  -2.139  0.00  0.00    -0.275 OA
ATOM     23  C   UNL     1      -0.692  -2.326  -4.498  0.00  0.00    +0.066 C 
ATOM     24  C   UNL     1       0.800  -2.693  -4.578  0.00  0.00    -0.055 C 
ATOM     25  N   UNL     1       1.265  -2.907  -3.188  0.00  0.00    +0.395 N 
ATOM     26  C   UNL     1       1.927  -1.642  -2.774  0.00  0.00    -0.076 C 
ATOM     27  C   UNL     1       2.617  -1.140  -4.065  0.00  0.00    -0.020 C 
ATOM     28  C   UNL     1       1.603  -1.534  -5.186  0.00  0.00    -0.016 C 
ATOM     29  H   UNL     1       0.205  -4.900   0.361  0.00  0.00    +0.155 HD
ATOM     30  H   UNL     1      -4.168  -2.752  -2.057  0.00  0.00    +0.155 HD
ATOM     31  H   UNL     1       1.893  -3.695  -3.134  0.00  0.00    -0.079 HD
ENDROOT
BRANCH  23  32
ATOM     32  C   UNL     1      -1.441  -2.876  -5.684  0.00  0.00    +0.172 C 
ATOM     33  O   UNL     1      -0.980  -3.804  -6.317  0.00  0.00    -0.291 OA
BRANCH  32  34
ATOM     34  C   UNL     1      -2.680  -2.312  -6.060  0.00  0.00    +0.055 A 
ATOM     35  C   UNL     1      -3.526  -2.669  -7.106  0.00  0.00    +0.019 A 
ATOM     36  C   UNL     1      -4.674  -1.927  -7.222  0.00  0.00    +0.008 A 
ATOM     37  C   UNL     1      -4.904  -0.924  -6.337  0.00  0.00    +0.046 A 
ATOM     38  S   UNL     1      -3.572  -0.961  -5.314  0.00  0.00    -0.094 S 
ENDBRANCH  32  34
ENDBRANCH  23  32
TORSDOF 2
