REMARK  Name = ZINC39869928
REMARK  7 active torsions:
REMARK  status: ('A' for Active; 'I' for Inactive)
REMARK    1  A    between atoms: C_3  and  C_10
REMARK    2  A    between atoms: C_5  and  N_7
REMARK    3  A    between atoms: C_13  and  C_15
REMARK    4  A    between atoms: C_20  and  N_22
REMARK    5  A    between atoms: N_22  and  C_23
REMARK    6  A    between atoms: C_25  and  C_32
REMARK    7  A    between atoms: C_27  and  C_29
REMARK                            x       y       z     vdW  Elec       q    Type
REMARK                         _______ _______ _______ _____ _____    ______ ____
ROOT
ATOM      1  C   UNL     1       7.160   2.286  -1.083  0.00  0.00    +0.066 C 
ATOM      2  C   UNL     1       7.695   1.024  -0.806  0.00  0.00    +0.082 C 
ATOM      3  C   UNL     1       6.982  -0.259  -0.509  0.00  0.00    +0.276 C 
ATOM      4  O   UNL     1       5.768  -0.332  -0.477  0.00  0.00    -0.267 OA
ATOM      5  N   UNL     1       7.751  -1.304  -0.285  0.00  0.00    -0.152 NA
ATOM      6  C   UNL     1       9.068  -1.171  -0.333  0.00  0.00    +0.175 C 
ATOM      7  S   UNL     1       9.308   0.549  -0.729  0.00  0.00    -0.050 S 
ENDROOT
BRANCH   1  11
ATOM      8  C   UNL     1       3.624   2.069  -0.970  0.00  0.00    +0.136 A 
ATOM      9  C   UNL     1       3.747   3.444  -1.283  0.00  0.00    +0.050 A 
ATOM     10  C   UNL     1       5.074   3.726  -1.370  0.00  0.00    +0.050 A 
ATOM     11  C   UNL     1       5.782   2.468  -1.098  0.00  0.00    +0.130 A 
ATOM     12  O   UNL     1       4.847   1.522  -0.863  0.00  0.00    -0.455 OA
BRANCH   8  15
ATOM     13  C   UNL     1       0.000   1.379  -0.754  0.00  0.00    +0.003 A 
ATOM     14  C   UNL     1       1.174   2.056  -0.928  0.00  0.00    +0.012 A 
ATOM     15  C   UNL     1       2.399   1.377  -0.791  0.00  0.00    +0.019 A 
ATOM     16  C   UNL     1       2.400   0.004  -0.475  0.00  0.00    +0.044 A 
ATOM     17  C   UNL     1       1.214  -0.653  -0.305  0.00  0.00    +0.127 A 
ATOM     18  C   UNL     1       0.013   0.027  -0.443  0.00  0.00    +0.033 A 
BRANCH  17  19
ATOM     19  N   UNL     1       1.212  -2.095   0.027  0.00  0.00    +0.056 N 
ATOM     20  O   UNL     1       2.351  -2.743   0.158  0.00  0.00    -0.126 OA
ATOM     21  O   UNL     1       0.070  -2.731   0.191  0.00  0.00    -0.126 OA
ENDBRANCH  17  19
ENDBRANCH   8  15
ENDBRANCH   1  11
BRANCH   6  22
ATOM     22  N   UNL     1      10.015  -2.126  -0.132  0.00  0.00    -0.192 NA
BRANCH  22  23
ATOM     23  C   UNL     1       9.644  -3.469  -0.039  0.00  0.00    +0.057 A 
ATOM     24  C   UNL     1       8.466  -3.904  -0.633  0.00  0.00    +0.040 A 
ATOM     25  C   UNL     1       8.092  -5.247  -0.542  0.00  0.00    +0.066 A 
ATOM     26  C   UNL     1       8.902  -6.150   0.146  0.00  0.00    +0.030 A 
ATOM     27  C   UNL     1      10.084  -5.710   0.740  0.00  0.00    +0.066 A 
ATOM     28  C   UNL     1      10.455  -4.366   0.642  0.00  0.00    +0.040 A 
BRANCH  27  29
ATOM     29  C   UNL     1      10.944  -6.662   1.469  0.00  0.00    +0.387 C 
ATOM     30  O   UNL     1      10.621  -7.838   1.552  0.00  0.00    -0.241 OA
ATOM     31  O   UNL     1      11.980  -6.274   1.991  0.00  0.00    -0.241 OA
ENDBRANCH  27  29
BRANCH  25  32
ATOM     32  C   UNL     1       6.840  -5.709  -1.173  0.00  0.00    +0.387 C 
ATOM     33  O   UNL     1       6.130  -4.917  -1.775  0.00  0.00    -0.241 OA
ATOM     34  O   UNL     1       6.513  -6.885  -1.093  0.00  0.00    -0.241 OA
ENDBRANCH  25  32
ENDBRANCH  22  23
ENDBRANCH   6  22
TORSDOF 7
