REMARK  Name = ZINC62507023
REMARK  15 active torsions:
REMARK  status: ('A' for Active; 'I' for Inactive)
REMARK    1  A    between atoms: C_1  and  C_2
REMARK    2  A    between atoms: C_2  and  C_3
REMARK    3  A    between atoms: C_2  and  C_4
REMARK    4  A    between atoms: C_4  and  C_6
REMARK    5  A    between atoms: C_4  and  N_20
REMARK    6  A    between atoms: N_8  and  C_9
REMARK    7  A    between atoms: C_9  and  C_10
REMARK    8  A    between atoms: C_10  and  C_11
REMARK    9  A    between atoms: C_10  and  C_12
REMARK   10  A    between atoms: C_10  and  O_19
REMARK   11  A    between atoms: C_21  and  O_23
REMARK   12  A    between atoms: O_23  and  C_24
REMARK   13  A    between atoms: C_24  and  C_25
REMARK   14  A    between atoms: C_24  and  C_26
REMARK   15  A    between atoms: C_24  and  C_27
REMARK                            x       y       z     vdW  Elec       q    Type
REMARK                         _______ _______ _______ _____ _____    ______ ____
ROOT
ATOM      1  C   UNL     1      -1.244  -2.056   0.095  0.00  0.00    +0.234 C 
ATOM      2  O   UNL     1      -1.652  -2.817  -0.756  0.00  0.00    -0.274 OA
ATOM      3  N   UNL     1      -0.712  -2.540   1.234  0.00  0.00    -0.311 N 
ATOM      4  H   UNL     1      -0.320  -1.935   1.883  0.00  0.00    +0.149 HD
ENDROOT
BRANCH   1   5
ATOM      5  C   UNL     1      -1.333  -0.567  -0.121  0.00  0.00    +0.165 C 
BRANCH   5   6
ATOM      6  N   UNL     1      -2.354  -0.281  -1.132  0.00  0.00    -0.270 N 
ATOM      7  C   UNL     1      -2.971   0.917  -1.146  0.00  0.00    +0.401 C 
ATOM      8  O   UNL     1      -2.681   1.760  -0.320  0.00  0.00    -0.226 OA
ATOM      9  H   UNL     1      -2.586  -0.953  -1.792  0.00  0.00    +0.153 HD
BRANCH   7  10
ATOM     10  O   UNL     1      -3.909   1.181  -2.075  0.00  0.00    -0.445 OA
BRANCH  10  11
ATOM     11  C   UNL     1      -4.523   2.471  -2.031  0.00  0.00    +0.107 C 
ATOM     12  C   UNL     1      -3.453   3.550  -2.210  0.00  0.00    +0.055 C 
ATOM     13  C   UNL     1      -5.554   2.584  -3.155  0.00  0.00    +0.055 C 
ATOM     14  C   UNL     1      -5.217   2.659  -0.681  0.00  0.00    +0.055 C 
ENDBRANCH  10  11
ENDBRANCH   7  10
ENDBRANCH   5   6
BRANCH   5  16
ATOM     15  C   UNL     1       0.334  -0.618  -1.981  0.00  0.00    +0.009 C 
ATOM     16  C   UNL     1       0.021  -0.039  -0.600  0.00  0.00    +0.012 C 
ATOM     17  C   UNL     1      -0.028   1.488  -0.685  0.00  0.00    +0.009 C 
ENDBRANCH   5  16
ENDBRANCH   1   5
BRANCH   3  18
ATOM     18  C   UNL     1      -0.725  -3.982   1.494  0.00  0.00    +0.143 C 
BRANCH  18  19
ATOM     19  C   UNL     1      -0.064  -4.263   2.844  0.00  0.00    +0.103 C 
ATOM     20  C   UNL     1      -0.834  -3.539   3.950  0.00  0.00    +0.048 C 
BRANCH  19  21
ATOM     21  C   UNL     1      -0.077  -5.747   3.111  0.00  0.00    -0.015 A 
ATOM     22  C   UNL     1      -1.089  -6.532   2.594  0.00  0.00    +0.008 A 
ATOM     23  C   UNL     1      -1.102  -7.893   2.838  0.00  0.00    +0.020 A 
ATOM     24  C   UNL     1      -0.101  -8.468   3.600  0.00  0.00    +0.041 A 
ATOM     25  C   UNL     1       0.912  -7.681   4.118  0.00  0.00    +0.020 A 
ATOM     26  C   UNL     1       0.927  -6.322   3.868  0.00  0.00    +0.008 A 
ATOM     27 CL   UNL     1      -0.117 -10.176   3.908  0.00  0.00    -0.084 Cl
ENDBRANCH  19  21
BRANCH  19  28
ATOM     28  O   UNL     1       1.287  -3.796   2.820  0.00  0.00    -0.383 OA
ATOM     29  H   UNL     1       1.835  -4.213   2.142  0.00  0.00    +0.211 HD
ENDBRANCH  19  28
ENDBRANCH  18  19
ENDBRANCH   3  18
TORSDOF 9
