REMARK  Name = ZINC67176101
REMARK  9 active torsions:
REMARK  status: ('A' for Active; 'I' for Inactive)
REMARK    1  A    between atoms: C_1  and  S_2
REMARK    2  A    between atoms: S_2  and  N_5
REMARK    3  A    between atoms: N_5  and  C_6
REMARK    4  A    between atoms: C_9  and  C_12
REMARK    5  A    between atoms: C_12  and  C_13
REMARK    6  A    between atoms: C_15  and  C_19
REMARK    7  A    between atoms: C_25  and  C_29
REMARK    8  A    between atoms: C_29  and  C_30
REMARK    9  A    between atoms: C_30  and  N_31
REMARK                            x       y       z     vdW  Elec       q    Type
REMARK                         _______ _______ _______ _____ _____    ______ ____
ROOT
ATOM      1  C   UNL     1       0.433  -6.364  -3.532  0.00  0.00    +0.107 C 
ATOM      2  N   UNL     1      -0.633  -6.886  -3.033  0.00  0.00    -0.343 N 
ATOM      3  C   UNL     1      -1.540  -7.246  -4.129  0.00  0.00    +0.274 C 
ATOM      4  O   UNL     1      -0.853  -6.861  -5.330  0.00  0.00    -0.243 OA
ATOM      5  N   UNL     1       0.379  -6.308  -4.894  0.00  0.00    -0.251 N 
ATOM      6  H   UNL     1       1.072  -5.950  -5.471  0.00  0.00    +0.195 HD
ATOM      7  H   UNL     1      -0.808  -7.019  -2.088  0.00  0.00    +0.164 HD
ENDROOT
BRANCH   3   8
ATOM      8  C   UNL     1      -1.800  -8.731  -4.127  0.00  0.00    +0.004 A 
ATOM      9  C   UNL     1      -0.826  -9.599  -3.652  0.00  0.00    +0.010 A 
ATOM     10  C   UNL     1      -1.042 -10.959  -3.642  0.00  0.00    +0.026 A 
ATOM     11  C   UNL     1      -2.248 -11.471  -4.110  0.00  0.00    +0.047 A 
ATOM     12  C   UNL     1      -3.232 -10.587  -4.589  0.00  0.00    +0.003 A 
ATOM     13  C   UNL     1      -2.993  -9.211  -4.586  0.00  0.00    +0.018 A 
ATOM     14  C   UNL     1      -4.362 -11.423  -5.001  0.00  0.00    -0.024 A 
ATOM     15  C   UNL     1      -4.015 -12.697  -4.760  0.00  0.00    +0.087 A 
ATOM     16  N   UNL     1      -2.756 -12.745  -4.228  0.00  0.00    -0.360 N 
ATOM     17  H   UNL     1      -2.289 -13.556  -3.971  0.00  0.00    +0.165 HD
BRANCH  14  18
ATOM     18  C   UNL     1      -5.666 -10.944  -5.584  0.00  0.00    +0.018 C 
BRANCH  18  19
ATOM     19  C   UNL     1      -5.513 -10.761  -7.095  0.00  0.00    -0.082 C 
BRANCH  19  20
ATOM     20  N   UNL     1      -6.785 -10.294  -7.663  0.00  0.00    +0.378 N 
ATOM     21  H   UNL     1      -7.506 -10.975  -7.478  0.00  0.00    -0.090 HD
ATOM     22  H   UNL     1      -7.038  -9.413  -7.242  0.00  0.00    -0.090 HD
ATOM     23  H   UNL     1      -6.683 -10.174  -8.660  0.00  0.00    -0.090 HD
ENDBRANCH  19  20
ENDBRANCH  18  19
ENDBRANCH  14  18
ENDBRANCH   3   8
BRANCH   1  24
ATOM     24  C   UNL     1       1.596  -5.869  -2.711  0.00  0.00    +0.108 C 
BRANCH  24  28
ATOM     25  C   UNL     1       0.992  -1.755  -1.718  0.00  0.00    +0.074 A 
ATOM     26  C   UNL     1       0.519  -2.752  -0.874  0.00  0.00    +0.027 A 
ATOM     27  C   UNL     1       0.715  -4.080  -1.198  0.00  0.00    +0.006 A 
ATOM     28  C   UNL     1       1.382  -4.418  -2.361  0.00  0.00    -0.040 A 
ATOM     29  C   UNL     1       1.855  -3.429  -3.204  0.00  0.00    +0.006 A 
ATOM     30  C   UNL     1       1.657  -2.099  -2.889  0.00  0.00    +0.027 A 
BRANCH  25  31
ATOM     31  N   UNL     1       0.795  -0.411  -1.394  0.00  0.00    -0.103 NA
BRANCH  31  33
ATOM     32  C   UNL     1      -0.022   1.810   0.012  0.00  0.00    +0.220 C 
ATOM     33  S   UNL     1       0.002  -0.004   0.002  0.00  0.00    +0.059 S 
ATOM     34  O   UNL     1       0.835  -0.488   1.046  0.00  0.00    -0.154 OA
ATOM     35  O   UNL     1      -1.315  -0.510  -0.168  0.00  0.00    -0.154 OA
ENDBRANCH  31  33
ENDBRANCH  25  31
ENDBRANCH  24  28
ENDBRANCH   1  24
TORSDOF 8
