REMARK  Name = ZINC64636384
REMARK  8 active torsions:
REMARK  status: ('A' for Active; 'I' for Inactive)
REMARK    1  A    between atoms: C_1  and  O_2
REMARK    2  A    between atoms: O_2  and  C_3
REMARK    3  A    between atoms: C_3  and  C_5
REMARK    4  A    between atoms: C_6  and  O_30
REMARK    5  A    between atoms: C_18  and  C_20
REMARK    6  A    between atoms: C_20  and  C_21
REMARK    7  A    between atoms: O_30  and  C_31
REMARK    8  A    between atoms: C_31  and  C_32
REMARK                            x       y       z     vdW  Elec       q    Type
REMARK                         _______ _______ _______ _____ _____    ______ ____
ROOT
ATOM      1  C   UNL     1      -1.260  -2.046  -0.110  0.00  0.00    +0.095 C 
ATOM      2  C   UNL     1      -2.438  -2.631   0.106  0.00  0.00    +0.119 C 
ATOM      3  C   UNL     1      -2.562  -4.121   0.234  0.00  0.00    +0.170 C 
ATOM      4  C   UNL     1      -1.242  -4.739   0.563  0.00  0.00    +0.223 C 
ATOM      5  O   UNL     1      -1.239  -5.846   1.059  0.00  0.00    -0.275 OA
ATOM      6  N   UNL     1      -0.056  -4.144   0.342  0.00  0.00    -0.292 N 
ATOM      7  C   UNL     1       0.023  -2.802  -0.253  0.00  0.00    +0.118 C 
ATOM      8  C   UNL     1       1.172  -1.999   0.320  0.00  0.00    +0.046 C 
ATOM      9  C   UNL     1       2.463  -2.296  -0.464  0.00  0.00    +0.110 C 
ATOM     10  N   UNL     1       2.987  -3.565  -0.142  0.00  0.00    -0.300 N 
ATOM     11  C   UNL     1       2.220  -4.806  -0.368  0.00  0.00    +0.126 C 
ATOM     12  C   UNL     1       1.148  -4.916   0.705  0.00  0.00    +0.127 C 
ATOM     13  C   UNL     1       4.224  -3.647   0.386  0.00  0.00    +0.220 C 
ATOM     14  O   UNL     1       4.870  -2.639   0.578  0.00  0.00    -0.275 OA
ENDROOT
BRANCH   1  15
ATOM     15  C   UNL     1      -1.221  -0.635  -0.215  0.00  0.00    +0.340 C 
ATOM     16  O   UNL     1      -1.128  -0.109  -1.308  0.00  0.00    -0.245 OA
BRANCH  15  18
ATOM     17  C   UNL     1      -1.243   1.543   0.717  0.00  0.00    +0.280 C 
ATOM     18  O   UNL     1      -1.287   0.126   0.897  0.00  0.00    -0.465 OA
ENDBRANCH  15  18
ENDBRANCH   1  15
BRANCH  13  19
ATOM     19  C   UNL     1       4.805  -4.992   0.738  0.00  0.00    +0.129 C 
BRANCH  19  20
ATOM     20  C   UNL     1       6.189  -4.809   1.306  0.00  0.00    -0.033 C 
ATOM     21  C   UNL     1       6.527  -4.730   2.614  0.00  0.00    -0.001 A 
ATOM     22  C   UNL     1       5.738  -4.788   3.850  0.00  0.00    +0.010 A 
ATOM     23  C   UNL     1       6.372  -4.676   5.039  0.00  0.00    +0.001 A 
ATOM     24  C   UNL     1       7.761  -4.506   5.120  0.00  0.00    +0.002 A 
ATOM     25  C   UNL     1       8.553  -4.443   4.029  0.00  0.00    +0.026 A 
ATOM     26  C   UNL     1       7.992  -4.550   2.726  0.00  0.00    +0.043 A 
ATOM     27  N   UNL     1       8.538  -4.519   1.535  0.00  0.00    -0.380 N 
ATOM     28  C   UNL     1       7.481  -4.682   0.531  0.00  0.00    +0.145 C 
ATOM     29  H   UNL     1       9.484  -4.410   1.349  0.00  0.00    +0.160 HD
ENDBRANCH  19  20
ENDBRANCH  13  19
BRANCH   2  30
ATOM     30  O   UNL     1      -3.543  -1.867   0.213  0.00  0.00    -0.489 OA
BRANCH  30  31
ATOM     31  C   UNL     1      -4.535  -2.015  -0.805  0.00  0.00    +0.283 C 
BRANCH  31  32
ATOM     32  C   UNL     1      -5.629  -1.000  -0.593  0.00  0.00    +0.078 A 
ATOM     33  C   UNL     1      -5.545  -0.118   0.468  0.00  0.00    +0.027 A 
ATOM     34  C   UNL     1      -6.556   0.812   0.655  0.00  0.00    +0.003 A 
ATOM     35  C   UNL     1      -7.619   0.820  -0.236  0.00  0.00    +0.020 A 
ATOM     36  C   UNL     1      -7.634  -0.093  -1.274  0.00  0.00    +0.111 A 
ATOM     37  N   UNL     1      -6.652  -0.960  -1.424  0.00  0.00    -0.256 NA
ENDBRANCH  31  32
ENDBRANCH  30  31
ENDBRANCH   2  30
TORSDOF 7
