REMARK  Name = ZINC14264516
REMARK  8 active torsions:
REMARK  status: ('A' for Active; 'I' for Inactive)
REMARK    1  A    between atoms: C_1  and  C_2
REMARK    2  A    between atoms: C_5  and  C_8
REMARK    3  A    between atoms: C_10  and  C_14
REMARK    4  A    between atoms: N_16  and  C_17
REMARK    5  A    between atoms: C_17  and  C_18
REMARK    6  A    between atoms: C_18  and  C_19
REMARK    7  A    between atoms: C_22  and  S_25
REMARK    8  A    between atoms: S_25  and  N_28
REMARK                            x       y       z     vdW  Elec       q    Type
REMARK                         _______ _______ _______ _____ _____    ______ ____
ROOT
ATOM      1  C   UNL     1       0.102  -7.637   1.342  0.00  0.00    +0.264 C 
ATOM      2  O   UNL     1       0.102  -7.590   2.557  0.00  0.00    -0.268 OA
ATOM      3  N   UNL     1       0.118  -8.829   0.714  0.00  0.00    -0.310 N 
ATOM      4  H   UNL     1       0.118  -8.867  -0.256  0.00  0.00    +0.149 HD
ENDROOT
BRANCH   1   7
ATOM      5  C   UNL     1       0.058  -4.253  -0.021  0.00  0.00    +0.066 A 
ATOM      6  C   UNL     1       0.069  -5.073   1.071  0.00  0.00    +0.062 A 
ATOM      7  C   UNL     1       0.086  -6.387   0.555  0.00  0.00    +0.147 A 
ATOM      8  N   UNL     1       0.085  -6.292  -0.760  0.00  0.00    -0.169 NA
ATOM      9  N   UNL     1       0.063  -5.060  -1.121  0.00  0.00    -0.276 N 
ATOM     10  H   UNL     1       0.053  -4.748  -2.039  0.00  0.00    +0.189 HD
BRANCH   5  15
ATOM     11  C   UNL     1      -0.018   1.503   0.010  0.00  0.00    +0.044 C 
ATOM     12  C   UNL     1       0.002  -0.004   0.002  0.00  0.00    -0.050 A 
ATOM     13  C   UNL     1       0.006  -0.686  -1.202  0.00  0.00    +0.004 A 
ATOM     14  C   UNL     1       0.024  -2.066  -1.216  0.00  0.00    +0.010 A 
ATOM     15  C   UNL     1       0.039  -2.773  -0.013  0.00  0.00    -0.000 A 
ATOM     16  C   UNL     1       0.036  -2.079   1.197  0.00  0.00    +0.010 A 
ATOM     17  C   UNL     1       0.023  -0.699   1.198  0.00  0.00    +0.004 A 
ENDBRANCH   5  15
ENDBRANCH   1   7
BRANCH   3  18
ATOM     18  C   UNL     1       0.134 -10.069   1.494  0.00  0.00    +0.109 C 
BRANCH  18  19
ATOM     19  C   UNL     1       0.149 -11.269   0.546  0.00  0.00    +0.054 C 
BRANCH  19  20
ATOM     20  C   UNL     1       0.167 -12.544   1.349  0.00  0.00    -0.046 A 
ATOM     21  C   UNL     1       1.371 -13.110   1.722  0.00  0.00    +0.005 A 
ATOM     22  C   UNL     1       1.387 -14.280   2.458  0.00  0.00    +0.029 A 
ATOM     23  C   UNL     1       0.198 -14.883   2.823  0.00  0.00    +0.105 A 
ATOM     24  C   UNL     1      -1.007 -14.316   2.451  0.00  0.00    +0.029 A 
ATOM     25  C   UNL     1      -1.023 -13.145   1.718  0.00  0.00    +0.005 A 
BRANCH  23  26
ATOM     26  S   UNL     1       0.217 -16.375   3.761  0.00  0.00    +0.056 S 
ATOM     27  O   UNL     1      -1.017 -17.030   3.507  0.00  0.00    -0.153 OA
ATOM     28  O   UNL     1       1.473 -16.992   3.514  0.00  0.00    -0.153 OA
BRANCH  26  29
ATOM     29  N   UNL     1       0.206 -15.947   5.361  0.00  0.00    -0.204 NA
ATOM     30  H   UNL     1       0.191 -15.010   5.612  0.00  0.00    +0.144 HD
ATOM     31  H   UNL     1       0.215 -16.633   6.046  0.00  0.00    +0.144 HD
ENDBRANCH  26  29
ENDBRANCH  23  26
ENDBRANCH  19  20
ENDBRANCH  18  19
ENDBRANCH   3  18
TORSDOF 7
