REMARK  Name = ZINC09375680
REMARK  13 active torsions:
REMARK  status: ('A' for Active; 'I' for Inactive)
REMARK    1  A    between atoms: C_1  and  C_2
REMARK    2  A    between atoms: C_2  and  C_3
REMARK    3  A    between atoms: C_3  and  C_5
REMARK    4  A    between atoms: C_3  and  N_59
REMARK    5  A    between atoms: C_8  and  S_17
REMARK    6  A    between atoms: N_9  and  C_10
REMARK    7  A    between atoms: C_10  and  C_11
REMARK    8  A    between atoms: S_17  and  C_18
REMARK    9  A    between atoms: C_18  and  C_20
REMARK   10  A    between atoms: C_18  and  C_21
REMARK   11  A    between atoms: N_23  and  C_24
REMARK   12  A    between atoms: C_33  and  N_59
REMARK   13  A    between atoms: C_34  and  N_59
REMARK                            x       y       z     vdW  Elec       q    Type
REMARK                         _______ _______ _______ _____ _____    ______ ____
ROOT
ATOM      1  C   UNL     1      -8.758   3.360   0.082  0.00  0.00    +0.121 A 
ATOM      2  N   UNL     1      -7.767   4.170  -0.161  0.00  0.00    -0.135 NA
ATOM      3  N   UNL     1      -6.649   3.545  -0.055  0.00  0.00    -0.123 NA
ATOM      4  C   UNL     1      -6.869   2.291   0.265  0.00  0.00    +0.193 A 
ATOM      5  N   UNL     1      -8.222   2.132   0.356  0.00  0.00    -0.303 N 
ENDROOT
BRANCH   1   6
ATOM      6  C   UNL     1     -10.224   3.709   0.060  0.00  0.00    +0.000 C 
BRANCH   6   9
ATOM      7  C   UNL     1     -12.088   4.134  -1.427  0.00  0.00    -0.096 C 
ATOM      8  C   UNL     1      -9.987   5.292  -1.757  0.00  0.00    -0.096 C 
ATOM      9  N   UNL     1     -10.617   4.025  -1.330  0.00  0.00    +0.383 N 
ATOM     10  H   UNL     1     -10.297   3.269  -1.947  0.00  0.00    -0.082 HD
ENDBRANCH   6   9
BRANCH   6  12
ATOM     11  C   UNL     1     -10.165   4.522   2.421  0.00  0.00    +0.002 C 
ATOM     12  C   UNL     1     -10.477   4.909   0.974  0.00  0.00    -0.011 C 
ENDBRANCH   6  12
ENDBRANCH   1   6
BRANCH   5  13
ATOM     13  C   UNL     1      -8.948   0.903   0.684  0.00  0.00    +0.160 C 
BRANCH  13  14
ATOM     14  C   UNL     1      -9.100   0.792   2.179  0.00  0.00    -0.028 A 
ATOM     15  C   UNL     1      -8.114   0.181   2.931  0.00  0.00    +0.005 A 
ATOM     16  C   UNL     1      -8.252   0.084   4.303  0.00  0.00    +0.000 A 
ATOM     17  C   UNL     1      -9.380   0.589   4.922  0.00  0.00    +0.000 A 
ATOM     18  C   UNL     1     -10.368   1.196   4.170  0.00  0.00    +0.000 A 
ATOM     19  C   UNL     1     -10.228   1.298   2.798  0.00  0.00    +0.005 A 
ENDBRANCH  13  14
ENDBRANCH   5  13
BRANCH   4  20
ATOM     20  S   UNL     1      -5.648   1.046   0.519  0.00  0.00    -0.074 S 
BRANCH  20  21
ATOM     21  C   UNL     1      -4.147   2.011   0.216  0.00  0.00    +0.137 C 
ATOM     22  C   UNL     1      -4.118   2.465  -1.244  0.00  0.00    +0.029 C 
BRANCH  21  23
ATOM     23  C   UNL     1      -2.937   1.160   0.502  0.00  0.00    +0.230 C 
ATOM     24  O   UNL     1      -3.013  -0.048   0.428  0.00  0.00    -0.274 OA
ATOM     25  N   UNL     1      -1.768   1.742   0.840  0.00  0.00    -0.282 N 
ATOM     26  H   UNL     1      -1.728   2.700   0.984  0.00  0.00    +0.155 HD
BRANCH  25  27
ATOM     27  C   UNL     1      -0.613   0.961   0.984  0.00  0.00    +0.072 A 
ATOM     28  C   UNL     1      -0.549  -0.298   0.405  0.00  0.00    +0.029 A 
ATOM     29  C   UNL     1       0.593  -1.065   0.542  0.00  0.00    +0.043 A 
ATOM     30  C   UNL     1       1.674  -0.578   1.257  0.00  0.00    +0.161 A 
ATOM     31  C   UNL     1       1.614   0.680   1.837  0.00  0.00    +0.195 A 
ATOM     32  C   UNL     1       0.472   1.450   1.702  0.00  0.00    +0.182 A 
ATOM     33  F   UNL     1       0.412   2.676   2.267  0.00  0.00    -0.200 F 
ATOM     34  F   UNL     1       2.670   1.153   2.535  0.00  0.00    -0.199 F 
ATOM     35  F   UNL     1       2.789  -1.330   1.389  0.00  0.00    -0.202 F 
ENDBRANCH  25  27
ENDBRANCH  21  23
ENDBRANCH  20  21
ENDBRANCH   4  20
TORSDOF 9
