REMARK  Name = ZINC20941192
REMARK  5 active torsions:
REMARK  status: ('A' for Active; 'I' for Inactive)
REMARK    1  A    between atoms: C_6  and  N_7
REMARK    2  A    between atoms: C_8  and  C_10
REMARK    3  A    between atoms: N_13  and  C_21
REMARK    4  A    between atoms: C_14  and  C_15
REMARK    5  A    between atoms: C_24  and  N_27
REMARK                            x       y       z     vdW  Elec       q    Type
REMARK                         _______ _______ _______ _____ _____    ______ ____
ROOT
ATOM      1  C   UNL     1       2.413  -4.232  -0.081  0.00  0.00    +0.078 A 
ATOM      2  C   UNL     1       1.294  -5.054  -0.340  0.00  0.00    +0.148 A 
ATOM      3  N   UNL     1       1.727  -6.256  -0.607  0.00  0.00    -0.174 NA
ATOM      4  N   UNL     1       3.124  -6.261  -0.533  0.00  0.00    -0.236 N 
ATOM      5  C   UNL     1       3.539  -5.020  -0.217  0.00  0.00    +0.060 A 
ENDROOT
BRANCH   5   6
ATOM      6  C   UNL     1       4.967  -4.575  -0.040  0.00  0.00    +0.035 C 
ATOM      7  C   UNL     1       5.153  -3.997   1.366  0.00  0.00    -0.010 C 
ATOM      8  C   UNL     1       6.589  -3.491   1.519  0.00  0.00    -0.082 C 
ATOM      9  N   UNL     1       6.856  -2.460   0.508  0.00  0.00    +0.379 N 
ATOM     10  C   UNL     1       6.730  -3.004  -0.851  0.00  0.00    -0.082 C 
ATOM     11  C   UNL     1       5.299  -3.495  -1.074  0.00  0.00    -0.010 C 
ATOM     12  H   UNL     1       6.136  -1.637   0.624  0.00  0.00    -0.086 HD
ATOM     13  H   UNL     1       7.878  -2.075   0.638  0.00  0.00    -0.086 HD
ENDBRANCH   5   6
BRANCH   4  14
ATOM     14  C   UNL     1       3.953  -7.369  -0.756  0.00  0.00    +0.066 A 
ATOM     15  C   UNL     1       5.101  -7.237  -1.525  0.00  0.00    +0.030 A 
ATOM     16  C   UNL     1       5.917  -8.330  -1.739  0.00  0.00    +0.035 A 
ATOM     17  C   UNL     1       5.587  -9.558  -1.196  0.00  0.00    +0.126 A 
ATOM     18  C   UNL     1       4.442  -9.694  -0.433  0.00  0.00    +0.035 A 
ATOM     19  C   UNL     1       3.623  -8.604  -0.212  0.00  0.00    +0.030 A 
BRANCH  17  20
ATOM     20  N   UNL     1       6.462 -10.729  -1.431  0.00  0.00    +0.056 N 
ATOM     21  O   UNL     1       6.172 -11.811  -0.954  0.00  0.00    -0.126 OA
ATOM     22  O   UNL     1       7.471 -10.610  -2.103  0.00  0.00    -0.126 OA
ENDBRANCH  17  20
ENDBRANCH   4  14
BRANCH   1  24
ATOM     23  N   UNL     1       1.208  -2.179   0.473  0.00  0.00    -0.281 N 
ATOM     24  C   UNL     1       2.386  -2.799   0.262  0.00  0.00    +0.252 C 
ATOM     25  O   UNL     1       3.426  -2.176   0.356  0.00  0.00    -0.270 OA
ATOM     26  H   UNL     1       0.273  -2.760   0.477  0.00  0.00    +0.155 HD
BRANCH  23  32
ATOM     27  C   UNL     1       0.222  -0.248   1.538  0.00  0.00    +0.024 A 
ATOM     28  C   UNL     1       0.190   1.117   1.746  0.00  0.00    +0.017 A 
ATOM     29  C   UNL     1       1.103   1.937   1.108  0.00  0.00    +0.018 A 
ATOM     30  C   UNL     1       2.051   1.393   0.259  0.00  0.00    +0.017 A 
ATOM     31  C   UNL     1       2.088   0.029   0.047  0.00  0.00    +0.024 A 
ATOM     32  C   UNL     1       1.173  -0.797   0.686  0.00  0.00    +0.034 A 
ATOM     33 BR   UNL     1       1.055   3.805   1.396  0.00  0.00    -0.050 Br
ENDBRANCH  23  32
ENDBRANCH   1  24
TORSDOF 5
