REMARK  Name = ZINC16430387
REMARK  14 active torsions:
REMARK  status: ('A' for Active; 'I' for Inactive)
REMARK    1  A    between atoms: C_1  and  C_2
REMARK    2  A    between atoms: C_2  and  C_3
REMARK    3  A    between atoms: C_3  and  C_4
REMARK    4  A    between atoms: C_4  and  C_5
REMARK    5  A    between atoms: C_5  and  N_6
REMARK    6  A    between atoms: N_6  and  C_7
REMARK    7  A    between atoms: C_7  and  C_9
REMARK    8  A    between atoms: C_7  and  C_11
REMARK    9  A    between atoms: C_9  and  C_10
REMARK   10  A    between atoms: N_21  and  C_22
REMARK   11  A    between atoms: C_27  and  O_28
REMARK   12  A    between atoms: O_28  and  C_29
REMARK   13  A    between atoms: C_30  and  C_32
REMARK   14  A    between atoms: C_32  and  C_34
REMARK                            x       y       z     vdW  Elec       q    Type
REMARK                         _______ _______ _______ _____ _____    ______ ____
ROOT
ATOM      1  C   UNL     1       1.245   1.341  -3.915  0.00  0.00    +0.142 C 
ENDROOT
BRANCH   1   2
ATOM      2  C   UNL     1       2.050   1.522  -2.654  0.00  0.00    +0.138 A 
ATOM      3  N   UNL     1       1.703   2.466  -1.832  0.00  0.00    -0.231 NA
ATOM      4  C   UNL     1       2.378   2.685  -0.675  0.00  0.00    +0.078 A 
ATOM      5  C   UNL     1       2.002   3.696   0.211  0.00  0.00    +0.028 A 
ATOM      6  C   UNL     1       2.719   3.887   1.371  0.00  0.00    +0.002 A 
ATOM      7  C   UNL     1       3.812   3.085   1.672  0.00  0.00    +0.001 A 
ATOM      8  C   UNL     1       4.202   2.081   0.813  0.00  0.00    +0.015 A 
ATOM      9  C   UNL     1       3.490   1.871  -0.366  0.00  0.00    +0.065 A 
ATOM     10  C   UNL     1       3.861   0.816  -1.321  0.00  0.00    +0.266 A 
ATOM     11  O   UNL     1       4.809   0.081  -1.114  0.00  0.00    -0.267 OA
ATOM     12  N   UNL     1       3.106   0.693  -2.438  0.00  0.00    -0.259 N 
BRANCH  12  13
ATOM     13  C   UNL     1       3.416  -0.297  -3.380  0.00  0.00    +0.093 A 
ATOM     14  C   UNL     1       4.301  -0.023  -4.413  0.00  0.00    +0.030 A 
ATOM     15  C   UNL     1       4.607  -1.002  -5.338  0.00  0.00    +0.002 A 
ATOM     16  C   UNL     1       4.028  -2.254  -5.243  0.00  0.00    +0.004 A 
ATOM     17  C   UNL     1       3.142  -2.534  -4.219  0.00  0.00    +0.048 A 
ATOM     18  C   UNL     1       2.833  -1.559  -3.284  0.00  0.00    +0.144 A 
BRANCH  18  19
ATOM     19  O   UNL     1       1.962  -1.832  -2.277  0.00  0.00    -0.493 OA
ATOM     20  C   UNL     1       1.402  -3.147  -2.243  0.00  0.00    +0.277 C 
ENDBRANCH  18  19
ENDBRANCH  12  13
ENDBRANCH   1   2
BRANCH   1  21
ATOM     21  N   UNL     1      -0.120   0.939  -3.569  0.00  0.00    -0.290 N 
ATOM     22  C   UNL     1      -0.627  -0.213  -4.053  0.00  0.00    +0.238 C 
ATOM     23  O   UNL     1       0.073  -0.955  -4.708  0.00  0.00    -0.274 OA
BRANCH  22  24
ATOM     24  C   UNL     1      -2.063  -0.579  -3.778  0.00  0.00    +0.196 C 
ATOM     25 CL   UNL     1      -2.122  -1.912  -2.566  0.00  0.00    -0.107 Cl
BRANCH  24  26
ATOM     26  C   UNL     1      -2.719  -1.032  -5.057  0.00  0.00    -0.021 A 
ATOM     27  C   UNL     1      -2.282  -2.183  -5.687  0.00  0.00    +0.005 A 
ATOM     28  C   UNL     1      -2.886  -2.601  -6.858  0.00  0.00    +0.000 A 
ATOM     29  C   UNL     1      -3.921  -1.864  -7.403  0.00  0.00    +0.000 A 
ATOM     30  C   UNL     1      -4.354  -0.711  -6.776  0.00  0.00    +0.000 A 
ATOM     31  C   UNL     1      -3.753  -0.295  -5.603  0.00  0.00    +0.005 A 
ENDBRANCH  24  26
ENDBRANCH  22  24
BRANCH  21  32
ATOM     32  C   UNL     1      -0.936   1.789  -2.698  0.00  0.00    +0.108 C 
BRANCH  32  33
ATOM     33  C   UNL     1      -1.825   2.693  -3.554  0.00  0.00    +0.019 C 
BRANCH  33  34
ATOM     34  C   UNL     1      -2.770   3.484  -2.648  0.00  0.00    +0.001 C 
BRANCH  34  36
ATOM     35  C   UNL     1      -4.605   5.180  -2.598  0.00  0.00    +0.004 C 
ATOM     36  C   UNL     1      -3.659   4.388  -3.504  0.00  0.00    -0.003 C 
ENDBRANCH  34  36
ENDBRANCH  33  34
ENDBRANCH  32  33
ENDBRANCH  21  32
ENDBRANCH   1  21
BRANCH   1  37
ATOM     37  C   UNL     1       1.208   2.660  -4.690  0.00  0.00    +0.027 C 
ATOM     38  C   UNL     1       0.501   2.444  -6.030  0.00  0.00    +0.006 C 
ENDBRANCH   1  37
TORSDOF 11
