REMARK  Name = ZINC35006934
REMARK  16 active torsions:
REMARK  status: ('A' for Active; 'I' for Inactive)
REMARK    1  A    between atoms: C_1  and  C_2
REMARK    2  A    between atoms: C_2  and  N_3
REMARK    3  A    between atoms: N_3  and  C_4
REMARK    4  A    between atoms: N_3  and  C_6
REMARK    5  A    between atoms: C_4  and  C_5
REMARK    6  A    between atoms: C_6  and  C_8
REMARK    7  A    between atoms: C_6  and  C_21
REMARK    8  A    between atoms: C_8  and  C_9
REMARK    9  A    between atoms: C_9  and  C_10
REMARK   10  A    between atoms: C_10  and  C_11
REMARK   11  A    between atoms: C_11  and  N_12
REMARK   12  A    between atoms: C_13  and  C_15
REMARK   13  A    between atoms: N_23  and  N_24
REMARK   14  A    between atoms: C_25  and  C_26
REMARK   15  A    between atoms: C_29  and  C_31
REMARK   16  A    between atoms: C_34  and  N_37
REMARK                            x       y       z     vdW  Elec       q    Type
REMARK                         _______ _______ _______ _____ _____    ______ ____
ROOT
ATOM      1  C   UNL     1       2.204  -0.322   1.210  0.00  0.00    +0.021 C 
ENDROOT
BRANCH   1   2
ATOM      2  C   UNL     1       2.872  -1.036   2.356  0.00  0.00    +0.219 C 
ATOM      3  O   UNL     1       2.214  -1.430   3.289  0.00  0.00    -0.276 OA
ATOM      4  N   UNL     1       4.205  -1.237   2.339  0.00  0.00    -0.208 N 
ATOM      5  H   UNL     1       4.734  -0.921   1.590  0.00  0.00    +0.177 HD
BRANCH   4   6
ATOM      6  N   UNL     1       4.777  -1.849   3.320  0.00  0.00    -0.185 NA
ATOM      7  C   UNL     1       6.090  -2.046   3.304  0.00  0.00    +0.176 C 
BRANCH   7   8
ATOM      8  C   UNL     1       6.706  -2.705   4.360  0.00  0.00    +0.148 A 
ATOM      9  C   UNL     1       8.143  -2.992   4.488  0.00  0.00    +0.051 A 
ATOM     10  C   UNL     1       8.297  -3.646   5.668  0.00  0.00    +0.050 A 
ATOM     11  C   UNL     1       7.015  -3.768   6.260  0.00  0.00    +0.136 A 
ATOM     12  O   UNL     1       6.098  -3.195   5.462  0.00  0.00    -0.454 OA
BRANCH  11  13
ATOM     13  C   UNL     1       6.744  -4.391   7.503  0.00  0.00    +0.017 A 
ATOM     14  C   UNL     1       7.792  -4.950   8.260  0.00  0.00    +0.014 A 
ATOM     15  C   UNL     1       7.518  -5.548   9.457  0.00  0.00    +0.033 A 
ATOM     16  C   UNL     1       6.214  -5.607   9.927  0.00  0.00    +0.126 A 
ATOM     17  C   UNL     1       5.174  -5.061   9.190  0.00  0.00    +0.033 A 
ATOM     18  C   UNL     1       5.425  -4.453   7.992  0.00  0.00    +0.014 A 
BRANCH  16  19
ATOM     19  N   UNL     1       5.931  -6.259  11.226  0.00  0.00    +0.056 N 
ATOM     20  O   UNL     1       6.914  -6.780  11.930  0.00  0.00    -0.126 OA
ATOM     21  O   UNL     1       4.695  -6.318  11.677  0.00  0.00    -0.126 OA
ENDBRANCH  16  19
ENDBRANCH  11  13
ENDBRANCH   7   8
ENDBRANCH   4   6
ENDBRANCH   1   2
BRANCH   1  22
ATOM     22  N   UNL     1       0.749  -0.319   1.416  0.00  0.00    +0.387 N 
ATOM     23  H   UNL     1       0.482  -1.141   1.937  0.00  0.00    -0.081 HD
BRANCH  22  25
ATOM     24  C   UNL     1       0.925   0.800   3.587  0.00  0.00    -0.017 C 
ATOM     25  C   UNL     1       0.363   0.883   2.167  0.00  0.00    -0.081 C 
ENDBRANCH  22  25
BRANCH  22  26
ATOM     26  C   UNL     1       0.070  -0.322   0.114  0.00  0.00    -0.081 C 
ATOM     27  C   UNL     1       0.340  -1.649  -0.599  0.00  0.00    -0.017 C 
ENDBRANCH  22  26
ENDBRANCH   1  22
BRANCH   1  28
ATOM     28  C   UNL     1       2.712   1.120   1.142  0.00  0.00    -0.006 C 
BRANCH  28  29
ATOM     29  C   UNL     1       2.152   1.800  -0.110  0.00  0.00    +0.000 C 
BRANCH  29  30
ATOM     30  C   UNL     1       2.707   3.222  -0.209  0.00  0.00    +0.019 C 
BRANCH  30  31
ATOM     31  C   UNL     1       2.147   3.901  -1.460  0.00  0.00    +0.104 C 
BRANCH  31  32
ATOM     32  N   UNL     1       2.678   5.263  -1.555  0.00  0.00    -0.311 N 
ATOM     33  C   UNL     1       2.320   6.056  -2.585  0.00  0.00    +0.244 C 
ATOM     34  O   UNL     1       1.557   5.641  -3.435  0.00  0.00    -0.270 OA
ATOM     35  H   UNL     1       3.288   5.595  -0.877  0.00  0.00    +0.149 HD
BRANCH  33  36
ATOM     36  C   UNL     1       2.856   7.431  -2.681  0.00  0.00    +0.037 A 
ATOM     37  C   UNL     1       3.738   7.909  -1.710  0.00  0.00    +0.013 A 
ATOM     38  C   UNL     1       4.235   9.192  -1.805  0.00  0.00    +0.001 A 
ATOM     39  C   UNL     1       3.861  10.005  -2.860  0.00  0.00    +0.000 A 
ATOM     40  C   UNL     1       2.987   9.538  -3.826  0.00  0.00    +0.001 A 
ATOM     41  C   UNL     1       2.488   8.254  -3.746  0.00  0.00    +0.013 A 
ENDBRANCH  33  36
ENDBRANCH  31  32
ENDBRANCH  30  31
ENDBRANCH  29  30
ENDBRANCH  28  29
ENDBRANCH   1  28
TORSDOF 14
