REMARK  Name = ZINC13499730
REMARK  7 active torsions:
REMARK  status: ('A' for Active; 'I' for Inactive)
REMARK    1  A    between atoms: C_1  and  C_2
REMARK    2  A    between atoms: C_3  and  C_31
REMARK    3  A    between atoms: C_8  and  C_10
REMARK    4  A    between atoms: C_10  and  S_11
REMARK    5  A    between atoms: S_11  and  C_12
REMARK    6  A    between atoms: C_17  and  C_30
REMARK    7  A    between atoms: C_25  and  C_29
REMARK                            x       y       z     vdW  Elec       q    Type
REMARK                         _______ _______ _______ _____ _____    ______ ____
ROOT
ATOM      1  C   UNL     1       1.329   1.683   2.705  0.00  0.00    +0.198 A 
ATOM      2  N   UNL     1       1.456   2.042   3.962  0.00  0.00    -0.122 NA
ATOM      3  N   UNL     1       0.311   2.373   4.450  0.00  0.00    -0.128 NA
ATOM      4  C   UNL     1      -0.613   2.244   3.530  0.00  0.00    +0.173 A 
ATOM      5  N   UNL     1       0.006   1.798   2.382  0.00  0.00    -0.258 N 
ATOM      6  C   UNL     1      -0.718   1.572   1.248  0.00  0.00    +0.115 A 
ATOM      7  N   UNL     1      -2.005   1.772   1.212  0.00  0.00    -0.226 NA
ATOM      8  C   UNL     1      -2.689   2.196   2.271  0.00  0.00    +0.114 A 
ATOM      9  C   UNL     1      -2.075   2.470   3.502  0.00  0.00    +0.056 A 
ATOM     10  C   UNL     1      -2.917   2.922   4.549  0.00  0.00    -0.024 A 
ATOM     11  C   UNL     1      -4.237   3.051   4.282  0.00  0.00    -0.004 A 
ATOM     12  S   UNL     1      -4.398   2.564   2.585  0.00  0.00    -0.073 S 
ATOM     13  C   UNL     1      -5.315   3.506   5.215  0.00  0.00    +0.046 C 
ATOM     14  C   UNL     1      -4.652   4.164   6.435  0.00  0.00    -0.009 C 
ATOM     15  C   UNL     1      -3.529   3.251   6.935  0.00  0.00    +0.008 C 
ATOM     16  C   UNL     1      -2.372   3.254   5.936  0.00  0.00    +0.037 C 
ATOM     17  C   UNL     1      -5.691   4.354   7.543  0.00  0.00    +0.008 C 
ATOM     18  C   UNL     1      -0.013   1.086   0.008  0.00  0.00    +0.086 C 
ENDROOT
BRANCH   1  19
ATOM     19  S   UNL     1       2.623   1.151   1.634  0.00  0.00    -0.076 S 
BRANCH  19  20
ATOM     20  C   UNL     1       4.110   1.225   2.671  0.00  0.00    +0.173 C 
BRANCH  20  28
ATOM     21  C   UNL     1       8.880  -0.823  -1.565  0.00  0.00    +0.066 C 
ATOM     22  C   UNL     1       8.829  -0.380  -0.125  0.00  0.00    +0.050 A 
ATOM     23  C   UNL     1       9.956  -0.334   0.626  0.00  0.00    +0.011 A 
ATOM     24  S   UNL     1       9.294   0.243   2.183  0.00  0.00    -0.057 S 
ATOM     25  C   UNL     1       7.633   0.362   1.691  0.00  0.00    +0.165 A 
ATOM     26  N   UNL     1       7.686  -0.033   0.434  0.00  0.00    -0.230 NA
ATOM     27  N   UNL     1       6.529   0.764   2.434  0.00  0.00    -0.264 N 
ATOM     28  C   UNL     1       5.307   0.789   1.866  0.00  0.00    +0.229 C 
ATOM     29  O   UNL     1       5.170   0.460   0.706  0.00  0.00    -0.275 OA
ATOM     30  C   UNL     1      11.375  -0.675   0.253  0.00  0.00    +0.053 C 
ATOM     31  H   UNL     1       6.638   1.027   3.361  0.00  0.00    +0.157 HD
ENDBRANCH  20  28
ENDBRANCH  19  20
ENDBRANCH   1  19
TORSDOF 3
