REMARK  Name = ZINC19500651
REMARK  12 active torsions:
REMARK  status: ('A' for Active; 'I' for Inactive)
REMARK    1  A    between atoms: C_1  and  C_2
REMARK    2  A    between atoms: C_2  and  C_3
REMARK    3  A    between atoms: C_3  and  C_5
REMARK    4  A    between atoms: C_3  and  N_18
REMARK    5  A    between atoms: N_9  and  C_10
REMARK    6  A    between atoms: C_10  and  C_11
REMARK    7  A    between atoms: C_11  and  C_12
REMARK    8  A    between atoms: N_18  and  C_19
REMARK    9  A    between atoms: N_18  and  C_25
REMARK   10  A    between atoms: C_19  and  C_20
REMARK   11  A    between atoms: C_25  and  C_26
REMARK   12  A    between atoms: C_32  and  C_38
REMARK                            x       y       z     vdW  Elec       q    Type
REMARK                         _______ _______ _______ _____ _____    ______ ____
ROOT
ATOM      1  N   UNL     1      -1.181  -0.432   0.868  0.00  0.00    +0.394 N 
ATOM      2  H   UNL     1      -0.362  -0.863   1.463  0.00  0.00    -0.080 HD
ENDROOT
BRANCH   1   3
ATOM      3  C   UNL     1      -2.287  -1.399   0.856  0.00  0.00    +0.003 C 
BRANCH   3   4
ATOM      4  C   UNL     1      -3.312  -0.977  -0.164  0.00  0.00    +0.138 A 
ATOM      5  N   UNL     1      -3.078  -0.572  -1.388  0.00  0.00    -0.115 NA
ATOM      6  N   UNL     1      -4.210  -0.305  -1.943  0.00  0.00    -0.023 NA
ATOM      7  N   UNL     1      -5.160  -0.520  -1.101  0.00  0.00    -0.044 NA
ATOM      8  N   UNL     1      -4.647  -0.935   0.008  0.00  0.00    -0.231 N 
BRANCH   8   9
ATOM      9  C   UNL     1      -5.379  -1.295   1.224  0.00  0.00    +0.152 C 
BRANCH   9  10
ATOM     10  C   UNL     1      -5.659  -0.033   2.043  0.00  0.00    +0.058 C 
BRANCH  10  11
ATOM     11  C   UNL     1      -6.511  -0.387   3.235  0.00  0.00    -0.046 A 
ATOM     12  C   UNL     1      -7.888  -0.413   3.118  0.00  0.00    +0.004 A 
ATOM     13  C   UNL     1      -8.668  -0.742   4.210  0.00  0.00    +0.000 A 
ATOM     14  C   UNL     1      -8.072  -1.034   5.423  0.00  0.00    +0.000 A 
ATOM     15  C   UNL     1      -6.696  -1.002   5.542  0.00  0.00    +0.000 A 
ATOM     16  C   UNL     1      -5.915  -0.678   4.448  0.00  0.00    +0.004 A 
ENDBRANCH  10  11
ENDBRANCH   9  10
ENDBRANCH   8   9
ENDBRANCH   3   4
BRANCH   3  18
ATOM     17  C   UNL     1      -0.765  -3.247   1.571  0.00  0.00    +0.002 C 
ATOM     18  C   UNL     1      -1.749  -2.785   0.494  0.00  0.00    -0.011 C 
ENDBRANCH   3  18
ENDBRANCH   1   3
BRANCH   1  19
ATOM     19  C   UNL     1      -1.589   0.826   1.506  0.00  0.00    -0.002 C 
BRANCH  19  20
ATOM     20  C   UNL     1      -1.742   0.611   2.990  0.00  0.00    +0.089 A 
ATOM     21  C   UNL     1      -0.751   0.662   3.898  0.00  0.00    +0.042 A 
ATOM     22  C   UNL     1      -1.337   0.402   5.159  0.00  0.00    +0.041 A 
ATOM     23  C   UNL     1      -2.650   0.207   4.945  0.00  0.00    +0.195 A 
ATOM     24  O   UNL     1      -2.891   0.340   3.630  0.00  0.00    -0.470 OA
ENDBRANCH  19  20
ENDBRANCH   1  19
BRANCH   1  25
ATOM     25  C   UNL     1      -0.675  -0.194  -0.490  0.00  0.00    -0.036 C 
BRANCH  25  26
ATOM     26  C   UNL     1       0.728   0.350  -0.416  0.00  0.00    +0.001 A 
ATOM     27  C   UNL     1       1.786  -0.493  -0.518  0.00  0.00    +0.017 A 
ATOM     28  C   UNL     1       3.136   0.068  -0.442  0.00  0.00    -0.001 A 
ATOM     29  C   UNL     1       4.266  -0.751  -0.541  0.00  0.00    +0.010 A 
ATOM     30  C   UNL     1       5.513  -0.197  -0.466  0.00  0.00    +0.001 A 
ATOM     31  C   UNL     1       5.668   1.171  -0.291  0.00  0.00    +0.005 A 
ATOM     32  C   UNL     1       4.570   1.997  -0.191  0.00  0.00    -0.026 A 
ATOM     33  C   UNL     1       3.290   1.456  -0.265  0.00  0.00    +0.052 A 
ATOM     34  N   UNL     1       2.174   2.258  -0.168  0.00  0.00    -0.322 N 
ATOM     35  H   UNL     1       2.287   3.344  -0.031  0.00  0.00    +0.169 HD
ATOM     36  C   UNL     1       0.937   1.735  -0.240  0.00  0.00    +0.251 A 
ATOM     37  O   UNL     1      -0.027   2.475  -0.155  0.00  0.00    -0.268 OA
ATOM     38  C   UNL     1       4.753   3.481  -0.002  0.00  0.00    +0.046 C 
ENDBRANCH  25  26
ENDBRANCH   1  25
TORSDOF 10
