REMARK  Name = ZINC14994082
REMARK  13 active torsions:
REMARK  status: ('A' for Active; 'I' for Inactive)
REMARK    1  A    between atoms: C_1  and  C_2
REMARK    2  A    between atoms: C_3  and  C_8
REMARK    3  A    between atoms: N_5  and  C_7
REMARK    4  A    between atoms: C_8  and  N_9
REMARK    5  A    between atoms: N_9  and  C_10
REMARK    6  A    between atoms: N_9  and  C_11
REMARK    7  A    between atoms: C_11  and  C_13
REMARK    8  A    between atoms: C_11  and  C_21
REMARK    9  A    between atoms: C_13  and  C_14
REMARK   10  A    between atoms: N_24  and  C_27
REMARK   11  A    between atoms: C_27  and  C_28
REMARK   12  A    between atoms: C_31  and  N_34
REMARK   13  A    between atoms: C_35  and  C_37
REMARK                            x       y       z     vdW  Elec       q    Type
REMARK                         _______ _______ _______ _____ _____    ______ ____
ROOT
ATOM      1  C   UNL     1      -1.329   1.986  -1.043  0.00  0.00    +0.064 C 
ENDROOT
BRANCH   1   2
ATOM      2  C   UNL     1      -0.352   1.710  -2.188  0.00  0.00    +0.003 C 
ATOM      3  C   UNL     1      -0.116   0.202  -2.307  0.00  0.00    -0.014 C 
ATOM      4  C   UNL     1       0.910  -0.063  -3.412  0.00  0.00    -0.078 C 
ATOM      5  N   UNL     1       2.167   0.625  -3.091  0.00  0.00    +0.382 N 
ATOM      6  C   UNL     1       1.974   2.079  -3.019  0.00  0.00    -0.078 C 
ATOM      7  C   UNL     1       0.981   2.408  -1.902  0.00  0.00    -0.014 C 
ATOM      8  H   UNL     1       2.494   0.280  -2.099  0.00  0.00    -0.081 HD
BRANCH   5   9
ATOM      9  C   UNL     1       3.217   0.281  -4.060  0.00  0.00    -0.043 C 
BRANCH   9  10
ATOM     10  C   UNL     1       3.220  -1.209  -4.289  0.00  0.00    -0.064 A 
ATOM     11  C   UNL     1       4.009  -2.026  -3.501  0.00  0.00    +0.003 A 
ATOM     12  C   UNL     1       4.010  -3.392  -3.706  0.00  0.00    +0.023 A 
ATOM     13  C   UNL     1       3.226  -3.943  -4.711  0.00  0.00    +0.033 A 
ATOM     14  C   UNL     1       2.440  -3.119  -5.505  0.00  0.00    +0.023 A 
ATOM     15  C   UNL     1       2.439  -1.754  -5.292  0.00  0.00    +0.003 A 
BRANCH  13  16
ATOM     16  N   UNL     1       3.229  -5.326  -4.924  0.00  0.00    -0.286 N 
ATOM     17  C   UNL     1       3.073  -5.816  -6.170  0.00  0.00    +0.214 C 
ATOM     18  O   UNL     1       3.027  -5.061  -7.117  0.00  0.00    -0.276 OA
ATOM     19  C   UNL     1       2.955  -7.303  -6.385  0.00  0.00    +0.109 C 
ATOM     20  H   UNL     1       3.359  -6.013  -4.075  0.00  0.00    +0.155 HD
ENDBRANCH  13  16
ENDBRANCH   9  10
ENDBRANCH   5   9
ENDBRANCH   1   2
BRANCH   1  21
ATOM     21  N   UNL     1      -2.707   1.888  -1.542  0.00  0.00    -0.298 NA
ATOM     22  C   UNL     1      -2.936   0.598  -2.207  0.00  0.00    +0.105 C 
BRANCH  21  23
ATOM     23  C   UNL     1      -3.023   3.007  -2.440  0.00  0.00    +0.123 C 
BRANCH  23  26
ATOM     24  C   UNL     1      -5.075   4.098  -0.286  0.00  0.00    +0.068 C 
ATOM     25  C   UNL     1      -5.423   3.589  -1.661  0.00  0.00    +0.064 A 
ATOM     26  C   UNL     1      -4.516   3.107  -2.611  0.00  0.00    +0.007 A 
ATOM     27  C   UNL     1      -5.218   2.742  -3.709  0.00  0.00    +0.113 A 
ATOM     28  N   UNL     1      -6.522   2.990  -3.465  0.00  0.00    -0.274 N 
ATOM     29  N   UNL     1      -6.625   3.525  -2.174  0.00  0.00    -0.176 NA
ATOM     30  C   UNL     1      -7.633   2.743  -4.387  0.00  0.00    +0.172 C 
ENDBRANCH  23  26
ENDBRANCH  21  23
ENDBRANCH   1  21
BRANCH   1  31
ATOM     31  C   UNL     1      -1.115   0.957   0.069  0.00  0.00    +0.054 C 
BRANCH  31  32
ATOM     32  C   UNL     1      -2.031   1.268   1.224  0.00  0.00    -0.046 A 
ATOM     33  C   UNL     1      -1.647   2.188   2.182  0.00  0.00    +0.006 A 
ATOM     34  C   UNL     1      -2.488   2.477   3.240  0.00  0.00    +0.038 A 
ATOM     35  C   UNL     1      -3.712   1.838   3.345  0.00  0.00    +0.123 A 
ATOM     36  C   UNL     1      -4.093   0.913   2.388  0.00  0.00    +0.038 A 
ATOM     37  C   UNL     1      -3.252   0.629   1.329  0.00  0.00    +0.006 A 
ATOM     38  F   UNL     1      -4.533   2.117   4.381  0.00  0.00    -0.205 F 
ENDBRANCH  31  32
ENDBRANCH   1  31
TORSDOF 9
