REMARK  Name = ZINC32289558
REMARK  12 active torsions:
REMARK  status: ('A' for Active; 'I' for Inactive)
REMARK    1  A    between atoms: C_1  and  C_2
REMARK    2  A    between atoms: C_2  and  C_3
REMARK    3  A    between atoms: C_4  and  C_29
REMARK    4  A    between atoms: C_5  and  C_28
REMARK    5  A    between atoms: C_6  and  C_9
REMARK    6  A    between atoms: N_11  and  C_12
REMARK    7  A    between atoms: C_16  and  O_18
REMARK    8  A    between atoms: O_18  and  C_19
REMARK    9  A    between atoms: C_19  and  C_20
REMARK   10  A    between atoms: C_24  and  C_26
REMARK   11  A    between atoms: C_29  and  O_31
REMARK   12  A    between atoms: O_31  and  C_32
REMARK                            x       y       z     vdW  Elec       q    Type
REMARK                         _______ _______ _______ _____ _____    ______ ____
ROOT
ATOM      1  C   UNL     1       0.020  -5.630   4.421  0.00  0.00    +0.265 C 
ATOM      2  O   UNL     1       0.021  -6.366   3.451  0.00  0.00    -0.268 OA
ATOM      3  N   UNL     1       0.102  -4.295   4.253  0.00  0.00    -0.280 N 
ATOM      4  H   UNL     1       0.188  -3.635   5.129  0.00  0.00    +0.155 HD
ENDROOT
BRANCH   1   8
ATOM      5  C   UNL     1      -0.173  -6.328   7.984  0.00  0.00    +0.031 A 
ATOM      6  C   UNL     1      -0.223  -7.617   7.487  0.00  0.00    +0.083 A 
ATOM      7  C   UNL     1      -0.162  -7.522   6.078  0.00  0.00    -0.006 A 
ATOM      8  C   UNL     1      -0.070  -6.196   5.772  0.00  0.00    +0.106 A 
ATOM      9  N   UNL     1      -0.081  -5.479   6.948  0.00  0.00    -0.353 N 
ATOM     10  H   UNL     1      -0.029  -4.395   7.129  0.00  0.00    +0.166 HD
ATOM     11  C   UNL     1      -0.191  -8.668   5.099  0.00  0.00    +0.047 C 
BRANCH   5  13
ATOM     12  C   UNL     1       1.198  -6.011  10.026  0.00  0.00    +0.010 C 
ATOM     13  C   UNL     1      -0.214  -5.942   9.440  0.00  0.00    +0.050 C 
ENDBRANCH   5  13
BRANCH   6  14
ATOM     14  C   UNL     1      -0.325  -8.856   8.276  0.00  0.00    +0.341 C 
ATOM     15  O   UNL     1      -1.417  -9.309   8.557  0.00  0.00    -0.245 OA
BRANCH  14  16
ATOM     16  O   UNL     1       0.792  -9.487   8.688  0.00  0.00    -0.464 OA
ATOM     17  C   UNL     1       0.615 -10.703   9.462  0.00  0.00    +0.280 C 
ENDBRANCH  14  16
ENDBRANCH   6  14
ENDBRANCH   1   8
BRANCH   3  18
ATOM     18  C   UNL     1       0.076  -3.749   2.966  0.00  0.00    +0.037 A 
ATOM     19  C   UNL     1       0.801  -2.598   2.684  0.00  0.00    +0.023 A 
ATOM     20  C   UNL     1       0.776  -2.059   1.413  0.00  0.00    +0.005 A 
ATOM     21  C   UNL     1       0.029  -2.662   0.418  0.00  0.00    +0.046 A 
ATOM     22  C   UNL     1      -0.698  -3.812   0.694  0.00  0.00    +0.123 A 
ATOM     23  C   UNL     1      -0.679  -4.353   1.970  0.00  0.00    +0.069 A 
BRANCH  22  24
ATOM     24  O   UNL     1      -1.431  -4.404  -0.285  0.00  0.00    -0.487 OA
BRANCH  24  25
ATOM     25  C   UNL     1      -1.409  -3.788  -1.574  0.00  0.00    +0.264 C 
BRANCH  25  26
ATOM     26  C   UNL     1      -2.274  -4.578  -2.523  0.00  0.00    -0.009 A 
ATOM     27  C   UNL     1      -3.616  -4.269  -2.653  0.00  0.00    +0.007 A 
ATOM     28  C   UNL     1      -4.417  -4.989  -3.522  0.00  0.00    +0.002 A 
ATOM     29  C   UNL     1      -3.881  -6.020  -4.265  0.00  0.00    +0.019 A 
ATOM     30  C   UNL     1      -2.527  -6.338  -4.138  0.00  0.00    +0.052 A 
ATOM     31  C   UNL     1      -1.724  -5.604  -3.263  0.00  0.00    +0.025 A 
BRANCH  30  32
ATOM     32  C   UNL     1      -1.964  -7.407  -4.907  0.00  0.00    +0.099 C 
ATOM     33  N   UNL     1      -1.517  -8.255  -5.516  0.00  0.00    -0.191 NA
ENDBRANCH  30  32
ENDBRANCH  25  26
ENDBRANCH  24  25
ENDBRANCH  22  24
ENDBRANCH   3  18
TORSDOF 9
