REMARK  Name = ZINC63362257
REMARK  6 active torsions:
REMARK  status: ('A' for Active; 'I' for Inactive)
REMARK    1  A    between atoms: C_1  and  C_2
REMARK    2  A    between atoms: C_2  and  C_4
REMARK    3  A    between atoms: C_2  and  N_10
REMARK    4  A    between atoms: C_11  and  C_13
REMARK    5  A    between atoms: C_18  and  N_19
REMARK    6  A    between atoms: C_22  and  C_38
REMARK                            x       y       z     vdW  Elec       q    Type
REMARK                         _______ _______ _______ _____ _____    ______ ____
ROOT
ATOM      1  N   UNL     1      -3.545  -0.948  -3.548  0.00  0.00    -0.192 N 
ATOM      2  C   UNL     1      -2.840  -1.805  -4.315  0.00  0.00    +0.253 C 
ATOM      3  O   UNL     1      -2.594  -2.967  -4.076  0.00  0.00    -0.272 OA
ATOM      4  C   UNL     1      -2.421  -1.015  -5.536  0.00  0.00    +0.137 C 
ATOM      5  C   UNL     1      -0.892  -0.941  -5.617  0.00  0.00    +0.139 C 
ATOM      6  C   UNL     1      -0.564   0.267  -6.487  0.00  0.00    -0.034 C 
ATOM      7  C   UNL     1       0.175  -0.188  -7.494  0.00  0.00    -0.001 A 
ATOM      8  C   UNL     1       0.834   0.505  -8.613  0.00  0.00    +0.010 A 
ATOM      9  C   UNL     1       1.515  -0.282  -9.487  0.00  0.00    +0.001 A 
ATOM     10  C   UNL     1       1.605  -1.672  -9.361  0.00  0.00    +0.002 A 
ATOM     11  C   UNL     1       1.034  -2.391  -8.362  0.00  0.00    +0.026 A 
ATOM     12  C   UNL     1       0.293  -1.673  -7.378  0.00  0.00    +0.043 A 
ATOM     13  N   UNL     1      -0.337  -2.105  -6.311  0.00  0.00    -0.375 N 
ATOM     14  C   UNL     1      -1.086   1.655  -6.207  0.00  0.00    +0.052 C 
ATOM     15  C   UNL     1      -2.615   1.542  -6.042  0.00  0.00    +0.115 C 
ATOM     16  N   UNL     1      -2.902   0.352  -5.235  0.00  0.00    -0.268 N 
ATOM     17  C   UNL     1      -3.603   0.273  -4.096  0.00  0.00    +0.317 C 
ATOM     18  O   UNL     1      -4.218   1.204  -3.614  0.00  0.00    -0.252 OA
ATOM     19  C   UNL     1      -3.043  -1.573  -6.819  0.00  0.00    +0.044 C 
ATOM     20  H   UNL     1      -0.425  -3.029  -6.028  0.00  0.00    +0.160 HD
ENDROOT
BRANCH   1  26
ATOM     21  C   UNL     1      -3.435  -1.153  -1.134  0.00  0.00    +0.059 A 
ATOM     22  C   UNL     1      -4.048  -1.496   0.073  0.00  0.00    +0.015 A 
ATOM     23  C   UNL     1      -5.342  -1.972   0.076  0.00  0.00    +0.001 A 
ATOM     24  C   UNL     1      -6.038  -2.113  -1.113  0.00  0.00    +0.002 A 
ATOM     25  C   UNL     1      -5.444  -1.778  -2.314  0.00  0.00    +0.025 A 
ATOM     26  C   UNL     1      -4.145  -1.292  -2.335  0.00  0.00    +0.058 A 
BRANCH  21  28
ATOM     27  N   UNL     1      -1.372  -0.511   0.012  0.00  0.00    -0.305 N 
ATOM     28  C   UNL     1      -2.051  -0.643  -1.145  0.00  0.00    +0.246 C 
ATOM     29  O   UNL     1      -1.522  -0.341  -2.197  0.00  0.00    -0.270 OA
ATOM     30  H   UNL     1      -1.794  -0.752   0.852  0.00  0.00    +0.150 HD
BRANCH  27  32
ATOM     31  C   UNL     1      -0.019   1.526   0.010  0.00  0.00    +0.033 C 
ATOM     32  C   UNL     1       0.002  -0.004   0.002  0.00  0.00    +0.100 C 
BRANCH  32  33
ATOM     33  C   UNL     1       0.731  -0.503   1.223  0.00  0.00    -0.027 A 
ATOM     34  C   UNL     1       0.081  -0.558   2.442  0.00  0.00    +0.005 A 
ATOM     35  C   UNL     1       0.749  -1.016   3.562  0.00  0.00    +0.000 A 
ATOM     36  C   UNL     1       2.068  -1.420   3.463  0.00  0.00    +0.000 A 
ATOM     37  C   UNL     1       2.718  -1.365   2.244  0.00  0.00    +0.000 A 
ATOM     38  C   UNL     1       2.048  -0.911   1.123  0.00  0.00    +0.005 A 
ENDBRANCH  32  33
ENDBRANCH  27  32
ENDBRANCH  21  28
ENDBRANCH   1  26
TORSDOF 4
