REMARK  Name = ZINC64061468
REMARK  6 active torsions:
REMARK  status: ('A' for Active; 'I' for Inactive)
REMARK    1  A    between atoms: C_1  and  C_2
REMARK    2  A    between atoms: C_2  and  O_3
REMARK    3  A    between atoms: O_3  and  C_4
REMARK    4  A    between atoms: C_9  and  N_12
REMARK    5  A    between atoms: C_13  and  C_15
REMARK    6  A    between atoms: C_24  and  C_26
REMARK                            x       y       z     vdW  Elec       q    Type
REMARK                         _______ _______ _______ _____ _____    ______ ____
ROOT
ATOM      1  C   UNL     1      -7.731  -5.258   3.215  0.00  0.00    +0.082 C 
ATOM      2  C   UNL     1      -9.226  -4.976   3.052  0.00  0.00    +0.021 C 
ATOM      3  C   UNL     1      -8.704  -6.410   2.970  0.00  0.00    -0.015 C 
ATOM      4  C   UNL     1      -9.009  -7.347   4.143  0.00  0.00    +0.026 C 
ATOM      5  C   UNL     1     -10.339  -8.061   3.872  0.00  0.00    +0.108 C 
ATOM      6  N   UNL     1     -10.290  -8.659   2.531  0.00  0.00    -0.299 N 
ATOM      7  C   UNL     1     -10.018  -7.800   1.372  0.00  0.00    +0.108 C 
ATOM      8  C   UNL     1      -8.681  -7.081   1.593  0.00  0.00    +0.026 C 
ATOM      9  C   UNL     1     -10.493  -9.981   2.368  0.00  0.00    +0.242 C 
ATOM     10  O   UNL     1     -10.717 -10.684   3.330  0.00  0.00    -0.273 OA
ENDROOT
BRANCH   9  11
ATOM     11  C   UNL     1     -10.441 -10.586   0.988  0.00  0.00    +0.190 C 
ATOM     12  C   UNL     1      -9.062 -10.410   0.393  0.00  0.00    +0.016 C 
ATOM     13  C   UNL     1      -8.589 -11.656   0.168  0.00  0.00    -0.001 A 
ATOM     14  C   UNL     1      -7.325 -12.154  -0.388  0.00  0.00    +0.048 A 
ATOM     15  C   UNL     1      -7.134 -13.490  -0.492  0.00  0.00    +0.124 A 
ATOM     16  C   UNL     1      -8.114 -14.409  -0.081  0.00  0.00    +0.040 A 
ATOM     17  C   UNL     1      -9.299 -14.026   0.439  0.00  0.00    +0.029 A 
ATOM     18  C   UNL     1      -9.605 -12.646   0.593  0.00  0.00    +0.043 A 
ATOM     19  N   UNL     1     -10.667 -12.034   1.062  0.00  0.00    -0.370 N 
ATOM     20  F   UNL     1      -5.972 -13.952  -1.003  0.00  0.00    -0.205 F 
ATOM     21  H   UNL     1     -11.466 -12.466   1.402  0.00  0.00    +0.161 HD
ENDBRANCH   9  11
BRANCH   1  23
ATOM     22  N   UNL     1      -5.666  -5.526   1.881  0.00  0.00    -0.312 N 
ATOM     23  C   UNL     1      -6.821  -4.862   2.081  0.00  0.00    +0.217 C 
ATOM     24  O   UNL     1      -7.129  -3.945   1.348  0.00  0.00    -0.275 OA
ATOM     25  H   UNL     1      -5.420  -6.258   2.467  0.00  0.00    +0.149 HD
BRANCH  22  31
ATOM     26  C   UNL     1      -2.136  -6.402  -2.101  0.00  0.00    +0.403 C 
ATOM     27  O   UNL     1      -2.572  -6.846  -3.145  0.00  0.00    -0.226 OA
ATOM     28  N   UNL     1      -2.932  -5.671  -1.296  0.00  0.00    -0.267 N 
ATOM     29  C   UNL     1      -2.418  -5.123  -0.033  0.00  0.00    +0.113 C 
ATOM     30  C   UNL     1      -3.346  -5.558   1.107  0.00  0.00    +0.041 C 
ATOM     31  C   UNL     1      -4.781  -5.141   0.778  0.00  0.00    +0.076 C 
ATOM     32  C   UNL     1      -5.235  -5.837  -0.507  0.00  0.00    +0.041 C 
ATOM     33  C   UNL     1      -4.328  -5.401  -1.667  0.00  0.00    +0.113 C 
BRANCH  26  34
ATOM     34  O   UNL     1      -0.859  -6.642  -1.748  0.00  0.00    -0.451 OA
BRANCH  34  36
ATOM     35  C   UNL     1       1.338  -7.590  -2.083  0.00  0.00    +0.048 C 
ATOM     36  C   UNL     1      -0.073  -7.425  -2.649  0.00  0.00    +0.230 C 
ENDBRANCH  34  36
ENDBRANCH  26  34
ENDBRANCH  22  31
ENDBRANCH   1  23
TORSDOF 5
