REMARK  Name = ZINC12342335
REMARK  8 active torsions:
REMARK  status: ('A' for Active; 'I' for Inactive)
REMARK    1  A    between atoms: C_1  and  N_48
REMARK    2  A    between atoms: C_2  and  N_48
REMARK    3  A    between atoms: C_3  and  C_4
REMARK    4  A    between atoms: C_3  and  N_48
REMARK    5  A    between atoms: C_4  and  N_5
REMARK    6  A    between atoms: C_16  and  C_18
REMARK    7  A    between atoms: C_18  and  S_19
REMARK    8  A    between atoms: S_19  and  C_22
REMARK                            x       y       z     vdW  Elec       q    Type
REMARK                         _______ _______ _______ _____ _____    ______ ____
ROOT
ATOM      1  N   UNL     1      -0.698   1.558   1.213  0.00  0.00    -0.251 N 
ATOM      2  C   UNL     1      -0.343   2.771   1.782  0.00  0.00    +0.168 A 
ATOM      3  N   UNL     1      -0.836   3.355   2.849  0.00  0.00    -0.224 NA
ATOM      4  C   UNL     1      -0.390   4.550   3.294  0.00  0.00    +0.080 A 
ATOM      5  C   UNL     1      -0.830   5.282   4.421  0.00  0.00    +0.030 A 
ATOM      6  C   UNL     1      -0.266   6.490   4.735  0.00  0.00    +0.017 A 
ATOM      7  C   UNL     1       0.753   7.037   3.967  0.00  0.00    +0.019 A 
ATOM      8  C   UNL     1       1.209   6.348   2.858  0.00  0.00    +0.032 A 
ATOM      9  C   UNL     1       0.649   5.137   2.535  0.00  0.00    +0.042 A 
ATOM     10  S   UNL     1       0.908   3.933   1.254  0.00  0.00    -0.052 S 
ATOM     11 BR   UNL     1       1.509   8.707   4.432  0.00  0.00    -0.050 Br
ATOM     12  C   UNL     1      -1.675   0.814   1.769  0.00  0.00    +0.243 C 
ATOM     13  O   UNL     1      -2.242   1.205   2.767  0.00  0.00    -0.273 OA
ENDROOT
BRANCH   1  14
ATOM     14  C   UNL     1      -0.013   1.086   0.008  0.00  0.00    +0.097 C 
BRANCH  14  15
ATOM     15  C   UNL     1      -0.753   1.593  -1.232  0.00  0.00    -0.060 C 
BRANCH  15  18
ATOM     16  C   UNL     1      -0.870   1.381  -3.641  0.00  0.00    -0.097 C 
ATOM     17  C   UNL     1       1.269   1.723  -2.558  0.00  0.00    -0.097 C 
ATOM     18  N   UNL     1      -0.062   1.091  -2.438  0.00  0.00    +0.377 N 
ATOM     19  H   UNL     1       0.059   0.074  -2.354  0.00  0.00    -0.083 HD
ENDBRANCH  15  18
ENDBRANCH  14  15
ENDBRANCH   1  14
BRANCH  12  20
ATOM     20  C   UNL     1      -2.061  -0.505   1.150  0.00  0.00    +0.267 C 
BRANCH  20  21
ATOM     21  S   UNL     1      -3.393  -1.262   2.121  0.00  0.00    +0.005 S 
ATOM     22  O   UNL     1      -2.909  -1.646   3.401  0.00  0.00    -0.169 OA
ATOM     23  O   UNL     1      -4.584  -0.496   1.997  0.00  0.00    -0.169 OA
BRANCH  21  24
ATOM     24  C   UNL     1      -3.747  -2.780   1.300  0.00  0.00    +0.089 A 
ATOM     25  C   UNL     1      -4.702  -2.820   0.301  0.00  0.00    +0.027 A 
ATOM     26  C   UNL     1      -4.975  -4.010  -0.346  0.00  0.00    +0.002 A 
ATOM     27  C   UNL     1      -4.301  -5.162   0.012  0.00  0.00    +0.000 A 
ATOM     28  C   UNL     1      -3.350  -5.124   1.014  0.00  0.00    +0.002 A 
ATOM     29  C   UNL     1      -3.073  -3.933   1.658  0.00  0.00    +0.027 A 
ENDBRANCH  21  24
ENDBRANCH  20  21
ENDBRANCH  12  20
TORSDOF 6
