REMARK  Name = ZINC30976308
REMARK  6 active torsions:
REMARK  status: ('A' for Active; 'I' for Inactive)
REMARK    1  A    between atoms: C_1  and  C_2
REMARK    2  A    between atoms: C_5  and  C_8
REMARK    3  A    between atoms: C_10  and  C_13
REMARK    4  A    between atoms: C_13  and  N_14
REMARK    5  A    between atoms: C_17  and  C_20
REMARK    6  A    between atoms: N_22  and  C_23
REMARK                            x       y       z     vdW  Elec       q    Type
REMARK                         _______ _______ _______ _____ _____    ______ ____
ROOT
ATOM      1  N   UNL     1       6.982   4.218   2.833  0.00  0.00    +0.386 N 
ATOM      2  C   UNL     1       7.775   3.776   1.679  0.00  0.00    -0.077 C 
ATOM      3  C   UNL     1       6.873   3.027   0.696  0.00  0.00    -0.006 C 
ATOM      4  C   UNL     1       6.249   1.820   1.402  0.00  0.00    +0.071 C 
ATOM      5  C   UNL     1       5.469   2.303   2.628  0.00  0.00    -0.006 C 
ATOM      6  C   UNL     1       6.412   3.074   3.555  0.00  0.00    -0.077 C 
ATOM      7  H   UNL     1       6.147   4.826   2.454  0.00  0.00    -0.081 HD
ENDROOT
BRANCH   4   8
ATOM      8  C   UNL     1       5.313   1.112   0.457  0.00  0.00    +0.216 C 
ATOM      9  O   UNL     1       5.159   1.530  -0.671  0.00  0.00    -0.276 OA
ATOM     10  N   UNL     1       4.646   0.014   0.865  0.00  0.00    -0.308 N 
ATOM     11  H   UNL     1       4.786  -0.366   1.887  0.00  0.00    +0.149 HD
BRANCH  10  12
ATOM     12  C   UNL     1       3.736  -0.675  -0.054  0.00  0.00    +0.103 C 
ATOM     13  C   UNL     1       3.606  -2.137   0.367  0.00  0.00    +0.027 C 
ATOM     14  C   UNL     1       2.493  -2.783  -0.466  0.00  0.00    +0.007 C 
ATOM     15  C   UNL     1       1.155  -2.199  -0.017  0.00  0.00    +0.035 C 
ATOM     16  C   UNL     1       1.207  -0.693  -0.016  0.00  0.00    -0.042 A 
ATOM     17  C   UNL     1       2.393   0.006  -0.026  0.00  0.00    -0.024 A 
ATOM     18  C   UNL     1       2.372   1.395  -0.015  0.00  0.00    +0.006 A 
ATOM     19  C   UNL     1       1.174   2.078   0.002  0.00  0.00    +0.000 A 
ATOM     20  C   UNL     1      -0.017   1.375   0.010  0.00  0.00    +0.000 A 
ATOM     21  C   UNL     1       0.002  -0.004   0.002  0.00  0.00    +0.004 A 
ENDBRANCH  10  12
ENDBRANCH   4   8
BRANCH   1  22
ATOM     22  C   UNL     1       7.784   5.060   3.731  0.00  0.00    +0.022 C 
BRANCH  22  25
ATOM     23  C   UNL     1       6.239   5.135   6.976  0.00  0.00    +0.202 A 
ATOM     24  N   UNL     1       7.076   4.547   6.090  0.00  0.00    -0.193 NA
ATOM     25  C   UNL     1       7.026   5.291   5.013  0.00  0.00    +0.211 A 
ATOM     26  O   UNL     1       6.182   6.296   5.267  0.00  0.00    -0.340 OA
ATOM     27  N   UNL     1       5.736   6.190   6.390  0.00  0.00    -0.056 NA
BRANCH  23  32
ATOM     28  C   UNL     1       5.101   3.324  12.323  0.00  0.00    +0.044 C 
ATOM     29  C   UNL     1       5.399   3.798  10.924  0.00  0.00    -0.050 A 
ATOM     30  C   UNL     1       4.788   4.940  10.439  0.00  0.00    +0.004 A 
ATOM     31  C   UNL     1       5.058   5.379   9.158  0.00  0.00    +0.012 A 
ATOM     32  C   UNL     1       5.947   4.668   8.354  0.00  0.00    +0.022 A 
ATOM     33  C   UNL     1       6.555   3.516   8.846  0.00  0.00    +0.012 A 
ATOM     34  C   UNL     1       6.282   3.089  10.130  0.00  0.00    +0.004 A 
ENDBRANCH  23  32
ENDBRANCH  22  25
ENDBRANCH   1  22
TORSDOF 5
