REMARK  Name = ZINC00781629
REMARK  8 active torsions:
REMARK  status: ('A' for Active; 'I' for Inactive)
REMARK    1  A    between atoms: C_1  and  C_2
REMARK    2  A    between atoms: C_3  and  C_30
REMARK    3  A    between atoms: C_4  and  C_23
REMARK    4  A    between atoms: C_10  and  C_15
REMARK    5  A    between atoms: C_20  and  O_21
REMARK    6  A    between atoms: O_21  and  C_22
REMARK    7  A    between atoms: C_30  and  O_32
REMARK    8  A    between atoms: O_32  and  C_33
REMARK                            x       y       z     vdW  Elec       q    Type
REMARK                         _______ _______ _______ _____ _____    ______ ____
ROOT
ATOM      1  C   UNL     1      -7.080  -0.385   4.815  0.00  0.00    +0.061 C 
ATOM      2  C   UNL     1      -5.831   0.327   5.268  0.00  0.00    +0.016 C 
ATOM      3  C   UNL     1      -5.166  -0.114   6.350  0.00  0.00    +0.065 C 
ATOM      4  C   UNL     1      -3.923   0.574   6.834  0.00  0.00    +0.092 C 
ATOM      5  C   UNL     1      -3.340   1.456   5.759  0.00  0.00    +0.024 C 
ATOM      6  C   UNL     1      -4.086   1.839   4.701  0.00  0.00    +0.016 C 
ATOM      7  N   UNL     1      -5.382   1.417   4.576  0.00  0.00    -0.321 N 
ATOM      8  C   UNL     1      -3.514   2.735   3.631  0.00  0.00    +0.060 C 
ATOM      9  C   UNL     1      -2.011   2.478   3.495  0.00  0.00    +0.035 C 
ATOM     10  C   UNL     1      -1.349   2.739   4.853  0.00  0.00    +0.088 C 
ATOM     11  C   UNL     1      -2.002   1.868   5.891  0.00  0.00    +0.162 C 
ATOM     12  O   UNL     1      -1.362   1.515   6.862  0.00  0.00    -0.292 OA
ATOM     13  H   UNL     1      -6.065   1.966   3.911  0.00  0.00    +0.152 HD
ENDROOT
BRANCH   4  14
ATOM     14  C   UNL     1      -4.261   1.417   8.037  0.00  0.00    -0.035 A 
ATOM     15  C   UNL     1      -5.163   2.458   7.919  0.00  0.00    +0.007 A 
ATOM     16  C   UNL     1      -5.478   3.229   9.022  0.00  0.00    +0.038 A 
ATOM     17  C   UNL     1      -4.880   2.965  10.243  0.00  0.00    +0.123 A 
ATOM     18  C   UNL     1      -3.973   1.926  10.358  0.00  0.00    +0.038 A 
ATOM     19  C   UNL     1      -3.664   1.153   9.255  0.00  0.00    +0.007 A 
ATOM     20  F   UNL     1      -5.182   3.722  11.320  0.00  0.00    -0.205 F 
ENDBRANCH   4  14
BRANCH   9  21
ATOM     21  C   UNL     1      -1.429   3.408   2.462  0.00  0.00    -0.002 A 
ATOM     22  C   UNL     1      -1.531   4.776   2.628  0.00  0.00    +0.007 A 
ATOM     23  C   UNL     1      -1.003   5.630   1.677  0.00  0.00    +0.001 A 
ATOM     24  C   UNL     1      -0.367   5.117   0.561  0.00  0.00    +0.004 A 
ATOM     25  C   UNL     1      -0.258   3.751   0.393  0.00  0.00    +0.046 A 
ATOM     26  C   UNL     1      -0.787   2.892   1.346  0.00  0.00    +0.124 A 
BRANCH  26  27
ATOM     27  O   UNL     1      -0.682   1.547   1.184  0.00  0.00    -0.495 OA
ATOM     28  C   UNL     1      -0.013   1.086   0.008  0.00  0.00    +0.277 C 
ENDBRANCH  26  27
ENDBRANCH   9  21
BRANCH   3  29
ATOM     29  C   UNL     1      -5.647  -1.248   7.045  0.00  0.00    +0.338 C 
ATOM     30  O   UNL     1      -6.653  -1.815   6.662  0.00  0.00    -0.245 OA
BRANCH  29  31
ATOM     31  O   UNL     1      -4.989  -1.702   8.133  0.00  0.00    -0.458 OA
BRANCH  31  32
ATOM     32  C   UNL     1      -5.531  -2.852   8.786  0.00  0.00    +0.177 C 
ATOM     33  C   UNL     1      -6.497  -2.417   9.907  0.00  0.00    +0.044 C 
ATOM     34  C   UNL     1      -6.255  -3.449  11.037  0.00  0.00    +0.004 C 
ATOM     35  C   UNL     1      -4.725  -3.679  10.970  0.00  0.00    +0.004 C 
ATOM     36  C   UNL     1      -4.405  -3.654   9.461  0.00  0.00    +0.044 C 
ENDBRANCH  31  32
ENDBRANCH  29  31
ENDBRANCH   3  29
TORSDOF 6
