REMARK  Name = ZINC01171627
REMARK  7 active torsions:
REMARK  status: ('A' for Active; 'I' for Inactive)
REMARK    1  A    between atoms: C_1  and  C_2
REMARK    2  A    between atoms: C_7  and  C_8
REMARK    3  A    between atoms: C_8  and  C_10
REMARK    4  A    between atoms: C_8  and  N_22
REMARK    5  A    between atoms: C_16  and  C_21
REMARK    6  A    between atoms: C_19  and  O_20
REMARK    7  A    between atoms: N_22  and  C_23
REMARK                            x       y       z     vdW  Elec       q    Type
REMARK                         _______ _______ _______ _____ _____    ______ ____
ROOT
ATOM      1  C   UNL     1       0.401   3.014   7.212  0.00  0.00    +0.136 C 
ENDROOT
BRANCH   1   2
ATOM      2  C   UNL     1      -0.317   2.950   5.888  0.00  0.00    +0.021 A 
ATOM      3  C   UNL     1      -0.871   1.745   5.465  0.00  0.00    +0.010 A 
ATOM      4  C   UNL     1      -1.525   1.654   4.275  0.00  0.00    +0.010 A 
ATOM      5  C   UNL     1      -1.647   2.791   3.458  0.00  0.00    +0.004 A 
ATOM      6  C   UNL     1      -2.317   2.736   2.221  0.00  0.00    +0.012 A 
ATOM      7  C   UNL     1      -2.401   3.882   1.484  0.00  0.00    +0.023 A 
ATOM      8  C   UNL     1      -1.822   5.058   1.957  0.00  0.00    +0.039 A 
ATOM      9  N   UNL     1      -1.199   5.104   3.109  0.00  0.00    -0.248 NA
ATOM     10  C   UNL     1      -1.086   4.020   3.882  0.00  0.00    +0.113 A 
ATOM     11  C   UNL     1      -0.414   4.076   5.121  0.00  0.00    +0.148 A 
ATOM     12  C   UNL     1      -1.920   6.311   1.125  0.00  0.00    +0.065 C 
BRANCH  11  13
ATOM     13  O   UNL     1       0.133   5.244   5.550  0.00  0.00    -0.504 OA
ATOM     14  H   UNL     1      -0.490   5.824   6.009  0.00  0.00    +0.292 HD
ENDBRANCH  11  13
ENDBRANCH   1   2
BRANCH   1  21
ATOM     15  C   UNL     1       2.817   1.710   6.314  0.00  0.00    +0.044 C 
ATOM     16  C   UNL     1       1.877   0.993   7.247  0.00  0.00    -0.045 A 
ATOM     17  C   UNL     1       2.173  -0.287   7.678  0.00  0.00    +0.004 A 
ATOM     18  C   UNL     1       1.307  -0.947   8.530  0.00  0.00    +0.000 A 
ATOM     19  C   UNL     1       0.148  -0.325   8.956  0.00  0.00    +0.000 A 
ATOM     20  C   UNL     1      -0.145   0.956   8.529  0.00  0.00    +0.006 A 
ATOM     21  C   UNL     1       0.721   1.617   7.677  0.00  0.00    -0.020 A 
ENDBRANCH   1  21
BRANCH   1  22
ATOM     22  N   UNL     1      -0.456   3.674   8.200  0.00  0.00    -0.320 N 
ATOM     23  H   UNL     1      -1.419   3.669   8.087  0.00  0.00    +0.148 HD
BRANCH  22  24
ATOM     24  C   UNL     1       0.112   4.306   9.300  0.00  0.00    +0.097 A 
ATOM     25  C   UNL     1       1.495   4.304   9.459  0.00  0.00    +0.041 A 
ATOM     26  C   UNL     1       2.047   4.942  10.555  0.00  0.00    +0.005 A 
ATOM     27  C   UNL     1       1.194   5.554  11.464  0.00  0.00    +0.018 A 
ATOM     28  C   UNL     1      -0.168   5.512  11.248  0.00  0.00    +0.084 A 
ATOM     29  N   UNL     1      -0.746   4.899  10.180  0.00  0.00    -0.350 N 
ATOM     30  H   UNL     1      -1.763   4.885  10.043  0.00  0.00    +0.166 HD
ENDBRANCH  22  24
ENDBRANCH   1  22
TORSDOF 5
