REMARK  Name = ZINC38686593
REMARK  10 active torsions:
REMARK  status: ('A' for Active; 'I' for Inactive)
REMARK    1  A    between atoms: C_4  and  C_7
REMARK    2  A    between atoms: C_7  and  O_8
REMARK    3  A    between atoms: O_8  and  C_9
REMARK    4  A    between atoms: C_13  and  C_15
REMARK    5  A    between atoms: C_20  and  O_29
REMARK    6  A    between atoms: C_24  and  N_28
REMARK    7  A    between atoms: C_25  and  C_26
REMARK    8  A    between atoms: O_29  and  C_30
REMARK    9  A    between atoms: C_30  and  C_32
REMARK   10  A    between atoms: C_36  and  N_38
REMARK                            x       y       z     vdW  Elec       q    Type
REMARK                         _______ _______ _______ _____ _____    ______ ____
ROOT
ATOM      1  C   UNL     1       7.482  -2.783   4.267  0.00  0.00    +0.098 C 
ATOM      2  C   UNL     1       8.826  -2.132   4.460  0.00  0.00    +0.008 A 
ATOM      3  C   UNL     1       8.903  -0.757   4.594  0.00  0.00    +0.012 A 
ATOM      4  C   UNL     1      10.127  -0.143   4.772  0.00  0.00    +0.047 A 
ATOM      5  C   UNL     1      11.286  -0.906   4.816  0.00  0.00    +0.135 A 
ATOM      6  C   UNL     1      11.212  -2.283   4.682  0.00  0.00    +0.093 A 
ATOM      7  C   UNL     1       9.980  -2.899   4.503  0.00  0.00    +0.138 A 
ATOM      8  O   UNL     1       9.924  -4.247   4.372  0.00  0.00    -0.441 OA
ATOM      9  C   UNL     1       8.766  -4.894   4.585  0.00  0.00    +0.199 C 
ATOM     10  C   UNL     1       7.576  -4.256   4.548  0.00  0.00    +0.098 C 
ENDROOT
BRANCH   1  15
ATOM     11  C   UNL     1       5.431  -1.704   1.282  0.00  0.00    +0.121 A 
ATOM     12  C   UNL     1       6.194  -2.196   0.233  0.00  0.00    +0.045 A 
ATOM     13  C   UNL     1       7.368  -2.875   0.493  0.00  0.00    +0.004 A 
ATOM     14  C   UNL     1       7.784  -3.064   1.798  0.00  0.00    +0.005 A 
ATOM     15  C   UNL     1       7.026  -2.575   2.846  0.00  0.00    -0.031 A 
ATOM     16  C   UNL     1       5.853  -1.890   2.590  0.00  0.00    +0.050 A 
BRANCH  11  17
ATOM     17  O   UNL     1       4.276  -1.035   1.029  0.00  0.00    -0.487 OA
BRANCH  17  18
ATOM     18  C   UNL     1       3.903  -0.880  -0.342  0.00  0.00    +0.264 C 
BRANCH  18  22
ATOM     19  C   UNL     1       0.224   1.276  -0.585  0.00  0.00    +0.000 A 
ATOM     20  C   UNL     1       1.426   1.958  -0.594  0.00  0.00    +0.000 A 
ATOM     21  C   UNL     1       2.617   1.260  -0.515  0.00  0.00    +0.007 A 
ATOM     22  C   UNL     1       2.605  -0.119  -0.427  0.00  0.00    -0.010 A 
ATOM     23  C   UNL     1       1.402  -0.801  -0.417  0.00  0.00    +0.007 A 
ATOM     24  C   UNL     1       0.211  -0.103  -0.498  0.00  0.00    +0.000 A 
ENDBRANCH  18  22
ENDBRANCH  17  18
ENDBRANCH  11  17
ENDBRANCH   1  15
BRANCH   9  25
ATOM     25  N   UNL     1       8.794  -6.242   4.847  0.00  0.00    -0.328 N 
ATOM     26  H   UNL     1       9.642  -6.713   4.875  0.00  0.00    +0.145 HD
ATOM     27  H   UNL     1       7.967  -6.723   5.003  0.00  0.00    +0.145 HD
ENDBRANCH   9  25
BRANCH  10  28
ATOM     28  C   UNL     1       6.377  -5.004   4.784  0.00  0.00    +0.101 C 
ATOM     29  N   UNL     1       5.426  -5.597   4.971  0.00  0.00    -0.191 NA
ENDBRANCH  10  28
BRANCH   5  30
ATOM     30  O   UNL     1      12.491  -0.303   4.991  0.00  0.00    -0.422 OA
BRANCH  30  31
ATOM     31  C   UNL     1      12.753   0.251   6.191  0.00  0.00    +0.345 C 
ATOM     32  O   UNL     1      11.969   0.113   7.108  0.00  0.00    -0.245 OA
BRANCH  31  33
ATOM     33  C   UNL     1      13.994   1.027   6.390  0.00  0.00    +0.062 A 
ATOM     34  C   UNL     1      14.895   1.193   5.336  0.00  0.00    +0.015 A 
ATOM     35  C   UNL     1      16.052   1.918   5.529  0.00  0.00    +0.003 A 
ATOM     36  C   UNL     1      16.321   2.482   6.765  0.00  0.00    +0.033 A 
ATOM     37  C   UNL     1      15.433   2.321   7.813  0.00  0.00    +0.127 A 
ATOM     38  C   UNL     1      14.269   1.603   7.632  0.00  0.00    +0.047 A 
BRANCH  37  39
ATOM     39  N   UNL     1      15.729   2.927   9.131  0.00  0.00    +0.056 N 
ATOM     40  O   UNL     1      16.746   3.561   9.290  0.00  0.00    -0.126 OA
ATOM     41  O   UNL     1      14.954   2.788  10.048  0.00  0.00    -0.126 OA
ENDBRANCH  37  39
ENDBRANCH  31  33
ENDBRANCH  30  31
ENDBRANCH   5  30
TORSDOF 10
