REMARK  Name = ZINC09229587
REMARK  7 active torsions:
REMARK  status: ('A' for Active; 'I' for Inactive)
REMARK    1  A    between atoms: C_3  and  N_26
REMARK    2  A    between atoms: C_6  and  C_7
REMARK    3  A    between atoms: C_8  and  C_9
REMARK    4  A    between atoms: N_11  and  C_12
REMARK    5  A    between atoms: C_12  and  N_14
REMARK    6  A    between atoms: N_14  and  C_15
REMARK    7  A    between atoms: C_16  and  C_24
REMARK                            x       y       z     vdW  Elec       q    Type
REMARK                         _______ _______ _______ _____ _____    ______ ____
ROOT
ATOM      1  C   UNL     1      -2.925   8.753  -4.561  0.00  0.00    +0.242 C 
ATOM      2  O   UNL     1      -2.907   7.868  -5.396  0.00  0.00    -0.270 OA
ATOM      3  N   UNL     1      -2.612   8.477  -3.280  0.00  0.00    -0.264 N 
ATOM      4  H   UNL     1      -2.626   9.183  -2.614  0.00  0.00    +0.157 HD
ENDROOT
BRANCH   1   6
ATOM      5  C   UNL     1      -3.602  10.393  -6.231  0.00  0.00    +0.013 C 
ATOM      6  C   UNL     1      -3.288  10.117  -4.948  0.00  0.00    +0.068 C 
BRANCH   5  12
ATOM      7  C   UNL     1      -3.994  12.784  -5.663  0.00  0.00    +0.010 A 
ATOM      8  C   UNL     1      -4.331  14.067  -6.036  0.00  0.00    +0.033 A 
ATOM      9  C   UNL     1      -4.652  14.346  -7.353  0.00  0.00    +0.126 A 
ATOM     10  C   UNL     1      -4.633  13.342  -8.306  0.00  0.00    +0.033 A 
ATOM     11  C   UNL     1      -4.292  12.055  -7.949  0.00  0.00    +0.010 A 
ATOM     12  C   UNL     1      -3.966  11.765  -6.620  0.00  0.00    -0.025 A 
BRANCH   9  13
ATOM     13  N   UNL     1      -5.019  15.726  -7.745  0.00  0.00    +0.056 N 
ATOM     14  O   UNL     1      -5.302  15.975  -8.903  0.00  0.00    -0.126 OA
ATOM     15  O   UNL     1      -5.037  16.612  -6.910  0.00  0.00    -0.126 OA
ENDBRANCH   9  13
ENDBRANCH   5  12
ENDBRANCH   1   6
BRANCH   3  16
ATOM     16  C   UNL     1      -2.278   7.221  -2.923  0.00  0.00    +0.141 C 
ATOM     17  S   UNL     1      -2.252   5.976  -4.098  0.00  0.00    -0.018 S 
BRANCH  16  18
ATOM     18  N   UNL     1      -1.964   6.946  -1.642  0.00  0.00    -0.290 N 
ATOM     19  H   UNL     1      -1.979   7.651  -0.976  0.00  0.00    +0.154 HD
BRANCH  18  20
ATOM     20  C   UNL     1      -1.621   5.653  -1.274  0.00  0.00    +0.089 A 
ATOM     21  C   UNL     1      -1.271   5.178  -0.019  0.00  0.00    +0.084 A 
ATOM     22  C   UNL     1      -0.951   3.765   0.100  0.00  0.00    -0.018 A 
ATOM     23  C   UNL     1      -1.032   3.059  -1.049  0.00  0.00    -0.004 A 
ATOM     24  S   UNL     1      -1.524   4.240  -2.273  0.00  0.00    -0.077 S 
ATOM     25  C   UNL     1      -0.761   1.597  -1.232  0.00  0.00    +0.043 C 
ATOM     26  C   UNL     1      -0.013   1.086   0.008  0.00  0.00    +0.005 C 
ATOM     27  C   UNL     1      -0.735   1.583   1.264  0.00  0.00    +0.005 C 
ATOM     28  C   UNL     1      -0.551   3.094   1.407  0.00  0.00    +0.037 C 
BRANCH  21  29
ATOM     29  C   UNL     1      -1.227   6.047   1.118  0.00  0.00    +0.102 C 
ATOM     30  N   UNL     1      -1.192   6.736   2.020  0.00  0.00    -0.191 NA
ENDBRANCH  21  29
ENDBRANCH  18  20
ENDBRANCH  16  18
ENDBRANCH   3  16
TORSDOF 7
