REMARK  Name = ZINC02622469
REMARK  12 active torsions:
REMARK  status: ('A' for Active; 'I' for Inactive)
REMARK    1  A    between atoms: C_1  and  O_2
REMARK    2  A    between atoms: O_2  and  C_3
REMARK    3  A    between atoms: C_6  and  C_11
REMARK    4  A    between atoms: C_8  and  O_9
REMARK    5  A    between atoms: O_9  and  C_10
REMARK    6  A    between atoms: C_13  and  C_21
REMARK    7  A    between atoms: C_24  and  C_26
REMARK    8  A    between atoms: C_26  and  O_27
REMARK    9  A    between atoms: O_27  and  C_28
REMARK   10  A    between atoms: C_28  and  C_30
REMARK   11  A    between atoms: C_31  and  C_32
REMARK   12  A    between atoms: C_36  and  N_38
REMARK                            x       y       z     vdW  Elec       q    Type
REMARK                         _______ _______ _______ _____ _____    ______ ____
ROOT
ATOM      1  C   UNL     1       2.581  -2.538   4.298  0.00  0.00    +0.073 A 
ATOM      2  C   UNL     1       3.056  -1.753   5.356  0.00  0.00    +0.042 A 
ATOM      3  C   UNL     1       3.697  -2.365   6.426  0.00  0.00    +0.050 A 
ATOM      4  C   UNL     1       3.839  -3.822   6.379  0.00  0.00    +0.013 A 
ATOM      5  C   UNL     1       4.469  -4.528   7.410  0.00  0.00    +0.011 A 
ATOM      6  C   UNL     1       4.580  -5.885   7.327  0.00  0.00    +0.001 A 
ATOM      7  C   UNL     1       4.074  -6.576   6.229  0.00  0.00    +0.002 A 
ATOM      8  C   UNL     1       3.455  -5.919   5.210  0.00  0.00    +0.028 A 
ATOM      9  C   UNL     1       3.322  -4.519   5.260  0.00  0.00    +0.072 A 
ATOM     10  N   UNL     1       2.715  -3.849   4.278  0.00  0.00    -0.247 NA
ENDROOT
BRANCH   1  14
ATOM     11  C   UNL     1       0.626  -0.618   1.042  0.00  0.00    +0.162 A 
ATOM     12  C   UNL     1       1.202   0.141   2.050  0.00  0.00    +0.050 A 
ATOM     13  C   UNL     1       1.836  -0.479   3.107  0.00  0.00    +0.014 A 
ATOM     14  C   UNL     1       1.899  -1.871   3.163  0.00  0.00    +0.004 A 
ATOM     15  C   UNL     1       1.321  -2.635   2.150  0.00  0.00    +0.059 A 
ATOM     16  C   UNL     1       0.681  -2.009   1.096  0.00  0.00    +0.162 A 
BRANCH  11  18
ATOM     17  C   UNL     1      -0.017   1.425   0.010  0.00  0.00    +0.277 C 
ATOM     18  O   UNL     1       0.002  -0.004   0.002  0.00  0.00    -0.491 OA
ENDBRANCH  11  18
BRANCH  16  19
ATOM     19  O   UNL     1       0.111  -2.752   0.109  0.00  0.00    -0.491 OA
ATOM     20  C   UNL     1       0.206  -4.172   0.229  0.00  0.00    +0.277 C 
ENDBRANCH  16  19
ENDBRANCH   1  14
BRANCH   3  21
ATOM     21  C   UNL     1       4.215  -1.579   7.563  0.00  0.00    +0.249 A 
ATOM     22  N   UNL     1       4.838  -2.053   8.617  0.00  0.00    -0.107 NA
ATOM     23  N   UNL     1       5.143  -1.079   9.401  0.00  0.00    -0.108 NA
ATOM     24  C   UNL     1       4.730   0.045   8.882  0.00  0.00    +0.255 A 
ATOM     25  O   UNL     1       4.140  -0.241   7.710  0.00  0.00    -0.417 OA
BRANCH  24  26
ATOM     26  C   UNL     1       4.890   1.416   9.486  0.00  0.00    +0.329 C 
BRANCH  26  27
ATOM     27  O   UNL     1       6.121   1.991   9.042  0.00  0.00    -0.452 OA
BRANCH  27  28
ATOM     28  C   UNL     1       6.418   3.226   9.495  0.00  0.00    +0.332 C 
ATOM     29  O   UNL     1       5.653   3.799  10.246  0.00  0.00    -0.246 OA
BRANCH  28  30
ATOM     30  C   UNL     1       7.662   3.877   9.082  0.00  0.00    +0.092 C 
ATOM     31  C   UNL     1       7.959   5.112   9.535  0.00  0.00    +0.015 C 
BRANCH  31  32
ATOM     32  C   UNL     1       9.210   5.767   9.120  0.00  0.00    -0.023 A 
ATOM     33  C   UNL     1      10.090   5.114   8.251  0.00  0.00    +0.008 A 
ATOM     34  C   UNL     1      11.260   5.734   7.866  0.00  0.00    +0.003 A 
ATOM     35  C   UNL     1      11.564   6.999   8.337  0.00  0.00    +0.033 A 
ATOM     36  C   UNL     1      10.699   7.652   9.197  0.00  0.00    +0.127 A 
ATOM     37  C   UNL     1       9.522   7.047   9.587  0.00  0.00    +0.040 A 
BRANCH  36  38
ATOM     38  N   UNL     1      11.034   9.005   9.696  0.00  0.00    +0.056 N 
ATOM     39  O   UNL     1      12.063   9.538   9.351  0.00  0.00    -0.126 OA
ATOM     40  O   UNL     1      10.279   9.576  10.447  0.00  0.00    -0.126 OA
ENDBRANCH  36  38
ENDBRANCH  31  32
ENDBRANCH  28  30
ENDBRANCH  27  28
ENDBRANCH  26  27
ENDBRANCH  24  26
ENDBRANCH   3  21
TORSDOF 10
