REMARK  Name = ZINC11865650
REMARK  11 active torsions:
REMARK  status: ('A' for Active; 'I' for Inactive)
REMARK    1  A    between atoms: C_1  and  C_2
REMARK    2  A    between atoms: C_9  and  C_32
REMARK    3  A    between atoms: C_10  and  C_16
REMARK    4  A    between atoms: C_16  and  C_17
REMARK    5  A    between atoms: C_17  and  C_18
REMARK    6  A    between atoms: N_20  and  CA_21
REMARK    7  A    between atoms: CA_21  and  C_23
REMARK    8  A    between atoms: CA_21  and  C_30
REMARK    9  A    between atoms: C_23  and  C_24
REMARK   10  A    between atoms: C_24  and  C_25
REMARK   11  A    between atoms: C_25  and  N_26
REMARK                            x       y       z     vdW  Elec       q    Type
REMARK                         _______ _______ _______ _____ _____    ______ ____
ROOT
ATOM      1  C   UNL     1       2.900   1.268  -1.460  0.00  0.00    +0.100 C 
ENDROOT
BRANCH   1   2
ATOM      2  C   UNL     1       4.228   0.555  -1.476  0.00  0.00    +0.214 C 
ATOM      3  O   UNL     1       4.772   0.263  -0.431  0.00  0.00    -0.276 OA
ATOM      4  N   UNL     1       4.811   0.242  -2.650  0.00  0.00    -0.302 N 
ATOM      5  H   UNL     1       4.376   0.475  -3.485  0.00  0.00    +0.150 HD
BRANCH   4   6
ATOM      6  CA  UNL     1       6.102  -0.451  -2.665  0.00  0.00    +0.186 C 
BRANCH   6   7
ATOM      7  C   UNL     1       5.876  -1.937  -2.546  0.00  0.00    +0.376 C 
ATOM      8  O   UNL     1       4.752  -2.371  -2.458  0.00  0.00    -0.244 OA
ATOM      9  OXT UNL     1       6.923  -2.776  -2.538  0.00  0.00    -0.244 OA
ENDBRANCH   6   7
BRANCH   6  10
ATOM     10  C   UNL     1       6.827  -0.149  -3.977  0.00  0.00    +0.035 C 
BRANCH  10  11
ATOM     11  C   UNL     1       7.168   1.341  -4.041  0.00  0.00    +0.021 C 
BRANCH  11  12
ATOM     12  C   UNL     1       7.893   1.643  -5.353  0.00  0.00    +0.106 C 
BRANCH  12  13
ATOM     13  N   UNL     1       8.219   3.070  -5.414  0.00  0.00    -0.300 N 
ATOM     14  C   UNL     1       8.864   3.569  -6.487  0.00  0.00    +0.297 C 
ATOM     15  O   UNL     1       9.176   2.834  -7.405  0.00  0.00    -0.253 OA
ATOM     16  N   UNL     1       9.164   4.882  -6.543  0.00  0.00    -0.313 N 
ATOM     17  H   UNL     1       7.970   3.656  -4.682  0.00  0.00    +0.150 HD
ATOM     18  H   UNL     1       8.915   5.468  -5.811  0.00  0.00    +0.146 HD
ATOM     19  H   UNL     1       9.628   5.241  -7.315  0.00  0.00    +0.146 HD
ENDBRANCH  12  13
ENDBRANCH  11  12
ENDBRANCH  10  11
ENDBRANCH   6  10
ENDBRANCH   4   6
ENDBRANCH   1   2
BRANCH   1  20
ATOM     20  C   UNL     1       2.464   1.502  -0.012  0.00  0.00    +0.052 C 
BRANCH  20  30
ATOM     21  C   UNL     1      -5.689   0.530   0.056  0.00  0.00    +0.047 C 
ATOM     22  C   UNL     1      -5.111   1.922   0.058  0.00  0.00    -0.005 A 
ATOM     23  C   UNL     1      -5.791   3.075   0.069  0.00  0.00    +0.199 A 
ATOM     24  O   UNL     1      -4.941   4.117   0.067  0.00  0.00    -0.463 OA
ATOM     25  C   UNL     1      -3.660   3.696   0.053  0.00  0.00    +0.139 A 
ATOM     26  C   UNL     1      -3.687   2.286   0.047  0.00  0.00    +0.024 A 
ATOM     27  C   UNL     1      -2.505   1.560   0.033  0.00  0.00    +0.023 A 
ATOM     28  C   UNL     1      -1.287   2.239   0.020  0.00  0.00    +0.022 A 
ATOM     29  C   UNL     1      -0.018   1.503   0.010  0.00  0.00    -0.030 A 
ATOM     30  C   UNL     1       1.137   2.216   0.003  0.00  0.00    +0.041 A 
ATOM     31  C   UNL     1       1.091   3.626   0.011  0.00  0.00    +0.341 A 
ATOM     32  O   UNL     1       2.135   4.252   0.004  0.00  0.00    -0.245 OA
ATOM     33  O   UNL     1      -0.072   4.295   0.024  0.00  0.00    -0.422 OA
ATOM     34  C   UNL     1      -1.260   3.648   0.032  0.00  0.00    +0.143 A 
ATOM     35  C   UNL     1      -2.445   4.363   0.046  0.00  0.00    +0.093 A 
ATOM     36  C   UNL     1       0.002  -0.004   0.002  0.00  0.00    +0.045 C 
ENDBRANCH  20  30
ENDBRANCH   1  20
TORSDOF 9
