REMARK  Name = ZINC41511241
REMARK  10 active torsions:
REMARK  status: ('A' for Active; 'I' for Inactive)
REMARK    1  A    between atoms: C_1  and  C_2
REMARK    2  A    between atoms: C_4  and  O_32
REMARK    3  A    between atoms: C_5  and  C_23
REMARK    4  A    between atoms: C_11  and  C_12
REMARK    5  A    between atoms: C_15  and  O_20
REMARK    6  A    between atoms: C_16  and  O_18
REMARK    7  A    between atoms: O_18  and  C_19
REMARK    8  A    between atoms: O_20  and  C_21
REMARK    9  A    between atoms: C_23  and  N_24
REMARK   10  A    between atoms: C_29  and  C_31
REMARK                            x       y       z     vdW  Elec       q    Type
REMARK                         _______ _______ _______ _____ _____    ______ ____
ROOT
ATOM      1  C   UNL     1       0.371   1.463  -0.008  0.00  0.00    +0.045 C 
ATOM      2  C   UNL     1       0.061  -0.012  -0.001  0.00  0.00    -0.033 A 
ATOM      3  C   UNL     1      -0.160  -0.670  -1.178  0.00  0.00    +0.050 A 
ATOM      4  C   UNL     1      -0.446  -2.032  -1.175  0.00  0.00    +0.122 A 
ATOM      5  C   UNL     1      -0.510  -2.736   0.017  0.00  0.00    +0.020 A 
ATOM      6  C   UNL     1      -0.288  -2.083   1.222  0.00  0.00    +0.145 A 
ATOM      7  C   UNL     1       0.006  -0.709   1.206  0.00  0.00    +0.071 A 
ATOM      8  C   UNL     1       0.197  -0.308   2.612  0.00  0.00    +0.232 C 
ATOM      9  O   UNL     1       0.462   0.801   3.042  0.00  0.00    -0.283 OA
ATOM     10  C   UNL     1      -0.005  -1.546   3.379  0.00  0.00    +0.176 C 
ATOM     11  C   UNL     1       0.069  -1.674   4.728  0.00  0.00    +0.058 C 
ATOM     12  O   UNL     1      -0.293  -2.532   2.496  0.00  0.00    -0.451 OA
ENDROOT
BRANCH  11  13
ATOM     13  C   UNL     1      -0.018  -3.003   5.345  0.00  0.00    -0.018 A 
ATOM     14  C   UNL     1      -0.004  -4.152   4.544  0.00  0.00    +0.012 A 
ATOM     15  C   UNL     1      -0.085  -5.397   5.126  0.00  0.00    +0.050 A 
ATOM     16  C   UNL     1      -0.182  -5.518   6.506  0.00  0.00    +0.162 A 
ATOM     17  C   UNL     1      -0.197  -4.380   7.311  0.00  0.00    +0.162 A 
ATOM     18  C   UNL     1      -0.109  -3.127   6.737  0.00  0.00    +0.057 A 
BRANCH  17  19
ATOM     19  O   UNL     1      -0.292  -4.504   8.662  0.00  0.00    -0.491 OA
ATOM     20  C   UNL     1      -0.302  -3.296   9.425  0.00  0.00    +0.277 C 
ENDBRANCH  17  19
BRANCH  16  21
ATOM     21  O   UNL     1      -0.262  -6.750   7.074  0.00  0.00    -0.491 OA
ATOM     22  C   UNL     1      -0.241  -7.873   6.191  0.00  0.00    +0.277 C 
ENDBRANCH  16  21
ENDBRANCH  11  13
BRANCH   4  23
ATOM     23  O   UNL     1      -0.664  -2.677  -2.349  0.00  0.00    -0.506 OA
ATOM     24  H   UNL     1       0.135  -3.045  -2.751  0.00  0.00    +0.292 HD
ENDBRANCH   4  23
BRANCH   5  25
ATOM     25  C   UNL     1      -0.822  -4.211   0.005  0.00  0.00    -0.035 C 
BRANCH  25  26
ATOM     26  N   UNL     1       0.429  -4.975  -0.094  0.00  0.00    +0.384 N 
ATOM     27  C   UNL     1       1.071  -4.695  -1.384  0.00  0.00    -0.078 C 
ATOM     28  C   UNL     1       2.413  -5.425  -1.459  0.00  0.00    -0.019 C 
ATOM     29  C   UNL     1       2.178  -6.931  -1.321  0.00  0.00    -0.003 C 
ATOM     30  C   UNL     1       1.442  -7.204  -0.006  0.00  0.00    -0.016 C 
ATOM     31  C   UNL     1       0.135  -6.409   0.016  0.00  0.00    -0.071 C 
ATOM     32  C   UNL     1      -0.605  -6.678   1.328  0.00  0.00    -0.013 C 
ATOM     33  H   UNL     1       1.049  -4.702   0.654  0.00  0.00    -0.081 HD
ENDBRANCH  25  26
ENDBRANCH   5  25
TORSDOF 6
