REMARK  Name = ZINC04181500
REMARK  8 active torsions:
REMARK  status: ('A' for Active; 'I' for Inactive)
REMARK    1  A    between atoms: C_2  and  C_18
REMARK    2  A    between atoms: C_5  and  C_7
REMARK    3  A    between atoms: C_8  and  C_9
REMARK    4  A    between atoms: C_9  and  C_11
REMARK    5  A    between atoms: C_14  and  N_17
REMARK    6  A    between atoms: C_19  and  C_20
REMARK    7  A    between atoms: C_20  and  C_22
REMARK    8  A    between atoms: C_25  and  N_28
REMARK                            x       y       z     vdW  Elec       q    Type
REMARK                         _______ _______ _______ _____ _____    ______ ____
ROOT
ATOM      1  C   UNL     1      -0.016   1.361   0.009  0.00  0.00    +0.008 A 
ATOM      2  C   UNL     1       1.187   2.078   0.002  0.00  0.00    -0.025 A 
ATOM      3  C   UNL     1       2.409   1.394  -0.013  0.00  0.00    +0.008 A 
ATOM      4  C   UNL     1       2.428   0.029  -0.020  0.00  0.00    +0.008 A 
ATOM      5  C   UNL     1       1.224  -0.688  -0.012  0.00  0.00    -0.025 A 
ATOM      6  C   UNL     1       0.002  -0.004   0.002  0.00  0.00    +0.008 A 
ENDROOT
BRANCH   5   7
ATOM      7  C   UNL     1       1.244  -2.158  -0.020  0.00  0.00    +0.012 C 
ATOM      8  C   UNL     1       0.084  -2.849  -0.012  0.00  0.00    +0.052 C 
BRANCH   8   9
ATOM      9  C   UNL     1       0.104  -4.313  -0.021  0.00  0.00    +0.186 C 
ATOM     10  O   UNL     1       1.166  -4.907  -0.035  0.00  0.00    -0.287 OA
BRANCH   9  11
ATOM     11  C   UNL     1      -1.164  -5.068  -0.012  0.00  0.00    +0.022 A 
ATOM     12  C   UNL     1      -2.385  -4.387  -0.001  0.00  0.00    +0.013 A 
ATOM     13  C   UNL     1      -3.562  -5.091   0.008  0.00  0.00    +0.023 A 
ATOM     14  C   UNL     1      -3.541  -6.484   0.005  0.00  0.00    +0.025 A 
ATOM     15  C   UNL     1      -2.326  -7.165  -0.005  0.00  0.00    +0.023 A 
ATOM     16  C   UNL     1      -1.147  -6.466  -0.020  0.00  0.00    +0.013 A 
BRANCH  14  17
ATOM     17  N   UNL     1      -4.735  -7.195   0.015  0.00  0.00    -0.358 N 
ATOM     18  H   UNL     1      -5.582  -6.721   0.022  0.00  0.00    +0.142 HD
ATOM     19  H   UNL     1      -4.722  -8.165   0.013  0.00  0.00    +0.142 HD
ENDBRANCH  14  17
ENDBRANCH   9  11
ENDBRANCH   8   9
ENDBRANCH   5   7
BRANCH   2  20
ATOM     20  C   UNL     1       1.167   3.548   0.009  0.00  0.00    +0.012 C 
ATOM     21  C   UNL     1       2.327   4.239   0.002  0.00  0.00    +0.052 C 
BRANCH  21  22
ATOM     22  C   UNL     1       2.307   5.702   0.010  0.00  0.00    +0.186 C 
ATOM     23  O   UNL     1       1.245   6.297   0.022  0.00  0.00    -0.287 OA
BRANCH  22  24
ATOM     24  C   UNL     1       3.575   6.458   0.002  0.00  0.00    +0.022 A 
ATOM     25  C   UNL     1       4.796   5.777  -0.019  0.00  0.00    +0.013 A 
ATOM     26  C   UNL     1       5.973   6.481  -0.026  0.00  0.00    +0.023 A 
ATOM     27  C   UNL     1       5.952   7.873  -0.013  0.00  0.00    +0.025 A 
ATOM     28  C   UNL     1       4.738   8.555   0.007  0.00  0.00    +0.023 A 
ATOM     29  C   UNL     1       3.558   7.856   0.009  0.00  0.00    +0.013 A 
BRANCH  27  30
ATOM     30  N   UNL     1       7.146   8.585  -0.021  0.00  0.00    -0.358 N 
ATOM     31  H   UNL     1       7.993   8.111  -0.035  0.00  0.00    +0.142 HD
ATOM     32  H   UNL     1       7.133   9.555  -0.011  0.00  0.00    +0.142 HD
ENDBRANCH  27  30
ENDBRANCH  22  24
ENDBRANCH  21  22
ENDBRANCH   2  20
TORSDOF 8
