REMARK  Name = ZINC05121257
REMARK  10 active torsions:
REMARK  status: ('A' for Active; 'I' for Inactive)
REMARK    1  A    between atoms: C_1  and  C_2
REMARK    2  A    between atoms: C_4  and  O_31
REMARK    3  A    between atoms: C_6  and  O_30
REMARK    4  A    between atoms: C_9  and  C_10
REMARK    5  A    between atoms: C_9  and  C_11
REMARK    6  A    between atoms: C_14  and  O_29
REMARK    7  A    between atoms: C_18  and  C_28
REMARK    8  A    between atoms: C_21  and  O_27
REMARK    9  A    between atoms: C_23  and  C_25
REMARK   10  A    between atoms: C_25  and  O_26
REMARK                            x       y       z     vdW  Elec       q    Type
REMARK                         _______ _______ _______ _____ _____    ______ ____
ROOT
ATOM      1  C   UNL     1      -4.855   0.627  -1.737  0.00  0.00    +0.013 C 
ATOM      2  C   UNL     1      -3.998  -0.370  -0.954  0.00  0.00    +0.050 C 
ATOM      3  C   UNL     1      -4.836  -0.962   0.177  0.00  0.00    +0.152 C 
ATOM      4  C   UNL     1      -5.234   0.131   1.151  0.00  0.00    +0.102 C 
ATOM      5  C   UNL     1      -4.328   1.353   1.261  0.00  0.00    +0.042 C 
ATOM      6  C   UNL     1      -4.491   0.409   2.448  0.00  0.00    +0.003 C 
ATOM      7  C   UNL     1      -3.333  -0.480   2.882  0.00  0.00    +0.014 C 
ATOM      8  C   UNL     1      -5.345   0.930   3.623  0.00  0.00    +0.014 C 
ATOM      9  C   UNL     1      -3.020   1.448   0.504  0.00  0.00    +0.051 C 
ATOM     10  C   UNL     1      -2.726   0.296  -0.428  0.00  0.00    +0.087 C 
ATOM     11  C   UNL     1      -1.915   0.785  -1.619  0.00  0.00    +0.084 C 
ATOM     12  C   UNL     1      -1.373  -0.357  -2.442  0.00  0.00    -0.011 C 
ATOM     13  C   UNL     1      -0.178  -0.018  -2.922  0.00  0.00    -0.009 C 
ATOM     14  C   UNL     1       0.260   1.282  -2.412  0.00  0.00    +0.191 C 
ATOM     15  O   UNL     1       1.180   1.959  -2.817  0.00  0.00    -0.289 OA
ATOM     16  C   UNL     1      -0.684   1.620  -1.252  0.00  0.00    +0.140 C 
ATOM     17  C   UNL     1      -0.013   1.080   0.008  0.00  0.00    +0.076 C 
ATOM     18  C   UNL     1      -0.640   1.597   1.257  0.00  0.00    -0.045 C 
ATOM     19  C   UNL     1      -1.907   1.752   1.459  0.00  0.00    -0.019 C 
ATOM     20  C   UNL     1       0.645  -0.892  -3.834  0.00  0.00    +0.047 C 
ENDROOT
BRANCH  16  21
ATOM     21  O   UNL     1      -0.956   3.024  -1.177  0.00  0.00    -0.380 OA
ATOM     22  H   UNL     1      -0.170   3.571  -1.043  0.00  0.00    +0.211 HD
ENDBRANCH  16  21
BRANCH  10  23
ATOM     23  O   UNL     1      -1.974  -0.707   0.267  0.00  0.00    -0.387 OA
ATOM     24  H   UNL     1      -1.756  -1.479  -0.272  0.00  0.00    +0.210 HD
ENDBRANCH  10  23
BRANCH   4  25
ATOM     25  O   UNL     1      -6.650   0.406   1.172  0.00  0.00    -0.385 OA
ATOM     26  H   UNL     1      -7.205  -0.383   1.101  0.00  0.00    +0.210 HD
ENDBRANCH   4  25
BRANCH   3  27
ATOM     27  O   UNL     1      -4.187  -2.068   0.785  0.00  0.00    -0.389 OA
ATOM     28  H   UNL     1      -3.933  -2.765   0.165  0.00  0.00    +0.210 HD
ENDBRANCH   3  27
BRANCH  18  29
ATOM     29  C   UNL     1       0.286   1.976   2.391  0.00  0.00    +0.186 C 
BRANCH  29  30
ATOM     30  O   UNL     1      -0.485   2.447   3.498  0.00  0.00    -0.391 OA
ATOM     31  H   UNL     1       0.045   2.708   4.264  0.00  0.00    +0.210 HD
ENDBRANCH  29  30
ENDBRANCH  18  29
TORSDOF 6
