REMARK  Name = ZINC02792400
REMARK  10 active torsions:
REMARK  status: ('A' for Active; 'I' for Inactive)
REMARK    1  A    between atoms: C_1  and  C_2
REMARK    2  A    between atoms: C_2  and  C_4
REMARK    3  A    between atoms: C_2  and  N_10
REMARK    4  A    between atoms: C_11  and  C_16
REMARK    5  A    between atoms: C_16  and  S_17
REMARK    6  A    between atoms: S_17  and  C_18
REMARK    7  A    between atoms: C_21  and  C_30
REMARK    8  A    between atoms: N_22  and  C_23
REMARK    9  A    between atoms: C_23  and  C_24
REMARK   10  A    between atoms: N_33  and  C_35
REMARK                            x       y       z     vdW  Elec       q    Type
REMARK                         _______ _______ _______ _____ _____    ______ ____
ROOT
ATOM      1  C   UNL     1      -5.144   3.642  -0.931  0.00  0.00    +0.192 A 
ATOM      2  N   UNL     1      -5.823   4.525  -0.235  0.00  0.00    -0.122 NA
ATOM      3  N   UNL     1      -5.052   5.103   0.616  0.00  0.00    -0.127 NA
ATOM      4  C   UNL     1      -3.836   4.620   0.520  0.00  0.00    +0.185 A 
ATOM      5  N   UNL     1      -3.857   3.666  -0.472  0.00  0.00    -0.298 N 
ENDROOT
BRANCH   4   6
ATOM      6  C   UNL     1      -2.663   5.025   1.324  0.00  0.00    +0.130 A 
ATOM      7  C   UNL     1      -2.651   6.004   2.339  0.00  0.00    +0.052 A 
ATOM      8  C   UNL     1      -1.394   6.076   2.829  0.00  0.00    +0.108 A 
ATOM      9  N   UNL     1      -0.633   5.183   2.160  0.00  0.00    -0.274 N 
ATOM     10  N   UNL     1      -1.445   4.530   1.224  0.00  0.00    -0.168 NA
ATOM     11  C   UNL     1       0.795   4.937   2.379  0.00  0.00    +0.172 C 
ENDBRANCH   4   6
BRANCH   1  12
ATOM     12  S   UNL     1      -5.775   2.614  -2.216  0.00  0.00    -0.078 S 
BRANCH  12  13
ATOM     13  C   UNL     1      -7.502   3.156  -2.232  0.00  0.00    +0.153 C 
BRANCH  13  15
ATOM     14  N   UNL     1      -8.412   2.772  -4.596  0.00  0.00    -0.297 N 
ATOM     15  C   UNL     1      -8.259   2.390  -3.286  0.00  0.00    +0.145 A 
ATOM     16  N   UNL     1      -8.877   1.268  -3.103  0.00  0.00    -0.133 NA
ATOM     17  N   UNL     1      -9.454   0.884  -4.321  0.00  0.00    -0.122 NA
ATOM     18  C   UNL     1      -9.146   1.834  -5.228  0.00  0.00    +0.203 A 
ATOM     19  S   UNL     1      -9.607   1.850  -6.877  0.00  0.00    -0.009 SA
BRANCH  14  21
ATOM     20  C   UNL     1      -8.426   4.146  -6.619  0.00  0.00    +0.036 C 
ATOM     21  C   UNL     1      -7.867   3.988  -5.204  0.00  0.00    +0.118 C 
BRANCH  21  22
ATOM     22  C   UNL     1      -6.364   3.889  -5.266  0.00  0.00    -0.025 A 
ATOM     23  C   UNL     1      -5.768   2.833  -5.929  0.00  0.00    +0.005 A 
ATOM     24  C   UNL     1      -4.390   2.745  -5.989  0.00  0.00    +0.000 A 
ATOM     25  C   UNL     1      -3.608   3.708  -5.379  0.00  0.00    +0.000 A 
ATOM     26  C   UNL     1      -4.204   4.761  -4.712  0.00  0.00    +0.000 A 
ATOM     27  C   UNL     1      -5.582   4.852  -4.655  0.00  0.00    +0.005 A 
ENDBRANCH  21  22
ENDBRANCH  14  21
ENDBRANCH  13  15
ENDBRANCH  12  13
ENDBRANCH   1  12
BRANCH   5  28
ATOM     28  C   UNL     1      -2.734   2.852  -0.941  0.00  0.00    +0.157 C 
BRANCH  28  29
ATOM     29  C   UNL     1      -2.666   1.558  -0.126  0.00  0.00    +0.138 C 
ATOM     30  C   UNL     1      -1.567   0.628  -0.685  0.00  0.00    +0.035 C 
ATOM     31  C   UNL     1      -0.955  -0.029   0.573  0.00  0.00    +0.031 C 
ATOM     32  C   UNL     1      -1.754   0.583   1.746  0.00  0.00    +0.160 C 
ATOM     33  O   UNL     1      -2.258   1.838   1.231  0.00  0.00    -0.375 OA
ENDBRANCH  28  29
ENDBRANCH   5  28
TORSDOF 8
