REMARK  Name = ZINC59890772
REMARK  13 active torsions:
REMARK  status: ('A' for Active; 'I' for Inactive)
REMARK    1  A    between atoms: C_1  and  C_2
REMARK    2  A    between atoms: C_5  and  N_8
REMARK    3  A    between atoms: N_8  and  S_9
REMARK    4  A    between atoms: S_9  and  C_12
REMARK    5  A    between atoms: C_14  and  C_20
REMARK    6  A    between atoms: C_17  and  O_18
REMARK    7  A    between atoms: O_18  and  C_19
REMARK    8  A    between atoms: N_22  and  C_23
REMARK    9  A    between atoms: C_23  and  C_24
REMARK   10  A    between atoms: C_24  and  N_32
REMARK   11  A    between atoms: C_28  and  C_31
REMARK   12  A    between atoms: N_32  and  C_33
REMARK   13  A    between atoms: N_32  and  C_34
REMARK                            x       y       z     vdW  Elec       q    Type
REMARK                         _______ _______ _______ _____ _____    ______ ____
ROOT
ATOM      1  C   UNL     1      -1.609  -4.821   2.063  0.00  0.00    +0.151 A 
ATOM      2  C   UNL     1      -1.574  -5.789   3.042  0.00  0.00    +0.045 A 
ATOM      3  C   UNL     1      -1.923  -5.465   4.355  0.00  0.00    +0.039 A 
ATOM      4  C   UNL     1      -2.307  -4.159   4.670  0.00  0.00    +0.017 A 
ATOM      5  C   UNL     1      -2.339  -3.197   3.686  0.00  0.00    +0.048 A 
ATOM      6  C   UNL     1      -1.986  -3.522   2.382  0.00  0.00    +0.147 A 
ENDROOT
BRANCH   3   7
ATOM      7  C   UNL     1      -1.887  -6.500   5.407  0.00  0.00    +0.244 C 
ATOM      8  O   UNL     1      -1.554  -7.636   5.131  0.00  0.00    -0.270 OA
ATOM      9  N   UNL     1      -2.224  -6.186   6.674  0.00  0.00    -0.313 N 
ATOM     10  H   UNL     1      -2.490  -5.279   6.894  0.00  0.00    +0.149 HD
BRANCH   9  11
ATOM     11  C   UNL     1      -2.189  -7.213   7.718  0.00  0.00    +0.092 C 
BRANCH  11  12
ATOM     12  C   UNL     1      -2.461  -6.567   9.078  0.00  0.00    -0.050 C 
ATOM     13  C   UNL     1      -3.765  -5.771   9.013  0.00  0.00    -0.010 C 
ATOM     14  C   UNL     1      -4.037  -5.125  10.373  0.00  0.00    -0.001 C 
ATOM     15  C   UNL     1      -4.157  -6.215  11.440  0.00  0.00    +0.003 C 
ATOM     16  C   UNL     1      -2.853  -7.011  11.505  0.00  0.00    -0.015 C 
ATOM     17  C   UNL     1      -2.581  -7.657  10.145  0.00  0.00    -0.007 C 
ATOM     18  C   UNL     1      -2.973  -8.101  12.572  0.00  0.00    +0.007 C 
BRANCH  12  19
ATOM     19  N   UNL     1      -1.353  -5.665   9.422  0.00  0.00    +0.381 N 
ATOM     20  C   UNL     1      -0.086  -6.408   9.380  0.00  0.00    -0.096 C 
ATOM     21  C   UNL     1      -1.304  -4.559   8.456  0.00  0.00    -0.096 C 
ATOM     22  H   UNL     1      -1.496  -5.295  10.350  0.00  0.00    -0.082 HD
ENDBRANCH  12  19
ENDBRANCH  11  12
ENDBRANCH   9  11
ENDBRANCH   3   7
BRANCH   1  23
ATOM     23  S   UNL     1      -1.169  -5.229   0.406  0.00  0.00    +0.076 S 
ATOM     24  O   UNL     1      -0.852  -6.614   0.399  0.00  0.00    -0.150 OA
ATOM     25  O   UNL     1      -0.250  -4.234  -0.026  0.00  0.00    -0.150 OA
BRANCH  23  26
ATOM     26  N   UNL     1      -2.530  -5.050  -0.520  0.00  0.00    -0.216 N 
ATOM     27  H   UNL     1      -2.545  -4.401  -1.240  0.00  0.00    +0.174 HD
BRANCH  26  32
ATOM     28  C   UNL     1      -7.107  -8.232   0.520  0.00  0.00    +0.044 C 
ATOM     29  C   UNL     1      -5.891  -7.387   0.244  0.00  0.00    -0.050 A 
ATOM     30  C   UNL     1      -6.029  -6.026   0.039  0.00  0.00    +0.005 A 
ATOM     31  C   UNL     1      -4.916  -5.248  -0.214  0.00  0.00    +0.025 A 
ATOM     32  C   UNL     1      -3.658  -5.833  -0.263  0.00  0.00    +0.048 A 
ATOM     33  C   UNL     1      -3.522  -7.201  -0.057  0.00  0.00    +0.025 A 
ATOM     34  C   UNL     1      -4.638  -7.972   0.202  0.00  0.00    +0.005 A 
ENDBRANCH  26  32
ENDBRANCH  23  26
ENDBRANCH   1  23
BRANCH   6  35
ATOM     35  O   UNL     1      -2.014  -2.569   1.415  0.00  0.00    -0.493 OA
ATOM     36  C   UNL     1      -2.524  -1.286   1.784  0.00  0.00    +0.277 C 
ENDBRANCH   6  35
TORSDOF 8
