REMARK  Name = ZINC08892464
REMARK  15 active torsions:
REMARK  status: ('A' for Active; 'I' for Inactive)
REMARK    1  A    between atoms: C_1  and  C_2
REMARK    2  A    between atoms: C_2  and  O_3
REMARK    3  A    between atoms: O_3  and  C_4
REMARK    4  A    between atoms: C_4  and  C_6
REMARK    5  A    between atoms: C_7  and  C_19
REMARK    6  A    between atoms: C_11  and  C_16
REMARK    7  A    between atoms: C_12  and  O_15
REMARK    8  A    between atoms: C_16  and  N_56
REMARK    9  A    between atoms: C_17  and  N_56
REMARK   10  A    between atoms: C_18  and  N_56
REMARK   11  A    between atoms: C_19  and  S_20
REMARK   12  A    between atoms: S_20  and  C_21
REMARK   13  A    between atoms: C_22  and  C_29
REMARK   14  A    between atoms: C_23  and  C_28
REMARK   15  A    between atoms: C_25  and  C_27
REMARK                            x       y       z     vdW  Elec       q    Type
REMARK                         _______ _______ _______ _____ _____    ______ ____
ROOT
ATOM      1  C   UNL     1      -3.863   3.570   0.922  0.00  0.00    +0.109 A 
ATOM      2  C   UNL     1      -5.115   3.916   1.330  0.00  0.00    +0.130 A 
ATOM      3  O   UNL     1      -5.103   4.211   2.634  0.00  0.00    -0.458 OA
ATOM      4  C   UNL     1      -3.862   4.093   3.153  0.00  0.00    +0.136 A 
ATOM      5  C   UNL     1      -3.007   3.684   2.120  0.00  0.00    +0.039 A 
ATOM      6  C   UNL     1      -1.655   3.474   2.370  0.00  0.00    -0.011 A 
ATOM      7  C   UNL     1      -1.155   3.683   3.642  0.00  0.00    +0.119 A 
ATOM      8  C   UNL     1      -2.002   4.095   4.665  0.00  0.00    +0.049 A 
ATOM      9  C   UNL     1      -3.344   4.299   4.426  0.00  0.00    +0.050 A 
ENDROOT
BRANCH   1  10
ATOM     10  C   UNL     1      -3.449   3.167  -0.428  0.00  0.00    +0.343 C 
ATOM     11  O   UNL     1      -3.478   1.994  -0.749  0.00  0.00    -0.245 OA
BRANCH  10  12
ATOM     12  O   UNL     1      -3.037   4.097  -1.313  0.00  0.00    -0.461 OA
BRANCH  12  14
ATOM     13  C   UNL     1      -2.210   4.817  -3.487  0.00  0.00    +0.048 C 
ATOM     14  C   UNL     1      -2.643   3.627  -2.629  0.00  0.00    +0.229 C 
ENDBRANCH  12  14
ENDBRANCH  10  12
ENDBRANCH   1  10
BRANCH   7  15
ATOM     15  O   UNL     1       0.167   3.486   3.893  0.00  0.00    -0.507 OA
ATOM     16  H   UNL     1       0.714   4.272   3.763  0.00  0.00    +0.292 HD
ENDBRANCH   7  15
BRANCH   6  17
ATOM     17  C   UNL     1      -0.740   3.027   1.259  0.00  0.00    -0.039 C 
BRANCH  17  20
ATOM     18  C   UNL     1      -0.013   1.086   0.008  0.00  0.00    -0.096 C 
ATOM     19  C   UNL     1      -0.072   1.015   2.428  0.00  0.00    -0.096 C 
ATOM     20  N   UNL     1      -0.727   1.550   1.216  0.00  0.00    +0.379 N 
ATOM     21  H   UNL     1      -1.695   1.209   1.182  0.00  0.00    -0.082 HD
ENDBRANCH  17  20
ENDBRANCH   6  17
BRANCH   2  22
ATOM     22  C   UNL     1      -6.335   3.949   0.446  0.00  0.00    +0.151 C 
BRANCH  22  23
ATOM     23  S   UNL     1      -7.148   2.332   0.480  0.00  0.00    -0.097 S 
BRANCH  23  24
ATOM     24  C   UNL     1      -8.500   2.646  -0.605  0.00  0.00    +0.115 A 
ATOM     25  C   UNL     1      -9.425   1.624  -0.885  0.00  0.00    +0.086 A 
ATOM     26  C   UNL     1     -10.493   1.900  -1.746  0.00  0.00    -0.029 A 
ATOM     27  C   UNL     1     -10.586   3.168  -2.294  0.00  0.00    +0.027 A 
ATOM     28  C   UNL     1      -9.634   4.119  -1.976  0.00  0.00    +0.040 A 
ATOM     29  N   UNL     1      -8.637   3.842  -1.158  0.00  0.00    -0.244 NA
ATOM     30  C   UNL     1      -9.738   5.498  -2.574  0.00  0.00    +0.065 C 
ATOM     31  C   UNL     1     -11.514   0.841  -2.073  0.00  0.00    +0.045 C 
BRANCH  25  32
ATOM     32  C   UNL     1      -9.280   0.328  -0.295  0.00  0.00    +0.102 C 
ATOM     33  N   UNL     1      -9.164  -0.701   0.172  0.00  0.00    -0.191 NA
ENDBRANCH  25  32
ENDBRANCH  23  24
ENDBRANCH  22  23
ENDBRANCH   2  22
TORSDOF 10
