REMARK  Name = ZINC02149606
REMARK  11 active torsions:
REMARK  status: ('A' for Active; 'I' for Inactive)
REMARK    1  A    between atoms: C_1  and  C_2
REMARK    2  A    between atoms: C_2  and  C_3
REMARK    3  A    between atoms: C_10  and  O_15
REMARK    4  A    between atoms: C_12  and  C_14
REMARK    5  A    between atoms: O_15  and  C_16
REMARK    6  A    between atoms: C_16  and  C_18
REMARK    7  A    between atoms: C_18  and  C_20
REMARK    8  A    between atoms: C_18  and  N_26
REMARK    9  A    between atoms: N_26  and  S_27
REMARK   10  A    between atoms: S_27  and  C_30
REMARK   11  A    between atoms: C_33  and  C_36
REMARK                            x       y       z     vdW  Elec       q    Type
REMARK                         _______ _______ _______ _____ _____    ______ ____
ROOT
ATOM      1  C   UNL     1       3.940  -4.089  -0.581  0.00  0.00    +0.215 C 
ENDROOT
BRANCH   1   2
ATOM      2  C   UNL     1       4.759  -4.071   0.683  0.00  0.00    -0.018 A 
ATOM      3  C   UNL     1       4.552  -5.031   1.656  0.00  0.00    +0.006 A 
ATOM      4  C   UNL     1       5.307  -5.016   2.814  0.00  0.00    +0.000 A 
ATOM      5  C   UNL     1       6.263  -4.035   3.003  0.00  0.00    +0.000 A 
ATOM      6  C   UNL     1       6.466  -3.072   2.033  0.00  0.00    +0.000 A 
ATOM      7  C   UNL     1       5.714  -3.089   0.873  0.00  0.00    +0.006 A 
ENDBRANCH   1   2
BRANCH   1   8
ATOM      8  C   UNL     1       2.526  -3.672  -0.270  0.00  0.00    +0.336 C 
ATOM      9  O   UNL     1       1.708  -4.502   0.052  0.00  0.00    -0.248 OA
BRANCH   8  10
ATOM     10  O   UNL     1       2.174  -2.378  -0.349  0.00  0.00    -0.424 OA
BRANCH  10  18
ATOM     11  C   UNL     1       1.334  -1.476   2.213  0.00  0.00    -0.027 A 
ATOM     12  C   UNL     1       0.834  -1.038   3.397  0.00  0.00    +0.096 A 
ATOM     13  C   UNL     1      -0.542  -0.751   3.514  0.00  0.00    +0.337 A 
ATOM     14  O   UNL     1      -0.978  -0.358   4.581  0.00  0.00    -0.245 OA
ATOM     15  O   UNL     1      -1.383  -0.899   2.479  0.00  0.00    -0.422 OA
ATOM     16  C   UNL     1      -0.950  -1.331   1.275  0.00  0.00    +0.143 A 
ATOM     17  C   UNL     1       0.410  -1.635   1.089  0.00  0.00    +0.063 A 
ATOM     18  C   UNL     1       0.862  -2.083  -0.162  0.00  0.00    +0.143 A 
ATOM     19  C   UNL     1      -0.039  -2.222  -1.202  0.00  0.00    +0.050 A 
ATOM     20  C   UNL     1      -1.378  -1.921  -1.011  0.00  0.00    -0.043 A 
ATOM     21  C   UNL     1      -1.834  -1.479   0.215  0.00  0.00    +0.050 A 
ATOM     22  C   UNL     1      -2.347  -2.078  -2.154  0.00  0.00    +0.044 C 
BRANCH  11  24
ATOM     23  C   UNL     1       3.488  -0.652   1.301  0.00  0.00    +0.009 C 
ATOM     24  C   UNL     1       2.800  -1.789   2.060  0.00  0.00    +0.033 C 
ENDBRANCH  11  24
ENDBRANCH  10  18
ENDBRANCH   8  10
ENDBRANCH   1   8
BRANCH   1  25
ATOM     25  N   UNL     1       3.937  -5.443  -1.141  0.00  0.00    -0.172 NA
ATOM     26  H   UNL     1       3.295  -6.098  -0.825  0.00  0.00    +0.149 HD
BRANCH  25  27
ATOM     27  S   UNL     1       5.031  -5.856  -2.314  0.00  0.00    +0.059 S 
ATOM     28  O   UNL     1       4.795  -7.222  -2.627  0.00  0.00    -0.153 OA
ATOM     29  O   UNL     1       4.981  -4.830  -3.295  0.00  0.00    -0.153 OA
BRANCH  27  30
ATOM     30  C   UNL     1       6.633  -5.777  -1.583  0.00  0.00    +0.105 A 
ATOM     31  C   UNL     1       7.353  -4.597  -1.623  0.00  0.00    +0.029 A 
ATOM     32  C   UNL     1       8.607  -4.534  -1.046  0.00  0.00    +0.005 A 
ATOM     33  C   UNL     1       9.146  -5.652  -0.437  0.00  0.00    -0.050 A 
ATOM     34  C   UNL     1       8.428  -6.833  -0.402  0.00  0.00    +0.005 A 
ATOM     35  C   UNL     1       7.171  -6.895  -0.975  0.00  0.00    +0.029 A 
ATOM     36  C   UNL     1      10.515  -5.584   0.188  0.00  0.00    +0.044 C 
ENDBRANCH  27  30
ENDBRANCH  25  27
ENDBRANCH   1  25
TORSDOF 8
