REMARK  Name = ZINC10585025
REMARK  5 active torsions:
REMARK  status: ('A' for Active; 'I' for Inactive)
REMARK    1  A    between atoms: C_4  and  C_7
REMARK    2  A    between atoms: C_7  and  C_8
REMARK    3  A    between atoms: C_7  and  N_64
REMARK    4  A    between atoms: N_21  and  C_22
REMARK    5  A    between atoms: N_27  and  C_29
REMARK                            x       y       z     vdW  Elec       q    Type
REMARK                         _______ _______ _______ _____ _____    ______ ____
ROOT
ATOM      1  C   UNL     1       1.407   1.968   0.027  0.00  0.00    -0.058 C 
ATOM      2  C   UNL     1      -0.040   1.463   0.025  0.00  0.00    +0.091 C 
ATOM      3  N   UNL     1      -0.022  -0.007   0.018  0.00  0.00    -0.289 N 
ATOM      4  C   UNL     1       0.799  -0.698   1.024  0.00  0.00    +0.091 C 
ATOM      5  C   UNL     1       2.213  -0.108   0.987  0.00  0.00    -0.058 C 
ATOM      6  C   UNL     1      -0.739  -0.704  -0.886  0.00  0.00    +0.302 C 
ATOM      7  O   UNL     1      -0.637  -1.914  -0.941  0.00  0.00    -0.253 OA
ATOM      8  N   UNL     1      -1.569  -0.059  -1.729  0.00  0.00    -0.294 N 
ATOM      9  H   UNL     1      -1.597   0.911  -1.734  0.00  0.00    +0.151 HD
ATOM     10  N   UNL     1       2.122   1.357   1.168  0.00  0.00    +0.389 N 
ATOM     11  H   UNL     1       1.601   1.553   2.031  0.00  0.00    -0.080 HD
ENDROOT
BRANCH   8  12
ATOM     12  C   UNL     1      -2.429  -0.822  -2.637  0.00  0.00    +0.101 C 
ATOM     13  C   UNL     1      -1.685  -1.162  -3.949  0.00  0.00    +0.120 C 
ATOM     14  C   UNL     1      -2.054  -0.035  -4.888  0.00  0.00    +0.222 C 
ATOM     15  O   UNL     1      -1.471   0.231  -5.918  0.00  0.00    -0.275 OA
ATOM     16  N   UNL     1      -3.124   0.628  -4.416  0.00  0.00    -0.270 N 
ATOM     17  C   UNL     1      -3.597   0.048  -3.154  0.00  0.00    +0.136 C 
BRANCH  16  18
ATOM     18  C   UNL     1      -3.711   1.732  -5.047  0.00  0.00    +0.036 A 
ATOM     19  C   UNL     1      -3.258   2.142  -6.293  0.00  0.00    +0.025 A 
ATOM     20  C   UNL     1      -3.841   3.228  -6.915  0.00  0.00    +0.022 A 
ATOM     21  C   UNL     1      -4.871   3.913  -6.294  0.00  0.00    +0.041 A 
ATOM     22  C   UNL     1      -5.321   3.509  -5.049  0.00  0.00    +0.022 A 
ATOM     23  C   UNL     1      -4.744   2.420  -4.425  0.00  0.00    +0.025 A 
ATOM     24 CL   UNL     1      -5.599   5.281  -7.076  0.00  0.00    -0.084 Cl
ENDBRANCH  16  18
ENDBRANCH   8  12
BRANCH  10  25
ATOM     25  C   UNL     1       3.476   1.936   1.284  0.00  0.00    -0.007 C 
BRANCH  25  29
ATOM     26  C   UNL     1       3.139   6.171   1.730  0.00  0.00    +0.000 A 
ATOM     27  C   UNL     1       4.151   5.636   0.954  0.00  0.00    +0.000 A 
ATOM     28  C   UNL     1       4.260   4.265   0.809  0.00  0.00    +0.002 A 
ATOM     29  C   UNL     1       3.357   3.430   1.441  0.00  0.00    -0.057 A 
ATOM     30  C   UNL     1       2.343   3.965   2.212  0.00  0.00    +0.002 A 
ATOM     31  C   UNL     1       2.236   5.335   2.360  0.00  0.00    +0.000 A 
ENDBRANCH  25  29
BRANCH  25  32
ATOM     32  C   UNL     1       4.153   1.355   2.499  0.00  0.00    -0.057 A 
ATOM     33  C   UNL     1       3.430   1.146   3.659  0.00  0.00    +0.002 A 
ATOM     34  C   UNL     1       4.049   0.609   4.772  0.00  0.00    +0.000 A 
ATOM     35  C   UNL     1       5.393   0.290   4.728  0.00  0.00    +0.000 A 
ATOM     36  C   UNL     1       6.117   0.504   3.570  0.00  0.00    +0.000 A 
ATOM     37  C   UNL     1       5.497   1.036   2.455  0.00  0.00    +0.002 A 
ENDBRANCH  25  32
ENDBRANCH  10  25
TORSDOF 5
