REMARK  Name = ZINC40078118
REMARK  16 active torsions:
REMARK  status: ('A' for Active; 'I' for Inactive)
REMARK    1  A    between atoms: C_1  and  C_2
REMARK    2  A    between atoms: C_2  and  C_3
REMARK    3  A    between atoms: C_3  and  O_4
REMARK    4  A    between atoms: O_4  and  C_5
REMARK    5  A    between atoms: C_8  and  C_11
REMARK    6  A    between atoms: C_11  and  C_13
REMARK    7  A    between atoms: N_17  and  C_32
REMARK    8  A    between atoms: C_18  and  C_20
REMARK    9  A    between atoms: C_23  and  O_29
REMARK   10  A    between atoms: C_24  and  O_26
REMARK   11  A    between atoms: O_26  and  C_27
REMARK   12  A    between atoms: C_27  and  C_28
REMARK   13  A    between atoms: O_29  and  C_30
REMARK   14  A    between atoms: C_30  and  C_31
REMARK   15  A    between atoms: C_32  and  C_33
REMARK   16  A    between atoms: C_33  and  O_34
REMARK                            x       y       z     vdW  Elec       q    Type
REMARK                         _______ _______ _______ _____ _____    ______ ____
ROOT
ATOM      1  C   UNL     1       3.437  -5.928   5.696  0.00  0.00    +0.076 C 
ATOM      2  C   UNL     1       3.962  -6.616   6.736  0.00  0.00    +0.249 C 
ATOM      3  C   UNL     1       3.789  -8.065   6.498  0.00  0.00    +0.288 C 
ATOM      4  O   UNL     1       4.157  -8.944   7.251  0.00  0.00    -0.266 OA
ATOM      5  N   UNL     1       3.163  -8.265   5.324  0.00  0.00    -0.281 N 
ATOM      6  C   UNL     1       2.886  -6.952   4.730  0.00  0.00    +0.145 C 
ATOM      7  O   UNL     1       4.553  -6.066   7.822  0.00  0.00    -0.282 OA
ENDROOT
BRANCH   6   8
ATOM      8  C   UNL     1       3.580  -6.832   3.398  0.00  0.00    -0.019 A 
ATOM      9  C   UNL     1       4.805  -7.442   3.201  0.00  0.00    +0.009 A 
ATOM     10  C   UNL     1       5.446  -7.336   1.980  0.00  0.00    +0.050 A 
ATOM     11  C   UNL     1       4.860  -6.617   0.951  0.00  0.00    +0.162 A 
ATOM     12  C   UNL     1       3.627  -6.003   1.149  0.00  0.00    +0.162 A 
ATOM     13  C   UNL     1       2.988  -6.118   2.373  0.00  0.00    +0.055 A 
BRANCH  12  14
ATOM     14  O   UNL     1       3.047  -5.297   0.141  0.00  0.00    -0.489 OA
BRANCH  14  15
ATOM     15  C   UNL     1       1.731  -4.793   0.376  0.00  0.00    +0.226 C 
ATOM     16  C   UNL     1       1.201  -4.138  -0.901  0.00  0.00    +0.048 C 
ENDBRANCH  14  15
ENDBRANCH  12  14
BRANCH  11  17
ATOM     17  O   UNL     1       5.489  -6.511  -0.250  0.00  0.00    -0.489 OA
BRANCH  17  18
ATOM     18  C   UNL     1       6.752  -7.166  -0.381  0.00  0.00    +0.226 C 
ATOM     19  C   UNL     1       7.302  -6.936  -1.791  0.00  0.00    +0.048 C 
ENDBRANCH  17  18
ENDBRANCH  11  17
ENDBRANCH   6   8
BRANCH   1  20
ATOM     20  C   UNL     1       3.403  -4.471   5.539  0.00  0.00    +0.195 C 
ATOM     21  O   UNL     1       4.439  -3.851   5.383  0.00  0.00    -0.287 OA
BRANCH  20  25
ATOM     22  C   UNL     1      -0.310  -2.411   5.630  0.00  0.00    +0.121 A 
ATOM     23  C   UNL     1       0.878  -1.695   5.532  0.00  0.00    +0.046 A 
ATOM     24  C   UNL     1       2.083  -2.359   5.503  0.00  0.00    +0.015 A 
ATOM     25  C   UNL     1       2.112  -3.755   5.571  0.00  0.00    +0.022 A 
ATOM     26  C   UNL     1       0.916  -4.471   5.670  0.00  0.00    +0.015 A 
ATOM     27  C   UNL     1      -0.285  -3.800   5.704  0.00  0.00    +0.046 A 
BRANCH  22  28
ATOM     28  O   UNL     1      -1.496  -1.753   5.659  0.00  0.00    -0.492 OA
BRANCH  28  29
ATOM     29  C   UNL     1      -1.450  -0.327   5.579  0.00  0.00    +0.229 C 
BRANCH  29  31
ATOM     30  C   UNL     1      -2.822   1.760   5.541  0.00  0.00    +0.007 C 
ATOM     31  C   UNL     1      -2.873   0.233   5.626  0.00  0.00    +0.038 C 
ENDBRANCH  29  31
ENDBRANCH  28  29
ENDBRANCH  22  28
ENDBRANCH  20  25
ENDBRANCH   1  20
BRANCH   5  32
ATOM     32  C   UNL     1       2.814  -9.564   4.744  0.00  0.00    +0.137 C 
BRANCH  32  33
ATOM     33  C   UNL     1       1.417  -9.974   5.213  0.00  0.00    +0.175 C 
BRANCH  33  34
ATOM     34  O   UNL     1       0.452  -9.056   4.694  0.00  0.00    -0.393 OA
ATOM     35  H   UNL     1      -0.459  -9.255   4.953  0.00  0.00    +0.209 HD
ENDBRANCH  33  34
ENDBRANCH  32  33
ENDBRANCH   5  32
TORSDOF 13
