REMARK  Name = ZINC33813939
REMARK  9 active torsions:
REMARK  status: ('A' for Active; 'I' for Inactive)
REMARK    1  A    between atoms: C_1  and  C_2
REMARK    2  A    between atoms: C_3  and  C_11
REMARK    3  A    between atoms: C_11  and  C_13
REMARK    4  A    between atoms: C_18  and  C_20
REMARK    5  A    between atoms: C_23  and  O_26
REMARK    6  A    between atoms: O_26  and  C_27
REMARK    7  A    between atoms: C_30  and  C_36
REMARK    8  A    between atoms: C_31  and  C_33
REMARK    9  A    between atoms: C_33  and  C_35
REMARK                            x       y       z     vdW  Elec       q    Type
REMARK                         _______ _______ _______ _____ _____    ______ ____
ROOT
ATOM      1  C   UNL     1      -0.142   1.239  -2.808  0.00  0.00    +0.078 C 
ATOM      2  C   UNL     1      -0.327   1.911  -3.967  0.00  0.00    +0.250 C 
ATOM      3  C   UNL     1      -0.080   3.347  -3.742  0.00  0.00    +0.293 C 
ATOM      4  O   UNL     1      -0.166   4.211  -4.592  0.00  0.00    -0.266 OA
ATOM      5  N   UNL     1       0.255   3.560  -2.456  0.00  0.00    -0.232 N 
ATOM      6  C   UNL     1       0.238   2.265  -1.766  0.00  0.00    +0.152 C 
ATOM      7  C   UNL     1       0.557   4.781  -1.887  0.00  0.00    +0.169 A 
ATOM      8  N   UNL     1       0.896   5.038  -0.635  0.00  0.00    -0.229 NA
ATOM      9  C   UNL     1       1.156   6.253  -0.232  0.00  0.00    +0.058 A 
ATOM     10  C   UNL     1       1.055   7.257  -1.194  0.00  0.00    +0.078 A 
ATOM     11  S   UNL     1       0.586   6.294  -2.623  0.00  0.00    -0.049 S 
ATOM     12  C   UNL     1       1.542   6.553   1.194  0.00  0.00    +0.067 C 
ATOM     13  O   UNL     1      -0.683   1.353  -5.149  0.00  0.00    -0.282 OA
ENDROOT
BRANCH   6  14
ATOM     14  C   UNL     1      -0.782   2.279  -0.656  0.00  0.00    -0.022 A 
ATOM     15  C   UNL     1      -2.025   2.847  -0.868  0.00  0.00    +0.009 A 
ATOM     16  C   UNL     1      -2.961   2.862   0.147  0.00  0.00    +0.046 A 
ATOM     17  C   UNL     1      -2.654   2.306   1.381  0.00  0.00    +0.120 A 
ATOM     18  C   UNL     1      -1.406   1.736   1.591  0.00  0.00    +0.046 A 
ATOM     19  C   UNL     1      -0.475   1.719   0.570  0.00  0.00    +0.009 A 
BRANCH  17  20
ATOM     20  O   UNL     1      -3.573   2.319   2.382  0.00  0.00    -0.495 OA
ATOM     21  C   UNL     1      -3.188   1.728   3.624  0.00  0.00    +0.277 C 
ENDBRANCH  17  20
ENDBRANCH   6  14
BRANCH  10  22
ATOM     22  C   UNL     1       1.268   8.644  -1.073  0.00  0.00    +0.168 C 
ATOM     23  O   UNL     1       1.591   9.118  -0.003  0.00  0.00    -0.292 OA
ATOM     24  C   UNL     1       1.095   9.540  -2.273  0.00  0.00    +0.092 C 
ENDBRANCH  10  22
BRANCH   1  25
ATOM     25  C   UNL     1      -0.288  -0.207  -2.601  0.00  0.00    +0.213 C 
ATOM     26  O   UNL     1      -1.272  -0.645  -2.028  0.00  0.00    -0.285 OA
BRANCH  25  29
ATOM     27  C   UNL     1       2.427   0.654  -3.881  0.00  0.00    +0.068 C 
ATOM     28  C   UNL     1       1.931  -0.748  -3.640  0.00  0.00    +0.068 A 
ATOM     29  C   UNL     1       0.714  -1.094  -3.066  0.00  0.00    +0.116 A 
ATOM     30  N   UNL     1       0.675  -2.477  -3.039  0.00  0.00    -0.296 N 
ATOM     31  C   UNL     1      -0.260  -3.358  -2.595  0.00  0.00    +0.093 A 
ATOM     32  C   UNL     1      -0.049  -4.692  -2.686  0.00  0.00    +0.018 A 
ATOM     33  C   UNL     1       1.142  -5.178  -3.243  0.00  0.00    +0.005 A 
ATOM     34  C   UNL     1       2.085  -4.300  -3.690  0.00  0.00    +0.047 A 
ATOM     35  C   UNL     1       1.846  -2.919  -3.586  0.00  0.00    +0.138 A 
ATOM     36  N   UNL     1       2.576  -1.861  -3.942  0.00  0.00    -0.232 NA
ENDBRANCH  25  29
ENDBRANCH   1  25
TORSDOF 5
