REMARK  Name = ZINC03656143
REMARK  7 active torsions:
REMARK  status: ('A' for Active; 'I' for Inactive)
REMARK    1  A    between atoms: C_1  and  C_2
REMARK    2  A    between atoms: C_2  and  O_3
REMARK    3  A    between atoms: O_3  and  C_4
REMARK    4  A    between atoms: C_6  and  C_11
REMARK    5  A    between atoms: C_9  and  O_10
REMARK    6  A    between atoms: N_26  and  C_27
REMARK    7  A    between atoms: C_27  and  C_28
REMARK                            x       y       z     vdW  Elec       q    Type
REMARK                         _______ _______ _______ _____ _____    ______ ____
ROOT
ATOM      1  C   UNL     1      -1.807   0.876  -1.881  0.00  0.00    +0.145 C 
ATOM      2  C   UNL     1      -2.204   1.773  -3.024  0.00  0.00    +0.072 A 
ATOM      3  C   UNL     1      -3.215   1.650  -4.078  0.00  0.00    +0.199 A 
ATOM      4  O   UNL     1      -3.948   0.680  -4.151  0.00  0.00    -0.287 OA
ATOM      5  C   UNL     1      -3.300   2.760  -5.047  0.00  0.00    +0.067 A 
ATOM      6  C   UNL     1      -4.225   2.745  -6.090  0.00  0.00    +0.053 A 
ATOM      7  C   UNL     1      -4.270   3.804  -6.973  0.00  0.00    +0.124 A 
ATOM      8  C   UNL     1      -3.400   4.877  -6.822  0.00  0.00    +0.042 A 
ATOM      9  C   UNL     1      -2.482   4.901  -5.795  0.00  0.00    +0.050 A 
ATOM     10  C   UNL     1      -2.418   3.844  -4.892  0.00  0.00    +0.140 A 
ATOM     11  O   UNL     1      -1.525   3.857  -3.886  0.00  0.00    -0.450 OA
ATOM     12  C   UNL     1      -1.407   2.869  -2.977  0.00  0.00    +0.199 A 
ATOM     13  C   UNL     1      -0.488   2.729  -1.821  0.00  0.00    +0.283 C 
ATOM     14  O   UNL     1       0.354   3.544  -1.500  0.00  0.00    -0.267 OA
ATOM     15  N   UNL     1      -0.721   1.571  -1.179  0.00  0.00    -0.279 N 
ATOM     16  F   UNL     1      -5.163   3.798  -7.987  0.00  0.00    -0.205 F 
ENDROOT
BRANCH   1  19
ATOM     17  C   UNL     1      -4.761  -0.703  -0.133  0.00  0.00    +0.162 A 
ATOM     18  C   UNL     1      -3.687  -0.513  -0.988  0.00  0.00    +0.055 A 
ATOM     19  C   UNL     1      -2.978   0.673  -0.954  0.00  0.00    -0.019 A 
ATOM     20  C   UNL     1      -3.344   1.676  -0.075  0.00  0.00    +0.009 A 
ATOM     21  C   UNL     1      -4.418   1.495   0.776  0.00  0.00    +0.049 A 
ATOM     22  C   UNL     1      -5.130   0.307   0.751  0.00  0.00    +0.158 A 
BRANCH  22  23
ATOM     23  O   UNL     1      -6.187   0.127   1.588  0.00  0.00    -0.503 OA
ATOM     24  H   UNL     1      -7.034   0.413   1.218  0.00  0.00    +0.292 HD
ENDBRANCH  22  23
BRANCH  17  25
ATOM     25  O   UNL     1      -5.457  -1.871  -0.162  0.00  0.00    -0.489 OA
BRANCH  25  27
ATOM     26  C   UNL     1      -5.918  -4.097  -0.981  0.00  0.00    +0.048 C 
ATOM     27  C   UNL     1      -5.021  -2.863  -1.094  0.00  0.00    +0.226 C 
ENDBRANCH  25  27
ENDBRANCH  17  25
ENDBRANCH   1  19
BRANCH  15  28
ATOM     28  C   UNL     1      -0.013   1.086   0.008  0.00  0.00    +0.144 C 
BRANCH  28  29
ATOM     29  C   UNL     1      -0.718   1.572   1.248  0.00  0.00    -0.026 A 
ATOM     30  C   UNL     1      -1.719   0.807   1.817  0.00  0.00    +0.009 A 
ATOM     31  C   UNL     1      -2.369   1.248   2.954  0.00  0.00    +0.050 A 
ATOM     32  C   UNL     1      -2.017   2.459   3.528  0.00  0.00    +0.166 A 
ATOM     33  C   UNL     1      -1.009   3.230   2.955  0.00  0.00    +0.167 A 
ATOM     34  C   UNL     1      -0.359   2.779   1.817  0.00  0.00    +0.054 A 
ATOM     35  O   UNL     1      -0.851   4.364   3.698  0.00  0.00    -0.453 OA
ATOM     36  C   UNL     1      -2.048   4.473   4.491  0.00  0.00    +0.466 C 
ATOM     37  O   UNL     1      -2.492   3.111   4.629  0.00  0.00    -0.453 OA
ENDBRANCH  28  29
ENDBRANCH  15  28
TORSDOF 6
