REMARK  Name = ZINC38971826
REMARK  9 active torsions:
REMARK  status: ('A' for Active; 'I' for Inactive)
REMARK    1  A    between atoms: C_1  and  C_2
REMARK    2  A    between atoms: C_2  and  C_3
REMARK    3  A    between atoms: C_2  and  C_4
REMARK    4  A    between atoms: C_7  and  N_10
REMARK    5  A    between atoms: N_10  and  C_11
REMARK    6  A    between atoms: N_14  and  S_15
REMARK    7  A    between atoms: S_15  and  C_18
REMARK    8  A    between atoms: C_21  and  O_24
REMARK    9  A    between atoms: O_24  and  C_25
REMARK                            x       y       z     vdW  Elec       q    Type
REMARK                         _______ _______ _______ _____ _____    ______ ____
ROOT
ATOM      1  C   UNL     1      -5.829  -2.723  -1.104  0.00  0.00    +0.237 C 
ATOM      2  C   UNL     1      -6.584  -3.918  -0.569  0.00  0.00    +0.192 C 
ATOM      3  N   UNL     1      -5.993  -4.781   0.204  0.00  0.00    -0.110 NA
ATOM      4  N   UNL     1      -7.875  -4.076  -0.904  0.00  0.00    -0.226 NA
ATOM      5  C   UNL     1      -8.496  -3.216  -1.684  0.00  0.00    +0.089 A 
ATOM      6  C   UNL     1      -9.860  -3.414  -2.017  0.00  0.00    +0.030 A 
ATOM      7  C   UNL     1     -10.502  -2.536  -2.818  0.00  0.00    +0.002 A 
ATOM      8  C   UNL     1      -9.874  -1.401  -3.357  0.00  0.00    +0.002 A 
ATOM      9  C   UNL     1      -8.578  -1.118  -3.104  0.00  0.00    +0.027 A 
ATOM     10  C   UNL     1      -7.808  -2.025  -2.240  0.00  0.00    +0.063 A 
ATOM     11  N   UNL     1      -6.556  -1.784  -1.973  0.00  0.00    -0.359 N 
ATOM     12  H   UNL     1      -6.112  -1.002  -2.339  0.00  0.00    +0.162 HD
ENDROOT
BRANCH   3  13
ATOM     13  S   UNL     1      -6.832  -6.085   0.783  0.00  0.00    +0.100 S 
ATOM     14  O   UNL     1      -7.829  -5.572   1.656  0.00  0.00    -0.146 OA
ATOM     15  O   UNL     1      -7.149  -6.896  -0.341  0.00  0.00    -0.146 OA
BRANCH  13  16
ATOM     16  C   UNL     1      -5.720  -7.019   1.780  0.00  0.00    +0.113 A 
ATOM     17  C   UNL     1      -4.953  -8.018   1.210  0.00  0.00    +0.032 A 
ATOM     18  C   UNL     1      -4.081  -8.752   1.990  0.00  0.00    +0.047 A 
ATOM     19  C   UNL     1      -3.975  -8.486   3.347  0.00  0.00    +0.120 A 
ATOM     20  C   UNL     1      -4.745  -7.483   3.918  0.00  0.00    +0.047 A 
ATOM     21  C   UNL     1      -5.612  -6.748   3.132  0.00  0.00    +0.032 A 
BRANCH  19  22
ATOM     22  O   UNL     1      -3.117  -9.207   4.117  0.00  0.00    -0.495 OA
ATOM     23  C   UNL     1      -3.060  -8.878   5.506  0.00  0.00    +0.277 C 
ENDBRANCH  19  22
ENDBRANCH  13  16
ENDBRANCH   3  13
BRANCH   1  24
ATOM     24  N   UNL     1      -5.318  -1.967   0.043  0.00  0.00    -0.318 N 
ATOM     25  H   UNL     1      -5.917  -1.713   0.762  0.00  0.00    +0.148 HD
BRANCH  24  29
ATOM     26  C   UNL     1      -1.294  -0.909   0.213  0.00  0.00    -0.045 A 
ATOM     27  C   UNL     1      -1.812  -1.468  -0.941  0.00  0.00    +0.006 A 
ATOM     28  C   UNL     1      -3.146  -1.821  -1.000  0.00  0.00    +0.023 A 
ATOM     29  C   UNL     1      -3.968  -1.613   0.100  0.00  0.00    +0.029 A 
ATOM     30  C   UNL     1      -3.445  -1.051   1.258  0.00  0.00    +0.023 A 
ATOM     31  C   UNL     1      -2.108  -0.706   1.313  0.00  0.00    +0.006 A 
BRANCH  26  33
ATOM     32  C   UNL     1       1.026  -1.767   0.038  0.00  0.00    +0.012 C 
ATOM     33  C   UNL     1       0.162  -0.526   0.275  0.00  0.00    +0.013 C 
ATOM     34  C   UNL     1       0.461   0.517  -0.803  0.00  0.00    +0.012 C 
ENDBRANCH  26  33
ENDBRANCH  24  29
ENDBRANCH   1  24
TORSDOF 6
