REMARK  Name = ZINC09405936
REMARK  9 active torsions:
REMARK  status: ('A' for Active; 'I' for Inactive)
REMARK    1  A    between atoms: C_1  and  C_2
REMARK    2  A    between atoms: C_2  and  C_3
REMARK    3  A    between atoms: C_3  and  O_4
REMARK    4  A    between atoms: O_4  and  C_5
REMARK    5  A    between atoms: C_8  and  C_11
REMARK    6  A    between atoms: C_11  and  N_12
REMARK    7  A    between atoms: C_13  and  C_15
REMARK    8  A    between atoms: C_25  and  C_35
REMARK    9  A    between atoms: C_31  and  C_34
REMARK                            x       y       z     vdW  Elec       q    Type
REMARK                         _______ _______ _______ _____ _____    ______ ____
ROOT
ATOM      1  C   UNL     1      -4.061   3.238   2.514  0.00  0.00    +0.078 C 
ATOM      2  C   UNL     1      -4.405   1.833   3.011  0.00  0.00    +0.032 C 
ATOM      3  C   UNL     1      -4.360   1.811   4.542  0.00  0.00    +0.110 C 
ATOM      4  N   UNL     1      -5.244   2.866   5.056  0.00  0.00    -0.285 N 
ATOM      5  C   UNL     1      -5.058   4.241   4.573  0.00  0.00    +0.110 C 
ATOM      6  C   UNL     1      -5.095   4.235   3.042  0.00  0.00    +0.032 C 
ATOM      7  C   UNL     1      -6.207   2.578   5.954  0.00  0.00    +0.309 C 
ATOM      8  O   UNL     1      -7.044   3.414   6.237  0.00  0.00    -0.252 OA
ATOM      9  N   UNL     1      -6.243   1.364   6.537  0.00  0.00    -0.248 N 
ATOM     10  C   UNL     1      -5.062   0.483   6.538  0.00  0.00    +0.159 C 
ATOM     11  C   UNL     1      -4.960  -0.148   7.938  0.00  0.00    +0.188 C 
ATOM     12  O   UNL     1      -6.167  -0.865   8.207  0.00  0.00    -0.486 OA
ATOM     13  C   UNL     1      -7.346  -0.223   7.995  0.00  0.00    +0.142 A 
ATOM     14  C   UNL     1      -7.411   0.891   7.161  0.00  0.00    +0.080 A 
ATOM     15  C   UNL     1      -8.621   1.531   6.947  0.00  0.00    +0.030 A 
ATOM     16  C   UNL     1      -9.766   1.064   7.566  0.00  0.00    -0.048 A 
ATOM     17  C   UNL     1      -9.704  -0.040   8.396  0.00  0.00    +0.007 A 
ATOM     18  C   UNL     1      -8.499  -0.683   8.611  0.00  0.00    +0.048 A 
ATOM     19  C   UNL     1     -11.084   1.758   7.334  0.00  0.00    +0.044 C 
ATOM     20  C   UNL     1      -3.771  -1.109   7.984  0.00  0.00    +0.053 C 
ENDROOT
BRANCH   1  22
ATOM     21  N   UNL     1      -3.235   2.451   0.319  0.00  0.00    -0.311 N 
ATOM     22  C   UNL     1      -4.071   3.255   1.007  0.00  0.00    +0.216 C 
ATOM     23  O   UNL     1      -4.830   3.991   0.414  0.00  0.00    -0.276 OA
ATOM     24  H   UNL     1      -2.628   1.863   0.794  0.00  0.00    +0.149 HD
BRANCH  21  25
ATOM     25  C   UNL     1      -3.245   2.467  -1.146  0.00  0.00    +0.139 C 
BRANCH  25  29
ATOM     26  C   UNL     1      -0.359  -0.312  -2.631  0.00  0.00    +0.121 A 
ATOM     27  C   UNL     1      -1.661  -0.725  -2.390  0.00  0.00    +0.046 A 
ATOM     28  C   UNL     1      -2.592   0.175  -1.908  0.00  0.00    +0.009 A 
ATOM     29  C   UNL     1      -2.226   1.486  -1.666  0.00  0.00    -0.030 A 
ATOM     30  C   UNL     1      -0.929   1.900  -1.905  0.00  0.00    +0.009 A 
ATOM     31  C   UNL     1       0.005   1.004  -2.387  0.00  0.00    +0.046 A 
BRANCH  26  32
ATOM     32  O   UNL     1       0.558  -1.196  -3.105  0.00  0.00    -0.492 OA
BRANCH  32  33
ATOM     33  C   UNL     1       1.880  -0.701  -3.330  0.00  0.00    +0.229 C 
BRANCH  33  35
ATOM     34  C   UNL     1       4.180  -1.302  -4.100  0.00  0.00    +0.007 C 
ATOM     35  C   UNL     1       2.765  -1.831  -3.859  0.00  0.00    +0.038 C 
ENDBRANCH  33  35
ENDBRANCH  32  33
ENDBRANCH  26  32
ENDBRANCH  25  29
ENDBRANCH  21  25
ENDBRANCH   1  22
TORSDOF 6
