REMARK  Name = ZINC40958117
REMARK  6 active torsions:
REMARK  status: ('A' for Active; 'I' for Inactive)
REMARK    1  A    between atoms: C_4  and  C_7
REMARK    2  A    between atoms: C_8  and  C_9
REMARK    3  A    between atoms: N_11  and  C_12
REMARK    4  A    between atoms: N_15  and  C_18
REMARK    5  A    between atoms: C_18  and  C_19
REMARK    6  A    between atoms: C_21  and  C_24
REMARK                            x       y       z     vdW  Elec       q    Type
REMARK                         _______ _______ _______ _____ _____    ______ ____
ROOT
ATOM      1  C   UNL     1       6.297  -4.798  -0.087  0.00  0.00    +0.070 C 
ATOM      2  C   UNL     1       6.786  -4.937  -1.531  0.00  0.00    +0.004 C 
ATOM      3  C   UNL     1       8.083  -5.750  -1.549  0.00  0.00    -0.076 C 
ATOM      4  N   UNL     1       7.837  -7.082  -0.983  0.00  0.00    +0.386 N 
ATOM      5  C   UNL     1       7.437  -6.959   0.424  0.00  0.00    -0.076 C 
ATOM      6  C   UNL     1       6.116  -6.193   0.518  0.00  0.00    +0.004 C 
ATOM      7  H   UNL     1       7.102  -7.536  -1.502  0.00  0.00    -0.081 HD
ENDROOT
BRANCH   1  10
ATOM      8  C   UNL     1       4.994  -2.739  -0.062  0.00  0.00    +0.237 C 
ATOM      9  O   UNL     1       6.037  -2.113  -0.070  0.00  0.00    -0.271 OA
ATOM     10  N   UNL     1       5.016  -4.086  -0.070  0.00  0.00    -0.309 N 
ATOM     11  H   UNL     1       4.184  -4.585  -0.064  0.00  0.00    +0.149 HD
BRANCH   8  13
ATOM     12  C   UNL     1       3.692  -0.680  -0.038  0.00  0.00    +0.013 C 
ATOM     13  C   UNL     1       3.714  -2.028  -0.045  0.00  0.00    +0.068 C 
BRANCH  12  17
ATOM     14  C   UNL     1      -0.017   1.380   0.010  0.00  0.00    +0.000 A 
ATOM     15  C   UNL     1       1.168   2.095   0.002  0.00  0.00    +0.001 A 
ATOM     16  C   UNL     1       2.377   1.433  -0.013  0.00  0.00    +0.008 A 
ATOM     17  C   UNL     1       2.405   0.035  -0.021  0.00  0.00    -0.025 A 
ATOM     18  C   UNL     1       1.203  -0.681  -0.013  0.00  0.00    +0.008 A 
ATOM     19  C   UNL     1       0.002  -0.004   0.002  0.00  0.00    +0.001 A 
ENDBRANCH  12  17
ENDBRANCH   8  13
ENDBRANCH   1  10
BRANCH   4  20
ATOM     20  C   UNL     1       9.065  -7.884  -1.073  0.00  0.00    +0.022 C 
BRANCH  20  21
ATOM     21  C   UNL     1       8.782  -9.288  -0.606  0.00  0.00    +0.211 A 
ATOM     22  N   UNL     1       8.390 -10.277  -1.359  0.00  0.00    -0.193 NA
ATOM     23  C   UNL     1       8.234 -11.387  -0.616  0.00  0.00    +0.202 A 
ATOM     24  N   UNL     1       8.530 -11.104   0.628  0.00  0.00    -0.056 NA
ATOM     25  O   UNL     1       8.897  -9.733   0.652  0.00  0.00    -0.340 OA
BRANCH  23  26
ATOM     26  C   UNL     1       7.799 -12.713  -1.122  0.00  0.00    +0.023 A 
ATOM     27  C   UNL     1       7.517 -12.886  -2.476  0.00  0.00    +0.013 A 
ATOM     28  C   UNL     1       7.112 -14.120  -2.942  0.00  0.00    +0.021 A 
ATOM     29  C   UNL     1       6.985 -15.185  -2.067  0.00  0.00    +0.041 A 
ATOM     30  C   UNL     1       7.263 -15.018  -0.721  0.00  0.00    +0.021 A 
ATOM     31  C   UNL     1       7.675 -13.789  -0.246  0.00  0.00    +0.013 A 
ATOM     32 CL   UNL     1       6.475 -16.735  -2.659  0.00  0.00    -0.084 Cl
ENDBRANCH  23  26
ENDBRANCH  20  21
ENDBRANCH   4  20
TORSDOF 6
