REMARK  Name = ZINC39677659
REMARK  9 active torsions:
REMARK  status: ('A' for Active; 'I' for Inactive)
REMARK    1  A    between atoms: C_1  and  C_2
REMARK    2  A    between atoms: C_2  and  C_3
REMARK    3  A    between atoms: C_3  and  C_4
REMARK    4  A    between atoms: C_3  and  C_6
REMARK    5  A    between atoms: C_4  and  C_5
REMARK    6  A    between atoms: C_10  and  C_19
REMARK    7  A    between atoms: N_21  and  C_22
REMARK    8  A    between atoms: C_22  and  C_23
REMARK    9  A    between atoms: C_26  and  C_28
REMARK                            x       y       z     vdW  Elec       q    Type
REMARK                         _______ _______ _______ _____ _____    ______ ____
ROOT
ATOM      1  C   UNL     1       0.518  -2.150  -1.349  0.00  0.00    +0.219 C 
ATOM      2  O   UNL     1      -0.202  -2.728  -0.563  0.00  0.00    -0.275 OA
ATOM      3  N   UNL     1       1.184  -2.848  -2.291  0.00  0.00    -0.300 N 
ATOM      4  C   UNL     1       2.030  -2.318  -3.386  0.00  0.00    +0.121 C 
ATOM      5  C   UNL     1       3.223  -3.297  -3.467  0.00  0.00    +0.100 C 
ATOM      6  C   UNL     1       2.695  -4.609  -2.863  0.00  0.00    -0.004 C 
ATOM      7  C   UNL     1       1.241  -4.320  -2.461  0.00  0.00    +0.115 C 
ATOM      8  C   UNL     1       3.511  -4.990  -1.631  0.00  0.00    -0.010 C 
ATOM      9  C   UNL     1       3.004  -6.326  -1.082  0.00  0.00    -0.082 C 
ATOM     10  N   UNL     1       3.129  -7.361  -2.116  0.00  0.00    +0.379 N 
ATOM     11  C   UNL     1       2.268  -7.033  -3.259  0.00  0.00    -0.082 C 
ATOM     12  C   UNL     1       2.744  -5.726  -3.900  0.00  0.00    -0.010 C 
ATOM     13  H   UNL     1       4.088  -7.414  -2.423  0.00  0.00    -0.086 HD
ATOM     14  H   UNL     1       2.852  -8.252  -1.733  0.00  0.00    -0.086 HD
ENDROOT
BRANCH   5  15
ATOM     15  C   UNL     1       4.385  -2.776  -2.662  0.00  0.00    +0.218 C 
ATOM     16  O   UNL     1       4.185  -2.147  -1.645  0.00  0.00    -0.275 OA
ATOM     17  N   UNL     1       5.647  -3.010  -3.073  0.00  0.00    -0.310 N 
ATOM     18  H   UNL     1       5.808  -3.513  -3.886  0.00  0.00    +0.149 HD
BRANCH  17  19
ATOM     19  C   UNL     1       6.778  -2.504  -2.290  0.00  0.00    +0.146 C 
BRANCH  19  20
ATOM     20  C   UNL     1       8.069  -2.898  -2.960  0.00  0.00    +0.007 A 
ATOM     21  C   UNL     1       8.788  -2.222  -3.893  0.00  0.00    +0.013 A 
ATOM     22  C   UNL     1       9.953  -2.777  -4.373  0.00  0.00    +0.018 A 
ATOM     23  C   UNL     1      10.350  -3.996  -3.891  0.00  0.00    +0.038 A 
ATOM     24  S   UNL     1       9.051  -4.370  -2.724  0.00  0.00    -0.090 S 
BRANCH  23  25
ATOM     25  C   UNL     1      11.544  -4.792  -4.241  0.00  0.00    +0.078 A 
ATOM     26  C   UNL     1      11.758  -6.028  -3.627  0.00  0.00    +0.029 A 
ATOM     27  C   UNL     1      12.880  -6.760  -3.966  0.00  0.00    +0.004 A 
ATOM     28  C   UNL     1      13.756  -6.236  -4.908  0.00  0.00    +0.020 A 
ATOM     29  C   UNL     1      13.483  -5.006  -5.477  0.00  0.00    +0.111 A 
ATOM     30  N   UNL     1      12.404  -4.329  -5.142  0.00  0.00    -0.254 NA
ENDBRANCH  23  25
ENDBRANCH  19  20
ENDBRANCH  17  19
ENDBRANCH   5  15
BRANCH   1  31
ATOM     31  C   UNL     1       0.668  -0.653  -1.275  0.00  0.00    +0.075 C 
BRANCH  31  33
ATOM     32  C   UNL     1      -0.244   1.527  -2.087  0.00  0.00    +0.004 C 
ATOM     33  C   UNL     1      -0.465   0.013  -2.058  0.00  0.00    +0.009 C 
ENDBRANCH  31  33
BRANCH  31  34
ATOM     34  C   UNL     1       0.608  -0.206   0.188  0.00  0.00    +0.009 C 
ATOM     35  C   UNL     1       1.819  -0.760   0.940  0.00  0.00    +0.004 C 
ENDBRANCH  31  34
ENDBRANCH   1  31
TORSDOF 7
