REMARK  Name = ZINC09765208
REMARK  8 active torsions:
REMARK  status: ('A' for Active; 'I' for Inactive)
REMARK    1  A    between atoms: C_1  and  C_2
REMARK    2  A    between atoms: C_2  and  O_3
REMARK    3  A    between atoms: O_3  and  C_4
REMARK    4  A    between atoms: C_4  and  C_5
REMARK    5  A    between atoms: C_5  and  N_6
REMARK    6  A    between atoms: C_8  and  C_25
REMARK    7  A    between atoms: N_15  and  C_16
REMARK    8  A    between atoms: C_16  and  C_18
REMARK                            x       y       z     vdW  Elec       q    Type
REMARK                         _______ _______ _______ _____ _____    ______ ____
ROOT
ATOM      1  N   UNL     1      -2.937   1.812   0.104  0.00  0.00    -0.319 N 
ATOM      2  C   UNL     1      -2.103   1.819   1.207  0.00  0.00    +0.061 A 
ATOM      3  C   UNL     1      -0.759   1.421   1.284  0.00  0.00    -0.026 A 
ATOM      4  C   UNL     1      -0.074   1.487   2.474  0.00  0.00    +0.005 A 
ATOM      5  C   UNL     1      -0.686   1.941   3.631  0.00  0.00    +0.001 A 
ATOM      6  C   UNL     1      -2.012   2.334   3.584  0.00  0.00    +0.017 A 
ATOM      7  C   UNL     1      -2.698   2.268   2.395  0.00  0.00    +0.039 A 
ATOM      8  S   UNL     1      -4.357   2.658   1.897  0.00  0.00    -0.052 S 
ATOM      9  C   UNL     1      -4.226   2.232   0.222  0.00  0.00    +0.167 A 
ATOM     10  N   UNL     1      -5.160   2.298  -0.721  0.00  0.00    -0.152 NA
ATOM     11  C   UNL     1      -0.057   0.923   0.048  0.00  0.00    +0.046 C 
ENDROOT
BRANCH  10  12
ATOM     12  C   UNL     1      -6.385   2.741  -0.419  0.00  0.00    +0.269 C 
ATOM     13  O   UNL     1      -6.644   3.083   0.722  0.00  0.00    -0.268 OA
BRANCH  12  14
ATOM     14  C   UNL     1      -7.426   2.815  -1.469  0.00  0.00    +0.039 A 
ATOM     15  C   UNL     1      -7.129   2.429  -2.777  0.00  0.00    +0.014 A 
ATOM     16  C   UNL     1      -8.105   2.494  -3.750  0.00  0.00    +0.016 A 
ATOM     17  C   UNL     1      -9.372   2.953  -3.434  0.00  0.00    +0.018 A 
ATOM     18  C   UNL     1      -9.670   3.343  -2.139  0.00  0.00    +0.016 A 
ATOM     19  C   UNL     1      -8.704   3.276  -1.156  0.00  0.00    +0.014 A 
ATOM     20 BR   UNL     1     -10.701   3.048  -4.775  0.00  0.00    -0.050 Br
ENDBRANCH  12  14
ENDBRANCH  10  12
BRANCH   1  21
ATOM     21  C   UNL     1      -2.430   1.359  -1.194  0.00  0.00    +0.152 C 
BRANCH  21  22
ATOM     22  C   UNL     1      -1.814   2.543  -1.942  0.00  0.00    +0.181 C 
BRANCH  22  23
ATOM     23  O   UNL     1      -1.319   2.101  -3.208  0.00  0.00    -0.378 OA
BRANCH  23  25
ATOM     24  C   UNL     1      -0.229   2.551  -5.317  0.00  0.00    +0.034 C 
ATOM     25  C   UNL     1      -0.720   3.135  -3.991  0.00  0.00    +0.156 C 
ENDBRANCH  23  25
ENDBRANCH  22  23
ENDBRANCH  21  22
ENDBRANCH   1  21
TORSDOF 6
