REMARK  Name = ZINC03896524
REMARK  7 active torsions:
REMARK  status: ('A' for Active; 'I' for Inactive)
REMARK    1  A    between atoms: C_1  and  C_2
REMARK    2  A    between atoms: C_5  and  C_7
REMARK    3  A    between atoms: C_8  and  N_16
REMARK    4  A    between atoms: N_16  and  C_17
REMARK    5  A    between atoms: C_20  and  C_23
REMARK    6  A    between atoms: C_23  and  C_24
REMARK    7  A    between atoms: C_23  and  C_25
REMARK                            x       y       z     vdW  Elec       q    Type
REMARK                         _______ _______ _______ _____ _____    ______ ____
ROOT
ATOM      1  C   UNL     1      -3.406   1.305   4.479  0.00  0.00    +0.147 A 
ATOM      2  C   UNL     1      -3.254  -0.073   4.489  0.00  0.00    +0.138 A 
ATOM      3  N   UNL     1      -2.744  -0.402   5.707  0.00  0.00    -0.285 N 
ATOM      4  C   UNL     1      -2.387  -1.591   6.290  0.00  0.00    +0.114 A 
ATOM      5  C   UNL     1      -1.902  -1.599   7.548  0.00  0.00    +0.129 A 
ATOM      6  N   UNL     1      -1.760  -0.466   8.245  0.00  0.00    -0.258 NA
ATOM      7  C   UNL     1      -2.086   0.697   7.735  0.00  0.00    +0.157 A 
ATOM      8  C   UNL     1      -2.598   0.768   6.424  0.00  0.00    +0.158 A 
ATOM      9  N   UNL     1      -3.000   1.776   5.670  0.00  0.00    -0.221 NA
ENDROOT
BRANCH   1  14
ATOM     10  C   UNL     1      -4.372   2.887  -0.185  0.00  0.00    +0.086 C 
ATOM     11  C   UNL     1      -4.354   2.810   1.320  0.00  0.00    +0.103 A 
ATOM     12  C   UNL     1      -4.956   3.676   2.158  0.00  0.00    +0.045 A 
ATOM     13  C   UNL     1      -4.691   3.233   3.470  0.00  0.00    +0.052 A 
ATOM     14  C   UNL     1      -3.928   2.113   3.359  0.00  0.00    +0.157 A 
ATOM     15  O   UNL     1      -3.732   1.867   2.049  0.00  0.00    -0.458 OA
ENDBRANCH   1  14
BRANCH   2  16
ATOM     16  N   UNL     1      -3.562  -0.950   3.454  0.00  0.00    -0.299 N 
ATOM     17  H   UNL     1      -2.969  -1.027   2.690  0.00  0.00    +0.154 HD
BRANCH  16  18
ATOM     18  C   UNL     1      -4.726  -1.720   3.513  0.00  0.00    +0.032 A 
ATOM     19  C   UNL     1      -5.640  -1.521   4.541  0.00  0.00    +0.023 A 
ATOM     20  C   UNL     1      -6.793  -2.280   4.593  0.00  0.00    +0.006 A 
ATOM     21  C   UNL     1      -7.033  -3.244   3.631  0.00  0.00    -0.045 A 
ATOM     22  C   UNL     1      -6.123  -3.447   2.610  0.00  0.00    +0.006 A 
ATOM     23  C   UNL     1      -4.971  -2.689   2.548  0.00  0.00    +0.023 A 
BRANCH  21  24
ATOM     24  C   UNL     1      -8.290  -4.073   3.695  0.00  0.00    +0.013 C 
ATOM     25  C   UNL     1      -8.321  -4.850   5.013  0.00  0.00    +0.012 C 
ATOM     26  C   UNL     1      -9.511  -3.156   3.614  0.00  0.00    +0.012 C 
ENDBRANCH  21  24
ENDBRANCH  16  18
ENDBRANCH   2  16
TORSDOF 4
