REMARK  Name = ZINC13239829
REMARK  10 active torsions:
REMARK  status: ('A' for Active; 'I' for Inactive)
REMARK    1  A    between atoms: C_1  and  C_2
REMARK    2  A    between atoms: C_4  and  C_29
REMARK    3  A    between atoms: C_6  and  S_9
REMARK    4  A    between atoms: C_7  and  C_8
REMARK    5  A    between atoms: S_9  and  N_12
REMARK    6  A    between atoms: C_15  and  C_18
REMARK    7  A    between atoms: C_21  and  C_23
REMARK    8  A    between atoms: C_23  and  C_24
REMARK    9  A    between atoms: C_24  and  N_25
REMARK   10  A    between atoms: C_26  and  C_28
REMARK                            x       y       z     vdW  Elec       q    Type
REMARK                         _______ _______ _______ _____ _____    ______ ____
ROOT
ATOM      1  N   UNL     1      -6.052   1.447   1.426  0.00  0.00    -0.194 N 
ATOM      2  C   UNL     1      -6.580   2.724   1.521  0.00  0.00    +0.178 A 
ATOM      3  N   UNL     1      -7.328   3.249   2.474  0.00  0.00    -0.223 NA
ATOM      4  C   UNL     1      -7.747   4.512   2.403  0.00  0.00    +0.087 A 
ATOM      5  C   UNL     1      -7.404   5.270   1.317  0.00  0.00    +0.077 A 
ATOM      6  S   UNL     1      -6.433   4.095   0.383  0.00  0.00    -0.059 S 
ATOM      7  H   UNL     1      -6.155   0.824   2.162  0.00  0.00    +0.176 HD
ENDROOT
BRANCH   4   8
ATOM      8  C   UNL     1      -8.580   5.085   3.482  0.00  0.00    +0.038 A 
ATOM      9  C   UNL     1      -9.028   4.494   4.633  0.00  0.00    +0.018 A 
ATOM     10  C   UNL     1      -9.798   5.237   5.503  0.00  0.00    +0.012 A 
ATOM     11  C   UNL     1     -10.094   6.523   5.190  0.00  0.00    -0.008 A 
ATOM     12  S   UNL     1      -9.268   6.727   3.621  0.00  0.00    -0.092 S 
BRANCH  11  13
ATOM     13  C   UNL     1     -10.912   7.522   5.967  0.00  0.00    +0.061 C 
BRANCH  13  14
ATOM     14  C   UNL     1      -9.998   8.302   6.915  0.00  0.00    +0.109 C 
BRANCH  14  15
ATOM     15  N   UNL     1     -10.792   9.273   7.671  0.00  0.00    -0.315 N 
ATOM     16  C   UNL     1     -10.194  10.077   8.572  0.00  0.00    +0.210 C 
ATOM     17  O   UNL     1      -8.999   9.996   8.758  0.00  0.00    -0.276 OA
ATOM     18  C   UNL     1     -11.011  11.077   9.350  0.00  0.00    +0.109 C 
ATOM     19  H   UNL     1     -11.748   9.338   7.522  0.00  0.00    +0.149 HD
ENDBRANCH  14  15
ENDBRANCH  13  14
ENDBRANCH  11  13
ENDBRANCH   4   8
BRANCH   1  20
ATOM     20  S   UNL     1      -5.246   0.984   0.056  0.00  0.00    +0.074 S 
ATOM     21  O   UNL     1      -6.065   1.357  -1.043  0.00  0.00    -0.150 OA
ATOM     22  O   UNL     1      -4.819  -0.355   0.268  0.00  0.00    -0.150 OA
BRANCH  20  28
ATOM     23  C   UNL     1      -0.630   2.540   1.950  0.00  0.00    +0.044 C 
ATOM     24  C   UNL     1      -1.674   2.644   0.869  0.00  0.00    -0.045 A 
ATOM     25  C   UNL     1      -1.483   3.506  -0.192  0.00  0.00    +0.018 A 
ATOM     26  C   UNL     1      -2.451   3.602  -1.192  0.00  0.00    +0.065 A 
ATOM     27  C   UNL     1      -3.611   2.828  -1.110  0.00  0.00    +0.044 A 
ATOM     28  C   UNL     1      -3.787   1.967  -0.047  0.00  0.00    +0.112 A 
ATOM     29  C   UNL     1      -2.823   1.877   0.942  0.00  0.00    -0.021 A 
ATOM     30  C   UNL     1      -3.025   0.938   2.103  0.00  0.00    +0.046 C 
BRANCH  26  31
ATOM     31  C   UNL     1      -2.253   4.522  -2.331  0.00  0.00    +0.387 C 
ATOM     32  O   UNL     1      -3.098   4.604  -3.200  0.00  0.00    -0.241 OA
ATOM     33  O   UNL     1      -1.139   5.276  -2.402  0.00  0.00    -0.241 OA
ENDBRANCH  26  31
ENDBRANCH  20  28
ENDBRANCH   1  20
TORSDOF 7
