REMARK  Name = ZINC20708796
REMARK  8 active torsions:
REMARK  status: ('A' for Active; 'I' for Inactive)
REMARK    1  A    between atoms: C_1  and  C_2
REMARK    2  A    between atoms: C_5  and  N_9
REMARK    3  A    between atoms: C_7  and  C_8
REMARK    4  A    between atoms: N_9  and  S_10
REMARK    5  A    between atoms: S_10  and  C_13
REMARK    6  A    between atoms: C_26  and  C_29
REMARK    7  A    between atoms: C_31  and  N_36
REMARK    8  A    between atoms: C_34  and  O_35
REMARK                            x       y       z     vdW  Elec       q    Type
REMARK                         _______ _______ _______ _____ _____    ______ ____
ROOT
ATOM      1  C   UNL     1       2.231   1.868   1.314  0.00  0.00    +0.109 A 
ATOM      2  C   UNL     1       1.426   0.749   1.421  0.00  0.00    +0.030 A 
ATOM      3  C   UNL     1       1.878  -0.369   2.091  0.00  0.00    +0.025 A 
ATOM      4  C   UNL     1       3.147  -0.381   2.659  0.00  0.00    +0.031 A 
ATOM      5  C   UNL     1       3.959   0.752   2.539  0.00  0.00    -0.018 A 
ATOM      6  C   UNL     1       3.495   1.866   1.874  0.00  0.00    +0.034 A 
ATOM      7  C   UNL     1       5.310   0.690   3.138  0.00  0.00    +0.049 C 
ATOM      8  C   UNL     1       6.055   1.902   3.594  0.00  0.00    -0.023 C 
ATOM      9  C   UNL     1       6.808   1.584   4.641  0.00  0.00    -0.030 C 
ATOM     10  C   UNL     1       6.623   0.106   4.988  0.00  0.00    +0.033 C 
ATOM     11  C   UNL     1       5.218  -0.167   4.436  0.00  0.00    +0.029 C 
ATOM     12  C   UNL     1       4.920  -1.580   3.967  0.00  0.00    +0.108 C 
ATOM     13  N   UNL     1       3.577  -1.520   3.350  0.00  0.00    -0.336 N 
ATOM     14  H   UNL     1       2.896  -2.381   3.430  0.00  0.00    +0.147 HD
ENDROOT
BRANCH  12  15
ATOM     15  C   UNL     1       4.913  -2.530   5.138  0.00  0.00    +0.017 A 
ATOM     16  C   UNL     1       3.720  -2.869   5.746  0.00  0.00    +0.041 A 
ATOM     17  C   UNL     1       3.713  -3.739   6.820  0.00  0.00    +0.127 A 
ATOM     18  C   UNL     1       4.899  -4.273   7.288  0.00  0.00    +0.036 A 
ATOM     19  C   UNL     1       6.095  -3.937   6.683  0.00  0.00    +0.048 A 
ATOM     20  C   UNL     1       6.104  -3.068   5.602  0.00  0.00    +0.122 A 
BRANCH  17  21
ATOM     21  N   UNL     1       2.433  -4.101   7.469  0.00  0.00    +0.056 N 
ATOM     22  O   UNL     1       1.387  -3.632   7.058  0.00  0.00    -0.126 OA
ATOM     23  O   UNL     1       2.426  -4.868   8.415  0.00  0.00    -0.126 OA
ENDBRANCH  17  21
BRANCH  20  24
ATOM     24  O   UNL     1       7.279  -2.740   5.002  0.00  0.00    -0.506 OA
ATOM     25  H   UNL     1       8.223  -3.167   5.371  0.00  0.00    +0.292 HD
ENDBRANCH  20  24
ENDBRANCH  12  15
BRANCH   1  26
ATOM     26  S   UNL     1       1.646   3.296   0.464  0.00  0.00    +0.072 S 
ATOM     27  O   UNL     1       2.790   3.945  -0.076  0.00  0.00    -0.150 OA
ATOM     28  O   UNL     1       0.560   2.870  -0.347  0.00  0.00    -0.150 OA
BRANCH  26  29
ATOM     29  N   UNL     1       1.015   4.320   1.602  0.00  0.00    -0.216 N 
ATOM     30  H   UNL     1       1.464   5.312   1.759  0.00  0.00    +0.174 HD
BRANCH  29  35
ATOM     31  C   UNL     1      -3.459   2.712   4.693  0.00  0.00    +0.044 C 
ATOM     32  C   UNL     1      -2.270   3.139   3.872  0.00  0.00    -0.047 A 
ATOM     33  C   UNL     1      -2.443   3.516   2.552  0.00  0.00    +0.005 A 
ATOM     34  C   UNL     1      -1.356   3.913   1.798  0.00  0.00    +0.025 A 
ATOM     35  C   UNL     1      -0.087   3.923   2.363  0.00  0.00    +0.048 A 
ATOM     36  C   UNL     1       0.083   3.544   3.689  0.00  0.00    +0.028 A 
ATOM     37  C   UNL     1      -1.009   3.153   4.439  0.00  0.00    -0.046 A 
ATOM     38  C   UNL     1      -0.826   2.741   5.877  0.00  0.00    +0.044 C 
ENDBRANCH  29  35
ENDBRANCH  26  29
ENDBRANCH   1  26
TORSDOF 6
