REMARK  Name = ZINC21347349
REMARK  13 active torsions:
REMARK  status: ('A' for Active; 'I' for Inactive)
REMARK    1  A    between atoms: C_1  and  C_2
REMARK    2  A    between atoms: C_2  and  C_4
REMARK    3  A    between atoms: C_2  and  O_20
REMARK    4  A    between atoms: N_6  and  C_7
REMARK    5  A    between atoms: C_10  and  N_17
REMARK    6  A    between atoms: C_12  and  C_13
REMARK    7  A    between atoms: O_20  and  C_21
REMARK    8  A    between atoms: C_21  and  C_23
REMARK    9  A    between atoms: C_24  and  C_25
REMARK   10  A    between atoms: C_28  and  O_33
REMARK   11  A    between atoms: C_30  and  O_31
REMARK   12  A    between atoms: O_31  and  C_32
REMARK   13  A    between atoms: O_33  and  C_34
REMARK                            x       y       z     vdW  Elec       q    Type
REMARK                         _______ _______ _______ _____ _____    ______ ____
ROOT
ATOM      1  C   UNL     1      -4.281   6.389   1.512  0.00  0.00    +0.062 C 
ATOM      2  C   UNL     1      -3.835   6.160   0.067  0.00  0.00    +0.259 C 
ENDROOT
BRANCH   2   3
ATOM      3  C   UNL     1      -3.744   7.484  -0.647  0.00  0.00    +0.258 C 
ATOM      4  O   UNL     1      -2.687   7.848  -1.117  0.00  0.00    -0.271 OA
ATOM      5  N   UNL     1      -4.837   8.263  -0.764  0.00  0.00    -0.282 N 
ATOM      6  H   UNL     1      -5.815   7.894  -0.419  0.00  0.00    +0.155 HD
BRANCH   5   7
ATOM      7  C   UNL     1      -4.729   9.541  -1.323  0.00  0.00    +0.045 A 
ATOM      8  C   UNL     1      -3.516  10.216  -1.286  0.00  0.00    +0.026 A 
ATOM      9  C   UNL     1      -3.413  11.477  -1.839  0.00  0.00    +0.034 A 
ATOM     10  C   UNL     1      -4.515  12.068  -2.430  0.00  0.00    +0.127 A 
ATOM     11  C   UNL     1      -5.724  11.398  -2.469  0.00  0.00    +0.047 A 
ATOM     12  C   UNL     1      -5.833  10.134  -1.922  0.00  0.00    +0.078 A 
BRANCH  12  13
ATOM     13  C   UNL     1      -7.149   9.402  -1.969  0.00  0.00    +0.419 C 
ATOM     14  F   UNL     1      -8.101  10.197  -2.616  0.00  0.00    -0.166 F 
ATOM     15  F   UNL     1      -6.990   8.201  -2.669  0.00  0.00    -0.166 F 
ATOM     16  F   UNL     1      -7.578   9.129  -0.666  0.00  0.00    -0.166 F 
ENDBRANCH  12  13
BRANCH  10  17
ATOM     17  N   UNL     1      -4.400  13.419  -3.023  0.00  0.00    +0.056 N 
ATOM     18  O   UNL     1      -3.336  14.010  -2.990  0.00  0.00    -0.126 OA
ATOM     19  O   UNL     1      -5.370  13.940  -3.544  0.00  0.00    -0.126 OA
ENDBRANCH  10  17
ENDBRANCH   5   7
ENDBRANCH   2   3
BRANCH   2  20
ATOM     20  O   UNL     1      -2.554   5.525   0.059  0.00  0.00    -0.449 OA
BRANCH  20  21
ATOM     21  C   UNL     1      -2.539   4.176   0.062  0.00  0.00    +0.333 C 
ATOM     22  O   UNL     1      -3.586   3.556   0.071  0.00  0.00    -0.246 OA
BRANCH  21  23
ATOM     23  C   UNL     1      -1.306   3.482   0.054  0.00  0.00    +0.092 C 
ATOM     24  C   UNL     1      -1.291   2.129   0.057  0.00  0.00    +0.018 C 
BRANCH  24  25
ATOM     25  C   UNL     1      -0.012   1.409   0.050  0.00  0.00    +0.017 A 
ATOM     26  C   UNL     1       1.195   2.120   0.033  0.00  0.00    +0.015 A 
ATOM     27  C   UNL     1       2.383   1.448   0.020  0.00  0.00    +0.046 A 
ATOM     28  C   UNL     1       2.406   0.057   0.023  0.00  0.00    +0.124 A 
ATOM     29  C   UNL     1       1.220  -0.663   0.039  0.00  0.00    +0.091 A 
ATOM     30  C   UNL     1       0.007   0.004   0.053  0.00  0.00    +0.131 A 
BRANCH  30  31
ATOM     31  O   UNL     1      -1.156  -0.695   0.068  0.00  0.00    -0.494 OA
ATOM     32  C   UNL     1      -1.056  -2.120   0.070  0.00  0.00    +0.277 C 
ENDBRANCH  30  31
BRANCH  28  33
ATOM     33  O   UNL     1       3.594  -0.600   0.010  0.00  0.00    -0.495 OA
ATOM     34  C   UNL     1       4.777   0.201  -0.007  0.00  0.00    +0.277 C 
ENDBRANCH  28  33
ENDBRANCH  24  25
ENDBRANCH  21  23
ENDBRANCH  20  21
ENDBRANCH   2  20
TORSDOF 10
