REMARK  Name = ZINC02196917
REMARK  2 active torsions:
REMARK  status: ('A' for Active; 'I' for Inactive)
REMARK    1  A    between atoms: C_6  and  N_7
REMARK    2  A    between atoms: N_13  and  C_14
REMARK                            x       y       z     vdW  Elec       q    Type
REMARK                         _______ _______ _______ _____ _____    ______ ____
ROOT
ATOM      1  N   UNL     1      -1.080   1.396   1.116  0.00  0.00    -0.269 N 
ATOM      2  C   UNL     1       0.135   0.890   0.828  0.00  0.00    +0.311 C 
ATOM      3  O   UNL     1       0.309  -0.313   0.828  0.00  0.00    -0.252 OA
ATOM      4  N   UNL     1       1.157   1.718   0.533  0.00  0.00    -0.223 N 
ATOM      5  C   UNL     1       2.372   1.212   0.240  0.00  0.00    +0.322 C 
ATOM      6  O   UNL     1       2.523   0.010   0.148  0.00  0.00    -0.251 OA
ATOM      7  N   UNL     1       3.418   2.039   0.047  0.00  0.00    -0.177 N 
ATOM      8  C   UNL     1       4.605   1.542  -0.352  0.00  0.00    +0.320 C 
ATOM      9  O   UNL     1       4.756   0.341  -0.459  0.00  0.00    -0.251 OA
ATOM     10  N   UNL     1       5.626   2.377  -0.632  0.00  0.00    -0.243 N 
ATOM     11  C   UNL     1       6.808   1.877  -1.140  0.00  0.00    +0.162 C 
ATOM     12  C   UNL     1       8.386   0.452  -1.801  0.00  0.00    +0.102 C 
ATOM     13  C   UNL     1       8.753  -0.541  -2.879  0.00  0.00    +0.026 C 
ATOM     14  C   UNL     1      10.283  -0.446  -3.052  0.00  0.00    +0.002 C 
ATOM     15  C   UNL     1      10.724   0.971  -3.401  0.00  0.00    +0.002 C 
ATOM     16  C   UNL     1      10.193   2.007  -2.393  0.00  0.00    +0.024 C 
ATOM     17  C   UNL     1       8.688   1.866  -2.373  0.00  0.00    +0.095 C 
ATOM     18  N   UNL     1       7.899   2.673  -1.458  0.00  0.00    -0.314 N 
ATOM     19  H   UNL     1      -1.202   2.356   1.185  0.00  0.00    +0.156 HD
ATOM     20  H   UNL     1       1.019   2.678   0.533  0.00  0.00    +0.161 HD
ATOM     21  H   UNL     1       5.529   3.330  -0.476  0.00  0.00    +0.159 HD
ATOM     22  H   UNL     1       8.094   3.568  -1.139  0.00  0.00    +0.149 HD
ATOM     23  N   UNL     1       7.018   0.611  -1.378  0.00  0.00    -0.356 N 
ATOM     24  H   UNL     1       6.328  -0.143  -1.280  0.00  0.00    +0.162 HD
ENDROOT
BRANCH   1  30
ATOM     25  C   UNL     1      -3.437   0.911   0.897  0.00  0.00    +0.025 A 
ATOM     26  C   UNL     1      -4.506   0.058   1.090  0.00  0.00    +0.022 A 
ATOM     27  C   UNL     1      -4.314  -1.164   1.710  0.00  0.00    +0.041 A 
ATOM     28  C   UNL     1      -3.051  -1.537   2.133  0.00  0.00    +0.022 A 
ATOM     29  C   UNL     1      -1.977  -0.691   1.937  0.00  0.00    +0.025 A 
ATOM     30  C   UNL     1      -2.167   0.536   1.316  0.00  0.00    +0.035 A 
ATOM     31 CL   UNL     1      -5.662  -2.230   1.957  0.00  0.00    -0.084 Cl
ENDBRANCH   1  30
BRANCH   7  32
ATOM     32  C   UNL     1       3.271   3.417   0.262  0.00  0.00    +0.047 A 
ATOM     33  C   UNL     1       3.901   4.024   1.340  0.00  0.00    +0.025 A 
ATOM     34  C   UNL     1       3.759   5.382   1.547  0.00  0.00    +0.022 A 
ATOM     35  C   UNL     1       2.981   6.136   0.686  0.00  0.00    +0.041 A 
ATOM     36  C   UNL     1       2.348   5.533  -0.386  0.00  0.00    +0.022 A 
ATOM     37  C   UNL     1       2.491   4.176  -0.600  0.00  0.00    +0.025 A 
ATOM     38 CL   UNL     1       2.799   7.842   0.952  0.00  0.00    -0.084 Cl
ENDBRANCH   7  32
TORSDOF 2
