REMARK  Name = ZINC08898116
REMARK  6 active torsions:
REMARK  status: ('A' for Active; 'I' for Inactive)
REMARK    1  A    between atoms: C_1  and  C_2
REMARK    2  A    between atoms: C_2  and  O_3
REMARK    3  A    between atoms: O_3  and  C_4
REMARK    4  A    between atoms: C_19  and  C_21
REMARK    5  A    between atoms: N_26  and  S_27
REMARK    6  A    between atoms: S_27  and  C_30
REMARK                            x       y       z     vdW  Elec       q    Type
REMARK                         _______ _______ _______ _____ _____    ______ ____
ROOT
ATOM      1  C   UNL     1      -0.236   0.606   6.004  0.00  0.00    +0.147 A 
ATOM      2  C   UNL     1       0.493  -0.116   6.919  0.00  0.00    +0.048 A 
ATOM      3  C   UNL     1       1.521  -0.959   6.522  0.00  0.00    +0.005 A 
ATOM      4  C   UNL     1       1.821  -1.076   5.177  0.00  0.00    +0.017 A 
ATOM      5  C   UNL     1       1.099  -0.358   4.255  0.00  0.00    +0.044 A 
ATOM      6  C   UNL     1       0.046   0.509   4.618  0.00  0.00    +0.122 A 
ATOM      7  N   UNL     1      -0.566   1.149   3.596  0.00  0.00    -0.221 NA
ATOM      8  C   UNL     1      -0.214   0.972   2.343  0.00  0.00    +0.162 A 
ATOM      9  S   UNL     1       1.129  -0.198   2.486  0.00  0.00    -0.052 S 
ATOM     10  N   UNL     1      -0.744   1.548   1.205  0.00  0.00    -0.307 N 
ATOM     11  C   UNL     1      -0.047   1.075   0.002  0.00  0.00    +0.126 C 
ATOM     12  C   UNL     1      -0.775   1.592  -1.244  0.00  0.00    +0.127 C 
ATOM     13  N   UNL     1      -0.907   3.053  -1.135  0.00  0.00    -0.297 N 
ATOM     14  C   UNL     1      -1.473   3.610   0.102  0.00  0.00    +0.127 C 
ATOM     15  C   UNL     1      -0.717   3.014   1.295  0.00  0.00    +0.126 C 
ATOM     16  C   UNL     1      -0.520   3.859  -2.144  0.00  0.00    +0.235 C 
ATOM     17  O   UNL     1       0.033   3.390  -3.116  0.00  0.00    -0.274 OA
ENDROOT
BRANCH  16  18
ATOM     18  C   UNL     1      -0.774   5.342  -2.062  0.00  0.00    +0.166 C 
ATOM     19  C   UNL     1       0.376   6.030  -1.297  0.00  0.00    +0.031 C 
ATOM     20  C   UNL     1       0.567   7.358  -2.077  0.00  0.00    +0.019 C 
ATOM     21  C   UNL     1       0.282   6.908  -3.531  0.00  0.00    +0.110 C 
ATOM     22  N   UNL     1      -0.805   5.919  -3.414  0.00  0.00    -0.165 NA
BRANCH  22  23
ATOM     23  S   UNL     1      -1.882   5.522  -4.608  0.00  0.00    +0.062 S 
ATOM     24  O   UNL     1      -1.256   5.845  -5.843  0.00  0.00    -0.153 OA
ATOM     25  O   UNL     1      -2.353   4.215  -4.312  0.00  0.00    -0.153 OA
BRANCH  23  26
ATOM     26  C   UNL     1      -3.263   6.604  -4.445  0.00  0.00    +0.106 A 
ATOM     27  C   UNL     1      -4.334   6.242  -3.649  0.00  0.00    +0.031 A 
ATOM     28  C   UNL     1      -5.415   7.093  -3.516  0.00  0.00    +0.040 A 
ATOM     29  C   UNL     1      -5.430   8.303  -4.189  0.00  0.00    +0.124 A 
ATOM     30  C   UNL     1      -4.359   8.662  -4.990  0.00  0.00    +0.040 A 
ATOM     31  C   UNL     1      -3.276   7.813  -5.117  0.00  0.00    +0.031 A 
ATOM     32  F   UNL     1      -6.489   9.133  -4.064  0.00  0.00    -0.205 F 
ENDBRANCH  23  26
ENDBRANCH  22  23
ENDBRANCH  16  18
BRANCH   1  33
ATOM     33  O   UNL     1      -1.236   1.421   6.432  0.00  0.00    -0.490 OA
BRANCH  33  35
ATOM     34  C   UNL     1      -2.625   2.437   8.130  0.00  0.00    +0.048 C 
ATOM     35  C   UNL     1      -1.470   1.475   7.841  0.00  0.00    +0.226 C 
ENDBRANCH  33  35
ENDBRANCH   1  33
TORSDOF 5
