REMARK  Name = ZINC06193608
REMARK  10 active torsions:
REMARK  status: ('A' for Active; 'I' for Inactive)
REMARK    1  A    between atoms: C_1  and  C_2
REMARK    2  A    between atoms: C_2  and  N_69
REMARK    3  A    between atoms: C_3  and  C_4
REMARK    4  A    between atoms: C_3  and  N_69
REMARK    5  A    between atoms: C_10  and  C_12
REMARK    6  A    between atoms: C_10  and  C_26
REMARK    7  A    between atoms: C_10  and  N_69
REMARK    8  A    between atoms: C_16  and  C_25
REMARK    9  A    between atoms: C_18  and  C_24
REMARK   10  A    between atoms: N_30  and  C_31
REMARK                            x       y       z     vdW  Elec       q    Type
REMARK                         _______ _______ _______ _____ _____    ______ ____
ROOT
ATOM      1  C   UNL     1       3.419   0.840   0.002  0.00  0.00    +0.039 C 
ENDROOT
BRANCH   1   2
ATOM      2  C   UNL     1       4.021   1.285   1.310  0.00  0.00    +0.011 A 
ATOM      3  C   UNL     1       4.636   0.381   2.112  0.00  0.00    +0.017 A 
ATOM      4  C   UNL     1       5.211   0.845   3.376  0.00  0.00    -0.001 A 
ATOM      5  C   UNL     1       5.859  -0.041   4.244  0.00  0.00    +0.013 A 
ATOM      6  C   UNL     1       6.385   0.424   5.416  0.00  0.00    -0.050 A 
ATOM      7  C   UNL     1       6.283   1.767   5.753  0.00  0.00    +0.008 A 
ATOM      8  C   UNL     1       5.650   2.657   4.913  0.00  0.00    -0.026 A 
ATOM      9  C   UNL     1       5.106   2.207   3.714  0.00  0.00    +0.052 A 
ATOM     10  N   UNL     1       4.468   3.075   2.855  0.00  0.00    -0.322 N 
ATOM     11  H   UNL     1       4.390   4.042   3.098  0.00  0.00    +0.169 HD
ATOM     12  C   UNL     1       3.947   2.641   1.693  0.00  0.00    +0.251 A 
ATOM     13  O   UNL     1       3.394   3.438   0.955  0.00  0.00    -0.268 OA
ATOM     14  C   UNL     1       5.546   4.112   5.292  0.00  0.00    +0.046 C 
ATOM     15  C   UNL     1       7.082  -0.530   6.352  0.00  0.00    +0.044 C 
ENDBRANCH   1   2
BRANCH   1  16
ATOM     16  C   UNL     1       1.923   1.022   0.050  0.00  0.00    +0.143 A 
ATOM     17  N   UNL     1       1.266   2.146  -0.100  0.00  0.00    -0.115 NA
ATOM     18  N   UNL     1       0.008   1.888   0.008  0.00  0.00    -0.023 NA
ATOM     19  N   UNL     1      -0.154   0.629   0.223  0.00  0.00    -0.044 NA
ATOM     20  N   UNL     1       1.004   0.061   0.256  0.00  0.00    -0.227 N 
BRANCH  20  21
ATOM     21  C   UNL     1       1.268  -1.363   0.476  0.00  0.00    +0.111 C 
ATOM     22  C   UNL     1       0.586  -2.184  -0.621  0.00  0.00    +0.027 C 
ATOM     23  C   UNL     1       0.862  -3.671  -0.391  0.00  0.00    +0.002 C 
ATOM     24  C   UNL     1       0.310  -4.087   0.974  0.00  0.00    +0.000 C 
ATOM     25  C   UNL     1       0.991  -3.267   2.071  0.00  0.00    +0.002 C 
ATOM     26  C   UNL     1       0.716  -1.780   1.841  0.00  0.00    +0.027 C 
ENDBRANCH  20  21
ENDBRANCH   1  16
BRANCH   1  27
ATOM     27  N   UNL     1       3.970   1.675  -1.087  0.00  0.00    +0.392 N 
ATOM     28  H   UNL     1       3.779   2.662  -0.879  0.00  0.00    -0.080 HD
BRANCH  27  30
ATOM     29  C   UNL     1       3.573  -0.150  -2.707  0.00  0.00    -0.017 C 
ATOM     30  C   UNL     1       3.326   1.322  -2.369  0.00  0.00    -0.080 C 
ENDBRANCH  27  30
BRANCH  27  31
ATOM     31  C   UNL     1       5.431   1.478  -1.184  0.00  0.00    -0.042 C 
BRANCH  31  32
ATOM     32  C   UNL     1       5.996   2.495  -2.143  0.00  0.00    -0.064 A 
ATOM     33  C   UNL     1       6.114   2.188  -3.485  0.00  0.00    +0.002 A 
ATOM     34  C   UNL     1       6.626   3.122  -4.366  0.00  0.00    +0.000 A 
ATOM     35  C   UNL     1       7.032   4.359  -3.901  0.00  0.00    +0.000 A 
ATOM     36  C   UNL     1       6.919   4.664  -2.558  0.00  0.00    +0.000 A 
ATOM     37  C   UNL     1       6.401   3.732  -1.679  0.00  0.00    +0.002 A 
ENDBRANCH  31  32
ENDBRANCH  27  31
ENDBRANCH   1  27
TORSDOF 7
