REMARK  Name = ZINC35866268
REMARK  8 active torsions:
REMARK  status: ('A' for Active; 'I' for Inactive)
REMARK    1  A    between atoms: C_1  and  C_2
REMARK    2  A    between atoms: C_11  and  N_19
REMARK    3  A    between atoms: C_13  and  C_15
REMARK    4  A    between atoms: C_15  and  C_16
REMARK    5  A    between atoms: C_16  and  C_17
REMARK    6  A    between atoms: C_16  and  C_18
REMARK    7  A    between atoms: C_25  and  C_27
REMARK    8  A    between atoms: C_27  and  C_29
REMARK                            x       y       z     vdW  Elec       q    Type
REMARK                         _______ _______ _______ _____ _____    ______ ____
ROOT
ATOM      1  C   UNL     1      -0.039   1.034   0.475  0.00  0.00    +0.008 C 
ATOM      2  C   UNL     1       0.012  -0.490   0.347  0.00  0.00    -0.009 C 
ATOM      3  C   UNL     1       0.741  -0.873  -0.944  0.00  0.00    +0.008 C 
ATOM      4  C   UNL     1       0.581  -2.371  -1.205  0.00  0.00    +0.037 C 
ATOM      5  C   UNL     1       1.012  -3.139   0.042  0.00  0.00    -0.025 A 
ATOM      6  C   UNL     1       1.084  -2.517   1.241  0.00  0.00    -0.004 A 
ATOM      7  S   UNL     1       1.617  -3.767   2.385  0.00  0.00    -0.073 S 
ATOM      8  C   UNL     1       1.745  -5.118   1.259  0.00  0.00    +0.114 A 
ATOM      9  C   UNL     1       1.364  -4.549   0.017  0.00  0.00    +0.051 A 
ATOM     10  C   UNL     1       1.368  -5.414  -1.115  0.00  0.00    +0.133 A 
ATOM     11  N   UNL     1       1.732  -6.673  -0.881  0.00  0.00    -0.217 NA
ATOM     12  C   UNL     1       2.074  -7.133   0.306  0.00  0.00    +0.133 A 
ATOM     13  N   UNL     1       2.092  -6.381   1.400  0.00  0.00    -0.225 NA
ATOM     14  C   UNL     1       0.775  -1.082   1.540  0.00  0.00    +0.046 C 
ENDROOT
BRANCH  10  15
ATOM     15  N   UNL     1       1.015  -4.973  -2.378  0.00  0.00    -0.312 N 
ATOM     16  C   UNL     1       2.029  -4.420  -3.287  0.00  0.00    +0.125 C 
ATOM     17  C   UNL     1       1.987  -5.206  -4.604  0.00  0.00    +0.126 C 
ATOM     18  N   UNL     1       0.592  -5.283  -5.060  0.00  0.00    -0.297 N 
ATOM     19  C   UNL     1      -0.422  -5.836  -4.151  0.00  0.00    +0.126 C 
ATOM     20  C   UNL     1      -0.379  -5.055  -2.837  0.00  0.00    +0.125 C 
ATOM     21  C   UNL     1       0.248  -4.854  -6.291  0.00  0.00    +0.233 C 
ATOM     22  O   UNL     1      -0.918  -4.834  -6.622  0.00  0.00    -0.274 OA
BRANCH  21  23
ATOM     23  C   UNL     1       1.313  -4.398  -7.255  0.00  0.00    +0.163 C 
ATOM     24  C   UNL     1       1.038  -4.994  -8.637  0.00  0.00    +0.034 C 
ATOM     25 CL   UNL     1       1.297  -2.598  -7.362  0.00  0.00    -0.112 Cl
ENDBRANCH  21  23
ENDBRANCH  10  15
BRANCH  12  26
ATOM     26  C   UNL     1       2.465  -8.583   0.427  0.00  0.00    +0.079 C 
BRANCH  26  27
ATOM     27  C   UNL     1       3.972  -8.726   0.206  0.00  0.00    -0.010 C 
ATOM     28  C   UNL     1       4.722  -8.010   1.330  0.00  0.00    +0.007 C 
ATOM     29  C   UNL     1       4.349 -10.209   0.205  0.00  0.00    +0.007 C 
ENDBRANCH  26  27
ENDBRANCH  12  26
TORSDOF 4
