REMARK  Name = ZINC12850893
REMARK  9 active torsions:
REMARK  status: ('A' for Active; 'I' for Inactive)
REMARK    1  A    between atoms: C_1  and  C_2
REMARK    2  A    between atoms: C_2  and  C_4
REMARK    3  A    between atoms: C_2  and  O_36
REMARK    4  A    between atoms: C_7  and  N_10
REMARK    5  A    between atoms: C_11  and  C_13
REMARK    6  A    between atoms: C_17  and  C_28
REMARK    7  A    between atoms: C_20  and  C_24
REMARK    8  A    between atoms: C_31  and  O_34
REMARK    9  A    between atoms: O_34  and  C_35
REMARK                            x       y       z     vdW  Elec       q    Type
REMARK                         _______ _______ _______ _____ _____    ______ ____
ROOT
ATOM      1  C   UNL     1      -7.347  -2.700  -1.117  0.00  0.00    +0.110 C 
ATOM      2  C   UNL     1      -8.144  -2.776  -0.022  0.00  0.00    +0.072 C 
ATOM      3  C   UNL     1      -9.463  -3.214  -0.475  0.00  0.00    +0.114 C 
ATOM      4  N   UNL     1     -10.555  -3.421   0.205  0.00  0.00    -0.365 N 
ATOM      5  C   UNL     1     -11.772  -3.828  -0.506  0.00  0.00    +0.113 C 
ATOM      6  C   UNL     1     -11.421  -4.673  -1.731  0.00  0.00    +0.062 C 
ATOM      7  C   UNL     1     -10.493  -3.877  -2.662  0.00  0.00    +0.201 C 
ATOM      8  N   UNL     1      -9.369  -3.400  -1.849  0.00  0.00    -0.226 N 
ATOM      9  N   UNL     1      -8.079  -3.058  -2.238  0.00  0.00    -0.258 N 
ATOM     10  H   UNL     1      -7.744  -3.071  -3.148  0.00  0.00    +0.170 HD
ATOM     11  H   UNL     1     -10.562  -3.307   1.169  0.00  0.00    +0.161 HD
ENDROOT
BRANCH   5  12
ATOM     12  C   UNL     1     -12.643  -4.636   0.421  0.00  0.00    -0.025 A 
ATOM     13  C   UNL     1     -12.068  -5.549   1.287  0.00  0.00    +0.009 A 
ATOM     14  C   UNL     1     -12.864  -6.291   2.138  0.00  0.00    +0.046 A 
ATOM     15  C   UNL     1     -14.240  -6.120   2.124  0.00  0.00    +0.120 A 
ATOM     16  C   UNL     1     -14.814  -5.203   1.255  0.00  0.00    +0.046 A 
ATOM     17  C   UNL     1     -14.014  -4.460   0.410  0.00  0.00    +0.009 A 
BRANCH  15  18
ATOM     18  O   UNL     1     -15.025  -6.849   2.960  0.00  0.00    -0.495 OA
ATOM     19  C   UNL     1     -16.434  -6.621   2.891  0.00  0.00    +0.277 C 
ENDBRANCH  15  18
ENDBRANCH   5  12
BRANCH   1  21
ATOM     20  N   UNL     1      -5.319  -1.966   0.042  0.00  0.00    -0.280 N 
ATOM     21  C   UNL     1      -5.926  -2.294  -1.116  0.00  0.00    +0.264 C 
ATOM     22  O   UNL     1      -5.304  -2.255  -2.160  0.00  0.00    -0.268 OA
ATOM     23  H   UNL     1      -5.792  -2.070   0.883  0.00  0.00    +0.155 HD
BRANCH  20  27
ATOM     24  C   UNL     1      -1.418  -0.509   0.011  0.00  0.00    -0.019 A 
ATOM     25  C   UNL     1      -1.855  -1.287   1.067  0.00  0.00    +0.008 A 
ATOM     26  C   UNL     1      -3.148  -1.772   1.081  0.00  0.00    +0.023 A 
ATOM     27  C   UNL     1      -4.010  -1.477   0.032  0.00  0.00    +0.034 A 
ATOM     28  C   UNL     1      -3.567  -0.696  -1.028  0.00  0.00    +0.023 A 
ATOM     29  C   UNL     1      -2.275  -0.210  -1.033  0.00  0.00    +0.008 A 
BRANCH  24  31
ATOM     30  C   UNL     1       0.085   1.250   0.903  0.00  0.00    +0.043 C 
ATOM     31  C   UNL     1      -0.006   0.018  -0.001  0.00  0.00    +0.141 C 
BRANCH  31  32
ATOM     32  O   UNL     1       0.883  -0.992   0.480  0.00  0.00    -0.387 OA
ATOM     33  H   UNL     1       1.812  -0.721   0.500  0.00  0.00    +0.210 HD
ENDBRANCH  31  32
ENDBRANCH  24  31
ENDBRANCH  20  27
ENDBRANCH   1  21
BRANCH   7  34
ATOM     34  C   UNL     1      -9.980  -4.781  -3.784  0.00  0.00    +0.410 C 
ATOM     35  F   UNL     1     -11.064  -5.271  -4.521  0.00  0.00    -0.169 F 
ATOM     36  F   UNL     1      -9.136  -4.048  -4.625  0.00  0.00    -0.169 F 
ATOM     37  F   UNL     1      -9.270  -5.853  -3.232  0.00  0.00    -0.169 F 
ENDBRANCH   7  34
TORSDOF 7
