REMARK  Name = ZINC39896085
REMARK  10 active torsions:
REMARK  status: ('A' for Active; 'I' for Inactive)
REMARK    1  A    between atoms: C_1  and  C_2
REMARK    2  A    between atoms: C_2  and  C_3
REMARK    3  A    between atoms: C_2  and  C_4
REMARK    4  A    between atoms: C_7  and  N_10
REMARK    5  A    between atoms: C_13  and  C_30
REMARK    6  A    between atoms: C_17  and  C_18
REMARK    7  A    between atoms: C_17  and  C_20
REMARK    8  A    between atoms: N_22  and  C_23
REMARK    9  A    between atoms: C_23  and  C_24
REMARK   10  A    between atoms: C_30  and  C_31
REMARK                            x       y       z     vdW  Elec       q    Type
REMARK                         _______ _______ _______ _____ _____    ______ ____
ROOT
ATOM      1  N   UNL     1      -5.295  -2.056   0.050  0.00  0.00    -0.232 N 
ATOM      2  C   UNL     1      -6.027  -1.878   1.136  0.00  0.00    +0.238 C 
ATOM      3  O   UNL     1      -5.620  -1.252   2.092  0.00  0.00    -0.274 OA
ATOM      4  C   UNL     1      -7.410  -2.508   1.111  0.00  0.00    +0.143 C 
ATOM      5  S   UNL     1      -7.388  -3.276  -0.561  0.00  0.00    -0.095 S 
ATOM      6  C   UNL     1      -5.747  -2.759  -1.041  0.00  0.00    +0.098 C 
ATOM      7  C   UNL     1      -5.080  -3.011  -2.240  0.00  0.00    +0.141 C 
ENDROOT
BRANCH   1  11
ATOM      8  C   UNL     1      -1.470  -0.403  -0.079  0.00  0.00    -0.045 A 
ATOM      9  C   UNL     1      -2.477   0.125  -0.866  0.00  0.00    +0.006 A 
ATOM     10  C   UNL     1      -3.745  -0.420  -0.825  0.00  0.00    +0.024 A 
ATOM     11  C   UNL     1      -4.009  -1.500   0.006  0.00  0.00    +0.042 A 
ATOM     12  C   UNL     1      -2.996  -2.029   0.795  0.00  0.00    +0.024 A 
ATOM     13  C   UNL     1      -1.728  -1.482   0.746  0.00  0.00    +0.006 A 
BRANCH   8  15
ATOM     14  C   UNL     1       0.461   0.101  -1.550  0.00  0.00    +0.012 C 
ATOM     15  C   UNL     1      -0.088   0.195  -0.125  0.00  0.00    +0.013 C 
ATOM     16  C   UNL     1      -0.153   1.663   0.302  0.00  0.00    +0.012 C 
ENDBRANCH   8  15
ENDBRANCH   1  11
BRANCH   7  17
ATOM     17  C   UNL     1      -3.663  -2.674  -2.374  0.00  0.00    +0.257 C 
ATOM     18  O   UNL     1      -3.331  -1.656  -2.953  0.00  0.00    -0.269 OA
ATOM     19  N   UNL     1      -2.724  -3.490  -1.855  0.00  0.00    -0.307 N 
ATOM     20  H   UNL     1      -2.989  -4.267  -1.338  0.00  0.00    +0.149 HD
BRANCH  19  21
ATOM     21  C   UNL     1      -1.304  -3.205  -2.073  0.00  0.00    +0.139 C 
BRANCH  21  22
ATOM     22  C   UNL     1      -0.475  -4.346  -1.542  0.00  0.00    -0.030 A 
ATOM     23  C   UNL     1      -0.129  -4.385  -0.204  0.00  0.00    +0.005 A 
ATOM     24  C   UNL     1       0.631  -5.431   0.283  0.00  0.00    +0.000 A 
ATOM     25  C   UNL     1       1.045  -6.439  -0.567  0.00  0.00    +0.000 A 
ATOM     26  C   UNL     1       0.699  -6.401  -1.905  0.00  0.00    +0.000 A 
ATOM     27  C   UNL     1      -0.065  -5.357  -2.391  0.00  0.00    +0.005 A 
ENDBRANCH  21  22
ENDBRANCH  19  21
ENDBRANCH   7  17
BRANCH   7  28
ATOM     28  C   UNL     1      -5.783  -3.599  -3.340  0.00  0.00    +0.107 C 
ATOM     29  N   UNL     1      -6.340  -4.066  -4.213  0.00  0.00    -0.191 NA
ENDBRANCH   7  28
BRANCH   4  30
ATOM     30  C   UNL     1      -8.506  -1.446   1.221  0.00  0.00    +0.059 C 
BRANCH  30  31
ATOM     31  C   UNL     1      -9.851  -2.120   1.316  0.00  0.00    -0.046 A 
ATOM     32  C   UNL     1     -10.561  -2.410   0.166  0.00  0.00    +0.005 A 
ATOM     33  C   UNL     1     -11.794  -3.027   0.252  0.00  0.00    +0.020 A 
ATOM     34  C   UNL     1     -12.318  -3.356   1.490  0.00  0.00    +0.041 A 
ATOM     35  C   UNL     1     -11.607  -3.065   2.641  0.00  0.00    +0.020 A 
ATOM     36  C   UNL     1     -10.371  -2.453   2.553  0.00  0.00    +0.005 A 
ATOM     37 CL   UNL     1     -13.867  -4.131   1.599  0.00  0.00    -0.084 Cl
ENDBRANCH  30  31
ENDBRANCH   4  30
TORSDOF 8
