REMARK  Name = ZINC13231893
REMARK  11 active torsions:
REMARK  status: ('A' for Active; 'I' for Inactive)
REMARK    1  A    between atoms: C_1  and  C_2
REMARK    2  A    between atoms: C_2  and  N_3
REMARK    3  A    between atoms: N_3  and  C_4
REMARK    4  A    between atoms: C_12  and  C_14
REMARK    5  A    between atoms: C_14  and  S_15
REMARK    6  A    between atoms: S_15  and  C_16
REMARK    7  A    between atoms: C_20  and  C_31
REMARK    8  A    between atoms: N_26  and  C_27
REMARK    9  A    between atoms: C_27  and  C_28
REMARK   10  A    between atoms: C_28  and  C_29
REMARK   11  A    between atoms: C_28  and  C_30
REMARK                            x       y       z     vdW  Elec       q    Type
REMARK                         _______ _______ _______ _____ _____    ______ ____
ROOT
ATOM      1  C   UNL     1      -3.636  -2.742   1.199  0.00  0.00    +0.173 A 
ATOM      2  N   UNL     1      -2.896  -2.949   0.138  0.00  0.00    -0.223 NA
ATOM      3  C   UNL     1      -3.029  -4.068  -0.612  0.00  0.00    +0.080 A 
ATOM      4  C   UNL     1      -2.236  -4.288  -1.742  0.00  0.00    +0.043 A 
ATOM      5  C   UNL     1      -2.412  -5.449  -2.484  0.00  0.00    +0.065 A 
ATOM      6  C   UNL     1      -3.375  -6.394  -2.107  0.00  0.00    +0.016 A 
ATOM      7  C   UNL     1      -4.156  -6.189  -1.006  0.00  0.00    +0.016 A 
ATOM      8  C   UNL     1      -3.996  -5.031  -0.247  0.00  0.00    +0.065 A 
ATOM      9  C   UNL     1      -4.817  -4.771   0.947  0.00  0.00    +0.262 A 
ATOM     10  O   UNL     1      -5.666  -5.562   1.313  0.00  0.00    -0.267 OA
ATOM     11  N   UNL     1      -4.593  -3.620   1.622  0.00  0.00    -0.287 N 
ENDROOT
BRANCH   5  12
ATOM     12  C   UNL     1      -1.575  -5.690  -3.680  0.00  0.00    +0.387 C 
ATOM     13  O   UNL     1      -0.739  -4.873  -4.011  0.00  0.00    -0.241 OA
ATOM     14  O   UNL     1      -1.742  -6.814  -4.404  0.00  0.00    -0.241 OA
ENDBRANCH   5  12
BRANCH   1  15
ATOM     15  S   UNL     1      -3.390  -1.260   2.119  0.00  0.00    -0.078 S 
BRANCH  15  16
ATOM     16  C   UNL     1      -2.061  -0.505   1.150  0.00  0.00    +0.173 C 
BRANCH  16  18
ATOM     17  N   UNL     1      -0.698   1.558   1.213  0.00  0.00    -0.296 N 
ATOM     18  C   UNL     1      -1.675   0.814   1.769  0.00  0.00    +0.226 C 
ATOM     19  O   UNL     1      -2.242   1.205   2.767  0.00  0.00    -0.275 OA
BRANCH  17  20
ATOM     20  C   UNL     1      -0.323   2.840   1.815  0.00  0.00    +0.098 C 
ATOM     21  C   UNL     1       0.132   2.619   3.267  0.00  0.00    +0.046 C 
ATOM     22  C   UNL     1       0.221   3.977   4.004  0.00  0.00    +0.168 C 
ATOM     23  S   UNL     1      -1.026   5.000   3.121  0.00  0.00    -0.029 S 
ATOM     24  O   UNL     1      -0.368   6.090   2.491  0.00  0.00    -0.174 OA
ATOM     25  O   UNL     1      -2.120   5.252   3.992  0.00  0.00    -0.174 OA
ATOM     26  C   UNL     1      -1.552   3.793   1.832  0.00  0.00    +0.188 C 
ENDBRANCH  17  20
BRANCH  17  28
ATOM     27  C   UNL     1      -0.753   1.593  -1.232  0.00  0.00    +0.024 C 
ATOM     28  C   UNL     1      -0.013   1.086   0.008  0.00  0.00    +0.105 C 
ENDBRANCH  17  28
ENDBRANCH  16  18
ENDBRANCH  15  16
ENDBRANCH   1  15
BRANCH  11  29
ATOM     29  C   UNL     1      -5.383  -3.313   2.817  0.00  0.00    +0.130 C 
BRANCH  29  30
ATOM     30  C   UNL     1      -6.637  -2.535   2.413  0.00  0.00    +0.003 C 
ATOM     31  C   UNL     1      -7.535  -3.426   1.552  0.00  0.00    +0.009 C 
ATOM     32  C   UNL     1      -7.398  -2.107   3.669  0.00  0.00    +0.009 C 
ENDBRANCH  29  30
ENDBRANCH  11  29
TORSDOF 8
