REMARK  Name = ZINC13116596
REMARK  8 active torsions:
REMARK  status: ('A' for Active; 'I' for Inactive)
REMARK    1  A    between atoms: C_1  and  C_2
REMARK    2  A    between atoms: C_2  and  C_3
REMARK    3  A    between atoms: C_3  and  N_4
REMARK    4  A    between atoms: C_17  and  C_32
REMARK    5  A    between atoms: C_22  and  C_28
REMARK    6  A    between atoms: C_22  and  C_30
REMARK    7  A    between atoms: C_23  and  N_27
REMARK    8  A    between atoms: C_24  and  C_25
REMARK                            x       y       z     vdW  Elec       q    Type
REMARK                         _______ _______ _______ _____ _____    ______ ____
ROOT
ATOM      1  N   UNL     1      -3.007   1.751  -1.390  0.00  0.00    -0.270 N 
ATOM      2  C   UNL     1      -2.518   3.031  -1.200  0.00  0.00    +0.041 A 
ATOM      3  C   UNL     1      -3.211   4.238  -1.095  0.00  0.00    +0.024 A 
ATOM      4  C   UNL     1      -2.458   5.386  -0.904  0.00  0.00    +0.002 A 
ATOM      5  C   UNL     1      -1.082   5.352  -0.819  0.00  0.00    +0.000 A 
ATOM      6  C   UNL     1      -0.379   4.156  -0.921  0.00  0.00    +0.007 A 
ATOM      7  C   UNL     1      -1.121   3.011  -1.112  0.00  0.00    -0.005 A 
ATOM      8  C   UNL     1      -0.710   1.578  -1.264  0.00  0.00    +0.116 C 
ATOM      9  C   UNL     1      -2.018   0.834  -1.442  0.00  0.00    +0.236 C 
ATOM     10  O   UNL     1      -2.152  -0.361  -1.600  0.00  0.00    -0.274 OA
ATOM     11  C   UNL     1      -0.013   1.086   0.008  0.00  0.00    +0.042 C 
ATOM     12  C   UNL     1      -0.806   1.560   1.215  0.00  0.00    +0.013 C 
ATOM     13  C   UNL     1       0.102   1.700   2.446  0.00  0.00    -0.010 C 
ATOM     14  C   UNL     1       1.148   2.778   2.136  0.00  0.00    +0.030 C 
ATOM     15  C   UNL     1       1.921   2.346   0.920  0.00  0.00    -0.024 C 
ATOM     16  C   UNL     1       1.404   1.592  -0.003  0.00  0.00    -0.030 C 
ATOM     17  C   UNL     1       2.280   1.162  -1.167  0.00  0.00    +0.202 C 
ATOM     18  C   UNL     1       1.478   1.225  -2.436  0.00  0.00    +0.055 C 
ATOM     19  C   UNL     1       0.157   1.391  -2.468  0.00  0.00    +0.069 C 
ATOM     20  C   UNL     1       0.801   0.372   2.742  0.00  0.00    +0.008 C 
ENDROOT
BRANCH  18  21
ATOM     21  N   UNL     1       2.144   1.104  -3.627  0.00  0.00    -0.358 N 
ATOM     22  H   UNL     1       1.587   1.146  -4.575  0.00  0.00    +0.142 HD
ATOM     23  H   UNL     1       3.235   0.966  -3.636  0.00  0.00    +0.142 HD
ENDBRANCH  18  21
BRANCH  19  24
ATOM     24  C   UNL     1      -0.480   1.391  -3.750  0.00  0.00    +0.098 C 
ATOM     25  N   UNL     1      -0.986   1.390  -4.768  0.00  0.00    -0.191 NA
ENDBRANCH  19  24
BRANCH  17  26
ATOM     26  C   UNL     1       3.437   2.065  -1.270  0.00  0.00    +0.095 C 
ATOM     27  N   UNL     1       4.331   2.762  -1.351  0.00  0.00    -0.194 NA
ENDBRANCH  17  26
BRANCH  17  28
ATOM     28  C   UNL     1       2.748  -0.216  -0.947  0.00  0.00    +0.095 C 
ATOM     29  N   UNL     1       3.110  -1.280  -0.778  0.00  0.00    -0.194 NA
ENDBRANCH  17  28
BRANCH   1  30
ATOM     30  C   UNL     1      -4.430   1.429  -1.520  0.00  0.00    +0.113 C 
BRANCH  30  32
ATOM     31  C   UNL     1      -6.502   0.803  -0.273  0.00  0.00    +0.005 C 
ATOM     32  C   UNL     1      -5.016   1.139  -0.137  0.00  0.00    +0.016 C 
ENDBRANCH  30  32
ENDBRANCH   1  30
TORSDOF 6
