REMARK  Name = ZINC22926762
REMARK  8 active torsions:
REMARK  status: ('A' for Active; 'I' for Inactive)
REMARK    1  A    between atoms: C_3  and  C_6
REMARK    2  A    between atoms: C_8  and  C_11
REMARK    3  A    between atoms: C_11  and  C_12
REMARK    4  A    between atoms: C_12  and  C_13
REMARK    5  A    between atoms: C_13  and  N_14
REMARK    6  A    between atoms: N_17  and  C_20
REMARK    7  A    between atoms: C_20  and  C_21
REMARK    8  A    between atoms: C_20  and  C_28
REMARK                            x       y       z     vdW  Elec       q    Type
REMARK                         _______ _______ _______ _____ _____    ______ ____
ROOT
ATOM      1  N   UNL     1      -0.252   3.310   1.159  0.00  0.00    +0.381 N 
ATOM      2  C   UNL     1      -0.481   1.861   1.249  0.00  0.00    -0.063 C 
ATOM      3  C   UNL     1       0.081   1.180  -0.001  0.00  0.00    +0.067 C 
ATOM      4  N   UNL     1      -0.568   1.739  -1.194  0.00  0.00    -0.295 NA
ATOM      5  C   UNL     1      -0.339   3.188  -1.285  0.00  0.00    +0.067 C 
ATOM      6  C   UNL     1      -0.901   3.870  -0.035  0.00  0.00    -0.063 C 
ATOM      7  H   UNL     1       0.831   3.478   1.066  0.00  0.00    -0.082 HD
ENDROOT
BRANCH   1   8
ATOM      8  C   UNL     1      -0.711   3.993   2.376  0.00  0.00    -0.078 C 
BRANCH   8   9
ATOM      9  C   UNL     1       0.158   3.564   3.560  0.00  0.00    -0.009 C 
BRANCH   9  10
ATOM     10  C   UNL     1      -0.321   4.274   4.827  0.00  0.00    +0.097 C 
BRANCH  10  13
ATOM     11  C   UNL     1       2.054   3.712   7.468  0.00  0.00    +0.209 A 
ATOM     12  N   UNL     1       1.638   4.430   6.398  0.00  0.00    -0.191 NA
ATOM     13  C   UNL     1       0.535   3.852   5.994  0.00  0.00    +0.228 A 
ATOM     14  O   UNL     1       0.307   2.820   6.812  0.00  0.00    -0.338 OA
ATOM     15  N   UNL     1       1.185   2.748   7.646  0.00  0.00    -0.056 NA
BRANCH  11  18
ATOM     16  C   UNL     1       4.892   3.705   9.970  0.00  0.00    +0.008 A 
ATOM     17  C   UNL     1       3.728   3.281   9.370  0.00  0.00    +0.019 A 
ATOM     18  C   UNL     1       3.262   3.966   8.280  0.00  0.00    +0.060 A 
ATOM     19  S   UNL     1       4.488   5.251   8.100  0.00  0.00    -0.093 S 
ATOM     20  C   UNL     1       5.536   4.793   9.471  0.00  0.00    +0.046 A 
ENDBRANCH  11  18
ENDBRANCH  10  13
ENDBRANCH   9  10
ENDBRANCH   8   9
ENDBRANCH   1   8
BRANCH   4  21
ATOM     21  C   UNL     1      -0.109   1.057  -2.412  0.00  0.00    +0.117 C 
BRANCH  21  22
ATOM     22  C   UNL     1      -0.507  -0.396  -2.354  0.00  0.00    -0.026 A 
ATOM     23  C   UNL     1      -1.773  -0.748  -1.924  0.00  0.00    +0.008 A 
ATOM     24  C   UNL     1      -2.140  -2.079  -1.875  0.00  0.00    +0.038 A 
ATOM     25  C   UNL     1      -1.237  -3.061  -2.246  0.00  0.00    +0.123 A 
ATOM     26  C   UNL     1       0.032  -2.707  -2.671  0.00  0.00    +0.038 A 
ATOM     27  C   UNL     1       0.396  -1.375  -2.724  0.00  0.00    +0.008 A 
ATOM     28  F   UNL     1      -1.594  -4.363  -2.194  0.00  0.00    -0.205 F 
ENDBRANCH  21  22
BRANCH  21  29
ATOM     29  C   UNL     1      -0.740   1.703  -3.618  0.00  0.00    -0.026 A 
ATOM     30  C   UNL     1      -2.090   1.999  -3.616  0.00  0.00    +0.008 A 
ATOM     31  C   UNL     1      -2.669   2.596  -4.720  0.00  0.00    +0.038 A 
ATOM     32  C   UNL     1      -1.898   2.887  -5.833  0.00  0.00    +0.123 A 
ATOM     33  C   UNL     1      -0.546   2.585  -5.835  0.00  0.00    +0.038 A 
ATOM     34  C   UNL     1       0.031   1.993  -4.728  0.00  0.00    +0.008 A 
ATOM     35  F   UNL     1      -2.463   3.466  -6.914  0.00  0.00    -0.205 F 
ENDBRANCH  21  29
ENDBRANCH   4  21
TORSDOF 8
