REMARK  Name = ZINC37969081
REMARK  4 active torsions:
REMARK  status: ('A' for Active; 'I' for Inactive)
REMARK    1  A    between atoms: C_2  and  C_12
REMARK    2  A    between atoms: C_12  and  C_14
REMARK    3  A    between atoms: C_12  and  N_17
REMARK    4  A    between atoms: N_17  and  C_18
REMARK                            x       y       z     vdW  Elec       q    Type
REMARK                         _______ _______ _______ _____ _____    ______ ____
ROOT
ATOM      1  C   UNL     1       1.236   3.522  -0.012  0.00  0.00    +0.047 C 
ENDROOT
BRANCH   1   3
ATOM      2  C   UNL     1       1.669   1.060   0.086  0.00  0.00    +0.052 A 
ATOM      3  C   UNL     1       2.166   2.348   0.151  0.00  0.00    -0.048 A 
ATOM      4  C   UNL     1       3.515   2.561   0.363  0.00  0.00    +0.021 A 
ATOM      5  C   UNL     1       4.372   1.485   0.512  0.00  0.00    +0.063 A 
ATOM      6  C   UNL     1       3.879   0.190   0.447  0.00  0.00    +0.176 A 
ATOM      7  C   UNL     1       2.522  -0.023   0.236  0.00  0.00    +0.163 A 
ATOM      8  O   UNL     1       2.016  -1.285   0.177  0.00  0.00    -0.485 OA
ATOM      9  C   UNL     1       2.954  -2.345  -0.042  0.00  0.00    +0.270 C 
ATOM     10  C   UNL     1       4.150  -2.130   0.895  0.00  0.00    +0.270 C 
ATOM     11  O   UNL     1       4.735  -0.859   0.591  0.00  0.00    -0.484 OA
ATOM     12 BR   UNL     1       6.217   1.781   0.801  0.00  0.00    -0.046 Br
ENDBRANCH   1   3
BRANCH   1  13
ATOM     13  C   UNL     1       1.337   4.052  -1.419  0.00  0.00    +0.201 C 
ATOM     14  O   UNL     1       2.100   4.960  -1.672  0.00  0.00    -0.277 OA
ATOM     15  N   UNL     1       0.579   3.517  -2.397  0.00  0.00    -0.330 N 
ATOM     16  H   UNL     1      -0.031   2.791  -2.195  0.00  0.00    +0.145 HD
ATOM     17  H   UNL     1       0.644   3.858  -3.303  0.00  0.00    +0.145 HD
ENDBRANCH   1  13
BRANCH   1  18
ATOM     18  N   UNL     1       1.611   4.579   0.937  0.00  0.00    +0.391 N 
ATOM     19  H   UNL     1       2.587   4.806   0.819  0.00  0.00    -0.084 HD
ATOM     20  H   UNL     1       1.051   5.401   0.764  0.00  0.00    -0.084 HD
BRANCH  18  21
ATOM     21  C   UNL     1       1.379   4.109   2.309  0.00  0.00    -0.070 C 
ATOM     22  C   UNL     1      -0.133   3.937   2.561  0.00  0.00    -0.016 C 
ATOM     23  C   UNL     1      -0.328   4.394   4.028  0.00  0.00    -0.002 C 
ATOM     24  C   UNL     1       0.648   5.591   4.146  0.00  0.00    -0.002 C 
ATOM     25  C   UNL     1       1.876   5.161   3.317  0.00  0.00    -0.016 C 
ENDBRANCH  18  21
ENDBRANCH   1  18
TORSDOF 4
