REMARK  Name = ZINC09001597
REMARK  11 active torsions:
REMARK  status: ('A' for Active; 'I' for Inactive)
REMARK    1  A    between atoms: C_1  and  C_2
REMARK    2  A    between atoms: C_5  and  S_8
REMARK    3  A    between atoms: S_8  and  N_11
REMARK    4  A    between atoms: N_11  and  C_12
REMARK    5  A    between atoms: C_17  and  C_18
REMARK    6  A    between atoms: C_18  and  N_20
REMARK    7  A    between atoms: N_22  and  C_31
REMARK    8  A    between atoms: C_26  and  C_30
REMARK    9  A    between atoms: C_31  and  C_32
REMARK   10  A    between atoms: C_32  and  O_34
REMARK   11  A    between atoms: O_34  and  C_35
REMARK                            x       y       z     vdW  Elec       q    Type
REMARK                         _______ _______ _______ _____ _____    ______ ____
ROOT
ATOM      1  C   UNL     1       3.483  10.321  -1.202  0.00  0.00    +0.060 A 
ATOM      2  C   UNL     1       4.495  11.208  -1.548  0.00  0.00    +0.025 A 
ATOM      3  C   UNL     1       5.755  10.734  -1.851  0.00  0.00    +0.002 A 
ATOM      4  C   UNL     1       6.022   9.375  -1.807  0.00  0.00    +0.001 A 
ATOM      5  C   UNL     1       5.032   8.482  -1.461  0.00  0.00    +0.015 A 
ATOM      6  C   UNL     1       3.752   8.946  -1.152  0.00  0.00    +0.061 A 
ENDROOT
BRANCH   1   7
ATOM      7  N   UNL     1       2.211  10.795  -0.902  0.00  0.00    -0.216 N 
ATOM      8  H   UNL     1       1.683  10.364  -0.212  0.00  0.00    +0.174 HD
BRANCH   7   9
ATOM      9  S   UNL     1       1.598  12.097  -1.721  0.00  0.00    +0.072 S 
ATOM     10  O   UNL     1       0.248  12.241  -1.302  0.00  0.00    -0.150 OA
ATOM     11  O   UNL     1       2.551  13.143  -1.594  0.00  0.00    -0.150 OA
BRANCH   9  16
ATOM     12  C   UNL     1       1.438  10.611  -7.567  0.00  0.00    +0.044 C 
ATOM     13  C   UNL     1       1.478  10.982  -6.107  0.00  0.00    -0.050 A 
ATOM     14  C   UNL     1       0.389  10.719  -5.297  0.00  0.00    +0.005 A 
ATOM     15  C   UNL     1       0.426  11.059  -3.958  0.00  0.00    +0.029 A 
ATOM     16  C   UNL     1       1.551  11.662  -3.428  0.00  0.00    +0.109 A 
ATOM     17  C   UNL     1       2.638  11.931  -4.240  0.00  0.00    +0.029 A 
ATOM     18  C   UNL     1       2.603  11.586  -5.578  0.00  0.00    +0.005 A 
ENDBRANCH   9  16
ENDBRANCH   7   9
ENDBRANCH   1   7
BRANCH   6  19
ATOM     19  C   UNL     1       2.686   7.993  -0.780  0.00  0.00    +0.271 C 
ATOM     20  O   UNL     1       1.569   8.402  -0.510  0.00  0.00    -0.268 OA
BRANCH  19  21
ATOM     21  N   UNL     1       2.946   6.681  -0.738  0.00  0.00    -0.152 NA
ATOM     22  C   UNL     1       1.987   5.824  -0.404  0.00  0.00    +0.167 A 
ATOM     23  N   UNL     1       2.062   4.469  -0.309  0.00  0.00    -0.310 N 
ATOM     24  C   UNL     1       0.948   3.737   0.057  0.00  0.00    +0.058 A 
ATOM     25  C   UNL     1       0.830   2.347   0.207  0.00  0.00    +0.027 A 
ATOM     26  C   UNL     1      -0.365   1.779   0.582  0.00  0.00    +0.005 A 
ATOM     27  C   UNL     1      -1.487   2.556   0.816  0.00  0.00    -0.049 A 
ATOM     28  C   UNL     1      -1.398   3.930   0.680  0.00  0.00    +0.020 A 
ATOM     29  C   UNL     1      -0.203   4.499   0.306  0.00  0.00    +0.039 A 
ATOM     30  S   UNL     1       0.340   6.164   0.017  0.00  0.00    -0.052 S 
ATOM     31  C   UNL     1      -2.789   1.913   1.219  0.00  0.00    +0.044 C 
BRANCH  23  32
ATOM     32  C   UNL     1       3.325   3.784  -0.595  0.00  0.00    +0.244 C 
BRANCH  32  33
ATOM     33  C   UNL     1       3.952   4.380  -1.829  0.00  0.00    +0.327 C 
ATOM     34  O   UNL     1       3.335   5.178  -2.495  0.00  0.00    -0.249 OA
BRANCH  33  35
ATOM     35  O   UNL     1       5.195   4.025  -2.190  0.00  0.00    -0.467 OA
ATOM     36  C   UNL     1       5.735   4.639  -3.390  0.00  0.00    +0.280 C 
ENDBRANCH  33  35
ENDBRANCH  32  33
ENDBRANCH  23  32
ENDBRANCH  19  21
ENDBRANCH   6  19
TORSDOF 8
