REMARK  Name = ZINC02542784
REMARK  10 active torsions:
REMARK  status: ('A' for Active; 'I' for Inactive)
REMARK    1  A    between atoms: C_1  and  C_2
REMARK    2  A    between atoms: C_5  and  C_8
REMARK    3  A    between atoms: N_10  and  C_11
REMARK    4  A    between atoms: C_11  and  C_12
REMARK    5  A    between atoms: N_14  and  N_15
REMARK    6  A    between atoms: C_16  and  C_17
REMARK    7  A    between atoms: C_22  and  O_23
REMARK    8  A    between atoms: O_23  and  C_24
REMARK    9  A    between atoms: C_24  and  C_26
REMARK   10  A    between atoms: C_30  and  C_32
REMARK                            x       y       z     vdW  Elec       q    Type
REMARK                         _______ _______ _______ _____ _____    ______ ____
ROOT
ATOM      1  N   UNL     1       3.692   6.038  -0.003  0.00  0.00    -0.188 NA
ATOM      2  C   UNL     1       3.687   7.334  -0.081  0.00  0.00    +0.142 C 
ENDROOT
BRANCH   2   3
ATOM      3  C   UNL     1       2.414   8.072   0.002  0.00  0.00    +0.038 A 
ATOM      4  C   UNL     1       2.409   9.468  -0.029  0.00  0.00    +0.028 A 
ATOM      5  C   UNL     1       1.214  10.153   0.050  0.00  0.00    +0.019 A 
ATOM      6  C   UNL     1       0.019   9.461   0.159  0.00  0.00    +0.019 A 
ATOM      7  C   UNL     1       0.011   8.079   0.184  0.00  0.00    +0.048 A 
ATOM      8  C   UNL     1       1.202   7.376   0.112  0.00  0.00    +0.141 A 
ATOM      9 BR   UNL     1       1.207  12.044   0.008  0.00  0.00    -0.050 Br
BRANCH   8  10
ATOM     10  O   UNL     1       1.196   6.019   0.142  0.00  0.00    -0.422 OA
BRANCH  10  11
ATOM     11  C   UNL     1       1.348   5.433   1.346  0.00  0.00    +0.344 C 
ATOM     12  O   UNL     1       1.574   6.112   2.328  0.00  0.00    -0.245 OA
BRANCH  11  13
ATOM     13  C   UNL     1       1.241   3.965   1.473  0.00  0.00    +0.060 A 
ATOM     14  C   UNL     1       0.890   3.190   0.366  0.00  0.00    +0.015 A 
ATOM     15  C   UNL     1       0.791   1.820   0.491  0.00  0.00    +0.001 A 
ATOM     16  C   UNL     1       1.039   1.213   1.710  0.00  0.00    +0.003 A 
ATOM     17  C   UNL     1       1.383   1.976   2.812  0.00  0.00    -0.050 A 
ATOM     18  C   UNL     1       1.491   3.347   2.699  0.00  0.00    +0.018 A 
ATOM     19  C   UNL     1       1.645   1.308   4.136  0.00  0.00    +0.044 C 
ENDBRANCH  11  13
ENDBRANCH  10  11
ENDBRANCH   8  10
ENDBRANCH   2   3
BRANCH   1  22
ATOM     20  C   UNL     1       4.915   3.995   0.029  0.00  0.00    +0.249 C 
ATOM     21  O   UNL     1       3.875   3.384  -0.104  0.00  0.00    -0.272 OA
ATOM     22  N   UNL     1       4.908   5.343   0.034  0.00  0.00    -0.206 N 
ATOM     23  H   UNL     1       5.745   5.832   0.063  0.00  0.00    +0.177 HD
BRANCH  20  24
ATOM     24  C   UNL     1       6.213   3.248   0.189  0.00  0.00    +0.202 C 
BRANCH  24  27
ATOM     25  C   UNL     1       6.975   0.935   0.276  0.00  0.00    +0.244 C 
ATOM     26  O   UNL     1       8.110   1.345   0.420  0.00  0.00    -0.270 OA
ATOM     27  N   UNL     1       5.955   1.806   0.151  0.00  0.00    -0.303 N 
ATOM     28  H   UNL     1       5.049   1.479   0.036  0.00  0.00    +0.150 HD
BRANCH  25  33
ATOM     29  C   UNL     1       5.959  -4.728   0.127  0.00  0.00    +0.044 C 
ATOM     30  C   UNL     1       6.225  -3.245   0.166  0.00  0.00    -0.050 A 
ATOM     31  C   UNL     1       7.518  -2.781   0.329  0.00  0.00    +0.004 A 
ATOM     32  C   UNL     1       7.769  -1.425   0.366  0.00  0.00    +0.013 A 
ATOM     33  C   UNL     1       6.714  -0.520   0.237  0.00  0.00    +0.037 A 
ATOM     34  C   UNL     1       5.411  -0.994   0.077  0.00  0.00    +0.013 A 
ATOM     35  C   UNL     1       5.175  -2.353   0.037  0.00  0.00    +0.004 A 
ENDBRANCH  25  33
ENDBRANCH  24  27
ENDBRANCH  20  24
ENDBRANCH   1  22
TORSDOF 8
