REMARK  Name = ZINC37560569
REMARK  9 active torsions:
REMARK  status: ('A' for Active; 'I' for Inactive)
REMARK    1  A    between atoms: C_1  and  C_2
REMARK    2  A    between atoms: C_5  and  N_8
REMARK    3  A    between atoms: N_8  and  C_9
REMARK    4  A    between atoms: N_8  and  S_25
REMARK    5  A    between atoms: N_12  and  C_15
REMARK    6  A    between atoms: C_15  and  C_16
REMARK    7  A    between atoms: C_20  and  N_22
REMARK    8  A    between atoms: S_25  and  C_28
REMARK    9  A    between atoms: C_33  and  C_34
REMARK                            x       y       z     vdW  Elec       q    Type
REMARK                         _______ _______ _______ _____ _____    ______ ____
ROOT
ATOM      1  N   UNL     1       0.046  -4.172  -0.107  0.00  0.00    -0.200 N 
ENDROOT
BRANCH   1   6
ATOM      2  C   UNL     1      -0.627   1.455  -0.317  0.00  0.00    +0.044 C 
ATOM      3  C   UNL     1      -0.448  -0.040  -0.261  0.00  0.00    -0.050 A 
ATOM      4  C   UNL     1       0.816  -0.588  -0.373  0.00  0.00    +0.005 A 
ATOM      5  C   UNL     1       0.984  -1.958  -0.322  0.00  0.00    +0.025 A 
ATOM      6  C   UNL     1      -0.120  -2.786  -0.158  0.00  0.00    +0.052 A 
ATOM      7  C   UNL     1      -1.389  -2.232  -0.047  0.00  0.00    +0.025 A 
ATOM      8  C   UNL     1      -1.549  -0.861  -0.093  0.00  0.00    +0.005 A 
ENDBRANCH   1   6
BRANCH   1   9
ATOM      9  C   UNL     1       0.778  -4.781   1.006  0.00  0.00    +0.095 C 
ATOM     10  C   UNL     1       2.175  -4.160   1.101  0.00  0.00    +0.006 C 
ATOM     11  C   UNL     1       2.905  -4.743   2.312  0.00  0.00    -0.077 C 
ATOM     12  N   UNL     1       2.150  -4.442   3.535  0.00  0.00    +0.382 N 
ATOM     13  C   UNL     1       0.836  -5.095   3.482  0.00  0.00    -0.077 C 
ATOM     14  C   UNL     1       0.026  -4.525   2.315  0.00  0.00    +0.006 C 
ATOM     15  H   UNL     1       2.026  -3.444   3.615  0.00  0.00    -0.081 HD
BRANCH  12  16
ATOM     16  C   UNL     1       2.893  -4.936   4.702  0.00  0.00    -0.043 C 
BRANCH  16  17
ATOM     17  C   UNL     1       2.181  -4.521   5.963  0.00  0.00    -0.062 A 
ATOM     18  C   UNL     1       2.486  -3.313   6.563  0.00  0.00    +0.002 A 
ATOM     19  C   UNL     1       1.833  -2.932   7.720  0.00  0.00    +0.002 A 
ATOM     20  C   UNL     1       0.875  -3.759   8.277  0.00  0.00    +0.033 A 
ATOM     21  C   UNL     1       0.570  -4.965   7.677  0.00  0.00    +0.126 A 
ATOM     22  C   UNL     1       1.220  -5.345   6.517  0.00  0.00    +0.034 A 
BRANCH  21  23
ATOM     23  N   UNL     1      -0.456  -5.851   8.274  0.00  0.00    +0.056 N 
ATOM     24  O   UNL     1      -1.026  -5.518   9.286  0.00  0.00    -0.126 OA
ATOM     25  O   UNL     1      -0.723  -6.906   7.749  0.00  0.00    -0.126 OA
ENDBRANCH  21  23
ENDBRANCH  16  17
ENDBRANCH  12  16
ENDBRANCH   1   9
BRANCH   1  26
ATOM     26  S   UNL     1      -0.586  -5.126  -1.304  0.00  0.00    +0.075 S 
ATOM     27  O   UNL     1      -0.930  -6.364  -0.697  0.00  0.00    -0.150 OA
ATOM     28  O   UNL     1      -1.534  -4.329  -2.001  0.00  0.00    -0.150 OA
BRANCH  26  29
ATOM     29  C   UNL     1       0.717  -5.467  -2.440  0.00  0.00    +0.112 A 
ATOM     30  C   UNL     1       1.204  -6.755  -2.567  0.00  0.00    +0.029 A 
ATOM     31  C   UNL     1       2.226  -7.022  -3.458  0.00  0.00    +0.002 A 
ATOM     32  C   UNL     1       2.761  -6.002  -4.223  0.00  0.00    +0.000 A 
ATOM     33  C   UNL     1       2.273  -4.715  -4.097  0.00  0.00    +0.005 A 
ATOM     34  C   UNL     1       1.248  -4.448  -3.209  0.00  0.00    -0.024 A 
ATOM     35  C   UNL     1       0.713  -3.046  -3.075  0.00  0.00    +0.046 C 
ENDBRANCH  26  29
ENDBRANCH   1  26
TORSDOF 7
