REMARK  Name = ZINC05409274
REMARK  6 active torsions:
REMARK  status: ('A' for Active; 'I' for Inactive)
REMARK    1  A    between atoms: C_4  and  C_7
REMARK    2  A    between atoms: C_7  and  C_8
REMARK    3  A    between atoms: C_8  and  C_9
REMARK    4  A    between atoms: C_12  and  C_23
REMARK    5  A    between atoms: C_18  and  N_22
REMARK    6  A    between atoms: C_19  and  C_20
REMARK                            x       y       z     vdW  Elec       q    Type
REMARK                         _______ _______ _______ _____ _____    ______ ____
ROOT
ATOM      1  C   UNL     1       5.507  -1.710   1.381  0.00  0.00    +0.072 C 
ATOM      2  C   UNL     1       6.018  -1.871   2.789  0.00  0.00    +0.050 A 
ATOM      3  C   UNL     1       6.556  -0.909   3.650  0.00  0.00    +0.100 A 
ATOM      4  N   UNL     1       6.866  -1.508   4.785  0.00  0.00    -0.171 NA
ATOM      5  N   UNL     1       6.533  -2.867   4.673  0.00  0.00    -0.246 N 
ATOM      6  H   UNL     1       6.653  -3.542   5.359  0.00  0.00    +0.192 HD
ATOM      7  C   UNL     1       6.016  -3.069   3.443  0.00  0.00    +0.222 A 
ATOM      8  O   UNL     1       5.556  -4.212   2.875  0.00  0.00    -0.423 OA
ATOM      9  C   UNL     1       5.347  -4.207   1.543  0.00  0.00    +0.200 C 
ATOM     10  C   UNL     1       5.313  -3.084   0.790  0.00  0.00    +0.094 C 
ENDROOT
BRANCH   3  11
ATOM     11  C   UNL     1       6.745   0.530   3.343  0.00  0.00    +0.003 A 
ATOM     12  C   UNL     1       7.086   0.924   2.038  0.00  0.00    +0.011 A 
ATOM     13  C   UNL     1       7.265   2.235   1.731  0.00  0.00    +0.009 A 
ATOM     14  C   UNL     1       7.109   3.218   2.725  0.00  0.00    -0.018 A 
ATOM     15  C   UNL     1       7.287   4.580   2.432  0.00  0.00    +0.008 A 
ATOM     16  C   UNL     1       7.128   5.508   3.415  0.00  0.00    +0.001 A 
ATOM     17  C   UNL     1       6.790   5.128   4.713  0.00  0.00    +0.001 A 
ATOM     18  C   UNL     1       6.609   3.818   5.034  0.00  0.00    +0.008 A 
ATOM     19  C   UNL     1       6.764   2.831   4.045  0.00  0.00    -0.017 A 
ATOM     20  C   UNL     1       6.579   1.472   4.340  0.00  0.00    +0.018 A 
ENDBRANCH   3  11
BRANCH   9  21
ATOM     21  N   UNL     1       5.157  -5.413   0.914  0.00  0.00    -0.328 N 
ATOM     22  H   UNL     1       5.175  -6.236   1.428  0.00  0.00    +0.145 HD
ATOM     23  H   UNL     1       5.004  -5.441  -0.043  0.00  0.00    +0.145 HD
ENDBRANCH   9  21
BRANCH  10  24
ATOM     24  C   UNL     1       5.087  -3.204  -0.619  0.00  0.00    +0.100 C 
ATOM     25  N   UNL     1       4.907  -3.298  -1.737  0.00  0.00    -0.191 NA
ENDBRANCH  10  24
BRANCH   1  26
ATOM     26  C   UNL     1       4.171  -0.963   1.399  0.00  0.00    +0.018 C 
BRANCH  26  27
ATOM     27  C   UNL     1       3.711  -0.707  -0.038  0.00  0.00    +0.036 C 
BRANCH  27  31
ATOM     28  C   UNL     1      -0.017   1.378   0.010  0.00  0.00    +0.000 A 
ATOM     29  C   UNL     1       1.171   2.086   0.002  0.00  0.00    +0.000 A 
ATOM     30  C   UNL     1       2.377   1.411  -0.013  0.00  0.00    +0.003 A 
ATOM     31  C   UNL     1       2.396   0.029  -0.020  0.00  0.00    -0.047 A 
ATOM     32  C   UNL     1       1.208  -0.679  -0.012  0.00  0.00    +0.003 A 
ATOM     33  C   UNL     1       0.002  -0.004   0.002  0.00  0.00    +0.000 A 
ENDBRANCH  27  31
ENDBRANCH  26  27
ENDBRANCH   1  26
TORSDOF 6
