REMARK  Name = ZINC64605336
REMARK  11 active torsions:
REMARK  status: ('A' for Active; 'I' for Inactive)
REMARK    1  A    between atoms: C_1  and  C_2
REMARK    2  A    between atoms: C_5  and  C_8
REMARK    3  A    between atoms: C_10  and  N_27
REMARK    4  A    between atoms: N_13  and  C_15
REMARK    5  A    between atoms: C_15  and  C_16
REMARK    6  A    between atoms: N_18  and  C_19
REMARK    7  A    between atoms: C_23  and  C_26
REMARK    8  A    between atoms: C_24  and  C_25
REMARK    9  A    between atoms: C_28  and  C_30
REMARK   10  A    between atoms: C_30  and  C_31
REMARK   11  A    between atoms: C_30  and  C_32
REMARK                            x       y       z     vdW  Elec       q    Type
REMARK                         _______ _______ _______ _____ _____    ______ ____
ROOT
ATOM      1  C   UNL     1       0.063  -4.312  -0.139  0.00  0.00    +0.093 A 
ATOM      2  C   UNL     1       0.133  -4.884   1.148  0.00  0.00    +0.059 A 
ATOM      3  C   UNL     1       0.158  -6.242   1.283  0.00  0.00    +0.102 A 
ATOM      4  C   UNL     1       0.113  -7.053   0.121  0.00  0.00    +0.289 A 
ATOM      5  O   UNL     1       0.133  -8.269   0.220  0.00  0.00    -0.264 OA
ATOM      6  N   UNL     1       0.046  -6.471  -1.093  0.00  0.00    -0.218 N 
ATOM      7  N   UNL     1       0.016  -5.076  -1.207  0.00  0.00    -0.168 NA
ENDROOT
BRANCH   1  12
ATOM      8  C   UNL     1      -0.043   1.417  -0.719  0.00  0.00    +0.044 C 
ATOM      9  C   UNL     1      -0.015  -0.082  -0.567  0.00  0.00    -0.050 A 
ATOM     10  C   UNL     1      -0.064  -0.889  -1.689  0.00  0.00    +0.004 A 
ATOM     11  C   UNL     1      -0.038  -2.263  -1.556  0.00  0.00    +0.010 A 
ATOM     12  C   UNL     1       0.036  -2.836  -0.288  0.00  0.00    +0.002 A 
ATOM     13  C   UNL     1       0.085  -2.018   0.839  0.00  0.00    +0.010 A 
ATOM     14  C   UNL     1       0.065  -0.646   0.694  0.00  0.00    +0.004 A 
ENDBRANCH   1  12
BRANCH   3  15
ATOM     15  N   UNL     1       0.227  -6.825   2.550  0.00  0.00    -0.281 N 
ATOM     16  C   UNL     1      -0.749  -7.657   2.964  0.00  0.00    +0.220 C 
ATOM     17  O   UNL     1      -1.733  -7.826   2.276  0.00  0.00    -0.275 OA
ATOM     18  H   UNL     1       0.979  -6.632   3.133  0.00  0.00    +0.155 HD
BRANCH  16  19
ATOM     19  C   UNL     1      -0.618  -8.377   4.281  0.00  0.00    +0.069 C 
ATOM     20  C   UNL     1      -0.501  -7.353   5.412  0.00  0.00    +0.017 C 
ATOM     21  C   UNL     1      -1.853  -9.251   4.510  0.00  0.00    +0.017 C 
ENDBRANCH  16  19
ENDBRANCH   3  15
BRANCH   6  22
ATOM     22  C   UNL     1      -0.001  -7.302  -2.298  0.00  0.00    +0.243 C 
BRANCH  22  23
ATOM     23  C   UNL     1      -1.436  -7.606  -2.643  0.00  0.00    +0.239 C 
ATOM     24  O   UNL     1      -2.332  -7.171  -1.950  0.00  0.00    -0.273 OA
ATOM     25  N   UNL     1      -1.725  -8.361  -3.721  0.00  0.00    -0.284 N 
ATOM     26  H   UNL     1      -1.009  -8.756  -4.243  0.00  0.00    +0.155 HD
BRANCH  25  27
ATOM     27  C   UNL     1      -3.058  -8.575  -4.089  0.00  0.00    +0.037 A 
ATOM     28  C   UNL     1      -4.064  -8.499  -3.135  0.00  0.00    +0.023 A 
ATOM     29  C   UNL     1      -5.379  -8.710  -3.501  0.00  0.00    +0.002 A 
ATOM     30  C   UNL     1      -5.694  -8.999  -4.816  0.00  0.00    +0.004 A 
ATOM     31  C   UNL     1      -4.695  -9.077  -5.769  0.00  0.00    -0.046 A 
ATOM     32  C   UNL     1      -3.378  -8.859  -5.410  0.00  0.00    -0.026 A 
ATOM     33  C   UNL     1      -2.291  -8.937  -6.450  0.00  0.00    +0.046 C 
ATOM     34  C   UNL     1      -5.043  -9.392  -7.200  0.00  0.00    +0.044 C 
ENDBRANCH  25  27
ENDBRANCH  22  23
ENDBRANCH   6  22
TORSDOF 6
