REMARK  Name = ZINC63614445
REMARK  9 active torsions:
REMARK  status: ('A' for Active; 'I' for Inactive)
REMARK    1  A    between atoms: C_1  and  C_2
REMARK    2  A    between atoms: C_5  and  C_18
REMARK    3  A    between atoms: C_7  and  C_17
REMARK    4  A    between atoms: N_9  and  C_10
REMARK    5  A    between atoms: C_19  and  C_20
REMARK    6  A    between atoms: C_19  and  C_22
REMARK    7  A    between atoms: N_24  and  C_25
REMARK    8  A    between atoms: C_25  and  C_26
REMARK    9  A    between atoms: C_26  and  C_27
REMARK                            x       y       z     vdW  Elec       q    Type
REMARK                         _______ _______ _______ _____ _____    ______ ____
ROOT
ATOM      1  C   UNL     1       2.726  -1.871  -1.750  0.00  0.00    +0.002 C 
ATOM      2  C   UNL     1       3.846  -1.607  -2.450  0.00  0.00    +0.110 C 
ENDROOT
BRANCH   1   6
ATOM      3  C   UNL     1       0.014   1.540   0.013  0.00  0.00    +0.028 C 
ATOM      4  C   UNL     1       0.013   0.011   0.001  0.00  0.00    +0.071 C 
ATOM      5  C   UNL     1       0.656  -0.504  -1.304  0.00  0.00    +0.031 C 
ATOM      6  C   UNL     1       2.116  -0.806  -0.876  0.00  0.00    +0.035 C 
ATOM      7  C   UNL     1       1.916  -1.323   0.571  0.00  0.00    +0.078 C 
ATOM      8  N   UNL     1       0.819  -0.499   1.120  0.00  0.00    -0.324 N 
ATOM      9  C   UNL     1       1.518  -2.800   0.559  0.00  0.00    +0.028 C 
BRANCH   8  10
ATOM     10  C   UNL     1       0.586  -0.245   2.473  0.00  0.00    +0.032 A 
ATOM     11  C   UNL     1       1.495  -0.680   3.430  0.00  0.00    +0.023 A 
ATOM     12  C   UNL     1       1.263  -0.427   4.767  0.00  0.00    +0.003 A 
ATOM     13  C   UNL     1       0.127   0.259   5.156  0.00  0.00    +0.020 A 
ATOM     14  C   UNL     1      -0.781   0.695   4.206  0.00  0.00    +0.043 A 
ATOM     15  C   UNL     1      -0.551   0.449   2.865  0.00  0.00    +0.043 A 
ATOM     16 CL   UNL     1      -2.206   1.555   4.699  0.00  0.00    -0.083 Cl
ENDBRANCH   8  10
ENDBRANCH   1   6
BRANCH   2  17
ATOM     17  C   UNL     1       4.444  -2.651  -3.308  0.00  0.00    +0.254 C 
ATOM     18  O   UNL     1       3.926  -3.748  -3.382  0.00  0.00    -0.269 OA
ATOM     19  N   UNL     1       5.565  -2.387  -4.009  0.00  0.00    -0.310 N 
ATOM     20  H   UNL     1       5.979  -1.512  -3.950  0.00  0.00    +0.149 HD
BRANCH  19  21
ATOM     21  C   UNL     1       6.158  -3.422  -4.859  0.00  0.00    +0.109 C 
BRANCH  21  22
ATOM     22  C   UNL     1       7.412  -2.868  -5.537  0.00  0.00    +0.052 C 
BRANCH  22  23
ATOM     23  C   UNL     1       8.023  -3.933  -6.412  0.00  0.00    -0.040 C 
ATOM     24  C   UNL     1       7.826  -4.106  -7.739  0.00  0.00    -0.001 A 
ATOM     25  C   UNL     1       7.016  -3.383  -8.727  0.00  0.00    +0.010 A 
ATOM     26  C   UNL     1       7.022  -3.803 -10.013  0.00  0.00    +0.001 A 
ATOM     27  C   UNL     1       7.779  -4.908 -10.424  0.00  0.00    +0.002 A 
ATOM     28  C   UNL     1       8.548  -5.622  -9.575  0.00  0.00    +0.026 A 
ATOM     29  C   UNL     1       8.617  -5.269  -8.199  0.00  0.00    +0.043 A 
ATOM     30  N   UNL     1       9.277  -5.795  -7.196  0.00  0.00    -0.380 N 
ATOM     31  C   UNL     1       8.983  -5.020  -5.985  0.00  0.00    +0.144 C 
ATOM     32  H   UNL     1       9.864  -6.565  -7.246  0.00  0.00    +0.160 HD
ENDBRANCH  22  23
ENDBRANCH  21  22
ENDBRANCH  19  21
ENDBRANCH   2  17
BRANCH   2  33
ATOM     33  C   UNL     1       4.457  -0.315  -2.364  0.00  0.00    +0.104 C 
ATOM     34  N   UNL     1       4.941   0.710  -2.295  0.00  0.00    -0.191 NA
ENDBRANCH   2  33
TORSDOF 7
