REMARK  Name = ZINC66812383
REMARK  4 active torsions:
REMARK  status: ('A' for Active; 'I' for Inactive)
REMARK    1  A    between atoms: C_8  and  O_22
REMARK    2  A    between atoms: C_10  and  N_12
REMARK    3  A    between atoms: N_12  and  C_13
REMARK    4  A    between atoms: C_18  and  N_19
REMARK                            x       y       z     vdW  Elec       q    Type
REMARK                         _______ _______ _______ _____ _____    ______ ____
ROOT
ATOM      1  C   UNL     1      -0.015   1.287   0.056  0.00  0.00    +0.000 A 
ATOM      2  C   UNL     1       1.163   2.009   0.040  0.00  0.00    +0.000 A 
ATOM      3  C   UNL     1       2.376   1.349   0.016  0.00  0.00    +0.006 A 
ATOM      4  C   UNL     1       2.416  -0.035   0.007  0.00  0.00    -0.022 A 
ATOM      5  C   UNL     1       1.238  -0.758   0.023  0.00  0.00    -0.040 A 
ATOM      6  C   UNL     1       0.022  -0.094   0.047  0.00  0.00    +0.004 A 
ATOM      7  C   UNL     1       1.546  -2.240   0.008  0.00  0.00    +0.069 C 
ATOM      8  C   UNL     1       3.014  -2.343  -0.458  0.00  0.00    +0.143 C 
ATOM      9  C   UNL     1       3.596  -0.983  -0.018  0.00  0.00    +0.130 C 
ENDROOT
BRANCH   9  10
ATOM     10  N   UNL     1       4.597  -0.522  -0.985  0.00  0.00    -0.333 N 
ATOM     11  H   UNL     1       4.584  -0.860  -1.894  0.00  0.00    +0.147 HD
BRANCH  10  12
ATOM     12  C   UNL     1       5.565   0.400  -0.599  0.00  0.00    +0.061 A 
ATOM     13  C   UNL     1       5.540   0.973   0.673  0.00  0.00    +0.045 A 
ATOM     14  C   UNL     1       6.518   1.882   1.017  0.00  0.00    +0.112 A 
ATOM     15  N   UNL     1       7.467   2.211   0.161  0.00  0.00    -0.261 NA
ATOM     16  C   UNL     1       7.525   1.691  -1.051  0.00  0.00    +0.145 A 
ATOM     17  C   UNL     1       6.588   0.770  -1.470  0.00  0.00    +0.165 A 
BRANCH  17  18
ATOM     18  N   UNL     1       6.664   0.188  -2.829  0.00  0.00    +0.060 N 
ATOM     19  O   UNL     1       7.609   0.437  -3.541  0.00  0.00    -0.126 OA
ATOM     20  O   UNL     1       5.782  -0.537  -3.226  0.00  0.00    -0.126 OA
ENDBRANCH  17  18
ENDBRANCH  10  12
ENDBRANCH   9  10
BRANCH   8  21
ATOM     21  O   UNL     1       3.087  -2.497  -1.876  0.00  0.00    -0.389 OA
ATOM     22  H   UNL     1       2.658  -3.298  -2.208  0.00  0.00    +0.210 HD
ENDBRANCH   8  21
TORSDOF 4
