REMARK  Name = ZINC14095887
REMARK  9 active torsions:
REMARK  status: ('A' for Active; 'I' for Inactive)
REMARK    1  A    between atoms: C_1  and  N_2
REMARK    2  A    between atoms: N_2  and  C_3
REMARK    3  A    between atoms: N_2  and  C_4
REMARK    4  A    between atoms: C_7  and  S_24
REMARK    5  A    between atoms: C_9  and  N_10
REMARK    6  A    between atoms: C_11  and  C_13
REMARK    7  A    between atoms: C_13  and  N_64
REMARK    8  A    between atoms: C_17  and  C_19
REMARK    9  A    between atoms: S_24  and  N_27
REMARK                            x       y       z     vdW  Elec       q    Type
REMARK                         _______ _______ _______ _____ _____    ______ ____
ROOT
ATOM      1  C   UNL     1      -3.677   1.370  -3.784  0.00  0.00    +0.051 A 
ATOM      2  C   UNL     1      -4.713   1.891  -4.546  0.00  0.00    +0.027 A 
ATOM      3  C   UNL     1      -5.561   2.838  -4.004  0.00  0.00    +0.030 A 
ATOM      4  C   UNL     1      -5.381   3.269  -2.702  0.00  0.00    +0.107 A 
ATOM      5  C   UNL     1      -4.355   2.751  -1.934  0.00  0.00    +0.053 A 
ATOM      6  C   UNL     1      -3.496   1.805  -2.472  0.00  0.00    +0.056 A 
ENDROOT
BRANCH   6   7
ATOM      7  N   UNL     1      -2.451   1.283  -1.696  0.00  0.00    -0.285 N 
ATOM      8  C   UNL     1      -1.924   2.015  -0.695  0.00  0.00    +0.201 C 
ATOM      9  O   UNL     1      -2.403   3.094  -0.416  0.00  0.00    -0.278 OA
ATOM     10  H   UNL     1      -2.108   0.395  -1.880  0.00  0.00    +0.155 HD
BRANCH   8  11
ATOM     11  C   UNL     1      -0.740   1.494   0.077  0.00  0.00    +0.020 C 
BRANCH  11  16
ATOM     12  C   UNL     1       0.348   3.622   0.507  0.00  0.00    -0.077 C 
ATOM     13  C   UNL     1       1.381   4.054   1.578  0.00  0.00    -0.020 C 
ATOM     14  C   UNL     1       1.822   2.685   2.158  0.00  0.00    -0.012 C 
ATOM     15  C   UNL     1       0.521   1.855   2.118  0.00  0.00    -0.030 C 
ATOM     16  N   UNL     1      -0.361   2.484   1.119  0.00  0.00    +0.390 N 
ATOM     17  H   UNL     1      -1.212   2.824   1.582  0.00  0.00    -0.080 HD
BRANCH  15  18
ATOM     18  C   UNL     1       0.829   0.431   1.731  0.00  0.00    -0.024 A 
ATOM     19  C   UNL     1       0.604  -0.710   2.427  0.00  0.00    +0.009 A 
ATOM     20  C   UNL     1       0.970  -1.920   1.867  0.00  0.00    +0.008 A 
ATOM     21  C   UNL     1       1.554  -1.928   0.644  0.00  0.00    +0.045 A 
ATOM     22  S   UNL     1       1.594  -0.189   0.242  0.00  0.00    -0.103 S 
ENDBRANCH  15  18
ENDBRANCH  11  16
ENDBRANCH   8  11
ENDBRANCH   6   7
BRANCH   1  24
ATOM     23  C   UNL     1      -3.560  -0.788  -4.742  0.00  0.00    +0.129 C 
ATOM     24  N   UNL     1      -2.817   0.412  -4.331  0.00  0.00    -0.335 N 
ATOM     25  C   UNL     1      -2.054   0.969  -5.455  0.00  0.00    +0.129 C 
ENDBRANCH   1  24
BRANCH   4  26
ATOM     26  S   UNL     1      -6.467   4.476  -2.018  0.00  0.00    +0.061 S 
ATOM     27  O   UNL     1      -5.756   5.112  -0.965  0.00  0.00    -0.153 OA
ATOM     28  O   UNL     1      -7.013   5.198  -3.114  0.00  0.00    -0.153 OA
BRANCH  26  29
ATOM     29  N   UNL     1      -7.726   3.661  -1.315  0.00  0.00    -0.177 NA
ATOM     30  C   UNL     1      -8.935   3.341  -2.086  0.00  0.00    +0.109 C 
ATOM     31  C   UNL     1      -9.200   1.832  -1.975  0.00  0.00    +0.017 C 
ATOM     32  C   UNL     1      -9.276   1.441  -0.498  0.00  0.00    +0.003 C 
ATOM     33  C   UNL     1      -7.939   1.745   0.181  0.00  0.00    +0.017 C 
ATOM     34  C   UNL     1      -7.656   3.248   0.093  0.00  0.00    +0.109 C 
ENDBRANCH  26  29
ENDBRANCH   4  26
TORSDOF 7
