REMARK  Name = ZINC37931015
REMARK  4 active torsions:
REMARK  status: ('A' for Active; 'I' for Inactive)
REMARK    1  A    between atoms: C_1  and  C_2
REMARK    2  A    between atoms: N_8  and  C_9
REMARK    3  A    between atoms: C_12  and  C_16
REMARK    4  A    between atoms: C_14  and  N_15
REMARK                            x       y       z     vdW  Elec       q    Type
REMARK                         _______ _______ _______ _____ _____    ______ ____
ROOT
ATOM      1  C   UNL     1       1.091   0.369   2.212  0.00  0.00    +0.051 A 
ATOM      2  C   UNL     1       0.227   0.587   3.280  0.00  0.00    +0.026 A 
ATOM      3  C   UNL     1       0.586   1.442   4.297  0.00  0.00    +0.017 A 
ATOM      4  C   UNL     1       1.823   2.095   4.259  0.00  0.00    +0.065 A 
ATOM      5  C   UNL     1       2.695   1.877   3.186  0.00  0.00    +0.039 A 
ATOM      6  C   UNL     1       2.332   1.013   2.171  0.00  0.00    +0.047 A 
ENDROOT
BRANCH   1  13
ATOM      7  C   UNL     1      -0.019   1.526   0.010  0.00  0.00    +0.030 C 
ATOM      8  C   UNL     1       0.002  -0.004   0.002  0.00  0.00    +0.096 C 
ATOM      9  C   UNL     1       0.730  -0.504  -1.251  0.00  0.00    +0.182 C 
ATOM     10  O   UNL     1       0.908  -1.919  -1.159  0.00  0.00    -0.376 OA
ATOM     11  C   UNL     1       1.723  -2.337  -0.061  0.00  0.00    +0.178 C 
ATOM     12  C   UNL     1       1.046  -1.931   1.253  0.00  0.00    +0.133 C 
ATOM     13  N   UNL     1       0.724  -0.496   1.186  0.00  0.00    -0.321 N 
ENDBRANCH   1  13
BRANCH   6  14
ATOM     14  N   UNL     1       3.203   0.788   1.098  0.00  0.00    -0.357 N 
ATOM     15  H   UNL     1       2.946   0.185   0.383  0.00  0.00    +0.142 HD
ATOM     16  H   UNL     1       4.063   1.235   1.069  0.00  0.00    +0.142 HD
ENDBRANCH   6  14
BRANCH   4  17
ATOM     17  C   UNL     1       2.207   3.010   5.346  0.00  0.00    +0.387 C 
ATOM     18  O   UNL     1       1.444   3.200   6.284  0.00  0.00    -0.241 OA
ATOM     19  O   UNL     1       3.289   3.580   5.312  0.00  0.00    -0.241 OA
ENDBRANCH   4  17
TORSDOF 3
