REMARK  Name = ZINC60792252
REMARK  5 active torsions:
REMARK  status: ('A' for Active; 'I' for Inactive)
REMARK    1  A    between atoms: C_3  and  O_25
REMARK    2  A    between atoms: C_6  and  C_7
REMARK    3  A    between atoms: N_9  and  N_10
REMARK    4  A    between atoms: C_11  and  C_13
REMARK    5  A    between atoms: C_13  and  C_14
REMARK                            x       y       z     vdW  Elec       q    Type
REMARK                         _______ _______ _______ _____ _____    ______ ____
ROOT
ATOM      1  N   UNL     1      -2.447  -2.828   0.011  0.00  0.00    -0.234 N 
ATOM      2  C   UNL     1      -2.427  -4.175   0.004  0.00  0.00    +0.230 C 
ATOM      3  O   UNL     1      -1.368  -4.766  -0.010  0.00  0.00    -0.274 OA
ATOM      4  H   UNL     1      -3.294  -2.355   0.022  0.00  0.00    +0.173 HD
ENDROOT
BRANCH   1   7
ATOM      5  C   UNL     1      -1.265  -0.761   0.011  0.00  0.00    +0.260 C 
ATOM      6  O   UNL     1      -2.327  -0.169   0.024  0.00  0.00    -0.269 OA
ATOM      7  N   UNL     1      -1.245  -2.109   0.003  0.00  0.00    -0.230 N 
ATOM      8  H   UNL     1      -0.398  -2.581  -0.008  0.00  0.00    +0.173 HD
BRANCH   5  14
ATOM      9  C   UNL     1      -0.017   1.393   0.010  0.00  0.00    +0.017 A 
ATOM     10  C   UNL     1       1.167   2.096   0.002  0.00  0.00    +0.047 A 
ATOM     11  C   UNL     1       2.380   1.419  -0.013  0.00  0.00    +0.135 A 
ATOM     12  C   UNL     1       2.404   0.028  -0.021  0.00  0.00    +0.083 A 
ATOM     13  C   UNL     1       1.224  -0.683  -0.014  0.00  0.00    +0.036 A 
ATOM     14  C   UNL     1       0.002  -0.004   0.002  0.00  0.00    +0.040 A 
ATOM     15 CL   UNL     1       3.922  -0.813  -0.041  0.00  0.00    -0.080 Cl
BRANCH  11  16
ATOM     16  O   UNL     1       3.545   2.116  -0.020  0.00  0.00    -0.505 OA
ATOM     17  H   UNL     1       3.891   2.313   0.861  0.00  0.00    +0.292 HD
ENDBRANCH  11  16
ENDBRANCH   5  14
ENDBRANCH   1   7
BRANCH   2  18
ATOM     18  C   UNL     1      -3.721  -4.948   0.013  0.00  0.00    +0.104 C 
BRANCH  18  19
ATOM     19  C   UNL     1      -3.418  -6.448   0.001  0.00  0.00    -0.020 C 
ATOM     20  C   UNL     1      -2.623  -6.799  -1.258  0.00  0.00    +0.011 C 
ATOM     21  C   UNL     1      -2.321  -8.299  -1.269  0.00  0.00    -0.010 C 
ATOM     22  C   UNL     1      -3.634  -9.084  -1.260  0.00  0.00    +0.007 C 
ATOM     23  C   UNL     1      -4.430  -8.733  -0.001  0.00  0.00    -0.010 C 
ATOM     24  C   UNL     1      -4.732  -7.233   0.010  0.00  0.00    +0.011 C 
ATOM     25  C   UNL     1      -3.610  -9.097   1.238  0.00  0.00    +0.007 C 
ATOM     26  C   UNL     1      -2.296  -8.312   1.230  0.00  0.00    -0.010 C 
ATOM     27  C   UNL     1      -1.501  -8.663  -0.029  0.00  0.00    +0.007 C 
ATOM     28  C   UNL     1      -2.598  -6.812   1.241  0.00  0.00    +0.011 C 
ENDBRANCH  18  19
ENDBRANCH   2  18
TORSDOF 5
