REMARK  Name = ZINC02697021
REMARK  7 active torsions:
REMARK  status: ('A' for Active; 'I' for Inactive)
REMARK    1  A    between atoms: C_1  and  C_2
REMARK    2  A    between atoms: C_4  and  O_20
REMARK    3  A    between atoms: C_5  and  S_9
REMARK    4  A    between atoms: C_7  and  C_8
REMARK    5  A    between atoms: S_9  and  N_12
REMARK    6  A    between atoms: N_12  and  C_13
REMARK    7  A    between atoms: O_20  and  C_21
REMARK                            x       y       z     vdW  Elec       q    Type
REMARK                         _______ _______ _______ _____ _____    ______ ____
ROOT
ATOM      1  S   UNL     1      -1.467   2.101   0.047  0.00  0.00    +0.062 S 
ATOM      2  O   UNL     1      -2.199   1.212   0.879  0.00  0.00    -0.153 OA
ATOM      3  O   UNL     1      -1.273   3.469   0.380  0.00  0.00    -0.153 OA
ENDROOT
BRANCH   1   8
ATOM      4  C   UNL     1       4.031  -0.293  -0.651  0.00  0.00    +0.044 C 
ATOM      5  C   UNL     1       2.658   0.301  -0.476  0.00  0.00    -0.044 A 
ATOM      6  C   UNL     1       1.536  -0.481  -0.676  0.00  0.00    +0.051 A 
ATOM      7  C   UNL     1       0.272   0.067  -0.515  0.00  0.00    +0.147 A 
ATOM      8  C   UNL     1       0.137   1.400  -0.152  0.00  0.00    +0.147 A 
ATOM      9  C   UNL     1       1.261   2.177   0.048  0.00  0.00    +0.036 A 
ATOM     10  C   UNL     1       2.521   1.629  -0.114  0.00  0.00    -0.045 A 
ATOM     11  C   UNL     1       3.745   2.479   0.104  0.00  0.00    +0.044 C 
BRANCH   7  12
ATOM     12  O   UNL     1      -0.832  -0.700  -0.712  0.00  0.00    -0.493 OA
ATOM     13  C   UNL     1      -0.620  -2.088  -0.976  0.00  0.00    +0.277 C 
ENDBRANCH   7  12
ENDBRANCH   1   8
BRANCH   1  14
ATOM     14  N   UNL     1      -2.201   2.074  -1.437  0.00  0.00    -0.187 NA
ATOM     15  H   UNL     1      -2.992   1.530  -1.577  0.00  0.00    +0.148 HD
BRANCH  14  16
ATOM     16  C   UNL     1      -1.655   2.871  -2.539  0.00  0.00    +0.077 C 
ATOM     17  C   UNL     1      -2.379   4.232  -2.577  0.00  0.00    +0.020 C 
ATOM     18  C   UNL     1      -1.514   5.212  -3.325  0.00  0.00    +0.002 C 
ATOM     19  C   UNL     1      -1.883   5.299  -4.818  0.00  0.00    +0.000 C 
ATOM     20  C   UNL     1      -2.173   3.921  -5.444  0.00  0.00    +0.000 C 
ATOM     21  C   UNL     1      -1.201   2.867  -4.989  0.00  0.00    +0.002 C 
ATOM     22  C   UNL     1      -1.811   2.127  -3.780  0.00  0.00    +0.020 C 
ENDBRANCH  14  16
ENDBRANCH   1  14
TORSDOF 4
