REMARK  Name = ZINC22621239
REMARK  8 active torsions:
REMARK  status: ('A' for Active; 'I' for Inactive)
REMARK    1  A    between atoms: C_6  and  N_7
REMARK    2  A    between atoms: N_13  and  C_14
REMARK    3  A    between atoms: C_14  and  C_15
REMARK    4  A    between atoms: C_15  and  C_16
REMARK    5  A    between atoms: C_16  and  C_17
REMARK    6  A    between atoms: N_19  and  C_20
REMARK    7  A    between atoms: C_20  and  C_21
REMARK    8  A    between atoms: C_21  and  N_27
REMARK                            x       y       z     vdW  Elec       q    Type
REMARK                         _______ _______ _______ _____ _____    ______ ____
ROOT
ATOM      1  C   UNL     1      -2.708   8.021  -5.728  0.00  0.00    +0.213 C 
ATOM      2  O   UNL     1      -3.187   6.938  -5.467  0.00  0.00    -0.276 OA
ATOM      3  N   UNL     1      -3.321   9.147  -5.310  0.00  0.00    -0.317 N 
ATOM      4  H   UNL     1      -2.887  10.130  -5.546  0.00  0.00    +0.149 HD
ENDROOT
BRANCH   1   5
ATOM      5  C   UNL     1      -1.429   8.109  -6.520  0.00  0.00    +0.097 C 
BRANCH   5   6
ATOM      6  C   UNL     1      -0.947   6.699  -6.867  0.00  0.00    +0.031 C 
BRANCH   6   7
ATOM      7  C   UNL     1       0.352   6.788  -7.672  0.00  0.00    +0.129 C 
BRANCH   7  17
ATOM      8  C   UNL     1      -0.454   4.033 -11.244  0.00  0.00    +0.035 A 
ATOM      9  C   UNL     1      -0.317   4.980 -10.247  0.00  0.00    +0.032 A 
ATOM     10  C   UNL     1       0.480   4.711  -9.146  0.00  0.00    +0.090 A 
ATOM     11  C   UNL     1       1.137   3.484  -9.043  0.00  0.00    +0.159 A 
ATOM     12  C   UNL     1       0.998   2.543 -10.050  0.00  0.00    +0.081 A 
ATOM     13  C   UNL     1       0.202   2.819 -11.146  0.00  0.00    +0.130 A 
ATOM     14  O   UNL     1       1.839   3.500  -7.883  0.00  0.00    -0.407 OA
ATOM     15  C   UNL     1       1.639   4.673  -7.262  0.00  0.00    +0.421 A 
ATOM     16  O   UNL     1       2.126   4.995  -6.196  0.00  0.00    -0.223 OA
ATOM     17  N   UNL     1       0.814   5.439  -8.004  0.00  0.00    -0.274 N 
BRANCH  13  18
ATOM     18  N   UNL     1       0.050   1.810 -12.218  0.00  0.00    +0.057 N 
ATOM     19  O   UNL     1       0.626   0.740 -12.134  0.00  0.00    -0.126 OA
ATOM     20  O   UNL     1      -0.652   2.050 -13.185  0.00  0.00    -0.126 OA
ENDBRANCH  13  18
ENDBRANCH   7  17
ENDBRANCH   6   7
ENDBRANCH   5   6
ENDBRANCH   1   5
BRANCH   3  21
ATOM     21  C   UNL     1      -4.564   9.062  -4.539  0.00  0.00    +0.092 C 
BRANCH  21  22
ATOM     22  C   UNL     1      -5.096  10.471  -4.272  0.00  0.00    -0.050 C 
ATOM     23  C   UNL     1      -6.318  10.389  -3.355  0.00  0.00    -0.010 C 
ATOM     24  C   UNL     1      -7.407   9.553  -4.030  0.00  0.00    -0.001 C 
ATOM     25  C   UNL     1      -7.806  10.207  -5.354  0.00  0.00    -0.000 C 
ATOM     26  C   UNL     1      -6.583  10.289  -6.271  0.00  0.00    -0.001 C 
ATOM     27  C   UNL     1      -5.495  11.125  -5.596  0.00  0.00    -0.010 C 
BRANCH  22  28
ATOM     28  N   UNL     1      -4.050  11.274  -3.624  0.00  0.00    +0.384 N 
ATOM     29  C   UNL     1      -3.592  10.638  -2.382  0.00  0.00    -0.078 C 
ATOM     30  C   UNL     1      -2.408  11.423  -1.813  0.00  0.00    -0.019 C 
ATOM     31  C   UNL     1      -2.842  12.866  -1.540  0.00  0.00    -0.004 C 
ATOM     32  C   UNL     1      -3.360  13.489  -2.839  0.00  0.00    -0.019 C 
ATOM     33  C   UNL     1      -4.516  12.645  -3.378  0.00  0.00    -0.078 C 
ATOM     34  H   UNL     1      -3.191  11.330  -4.309  0.00  0.00    -0.081 HD
ENDBRANCH  22  28
ENDBRANCH  21  22
ENDBRANCH   3  21
TORSDOF 8
