REMARK  Name = ZINC44028948
REMARK  17 active torsions:
REMARK  status: ('A' for Active; 'I' for Inactive)
REMARK    1  A    between atoms: C_1  and  C_2
REMARK    2  A    between atoms: C_2  and  N_3
REMARK    3  A    between atoms: N_3  and  C_4
REMARK    4  A    between atoms: N_3  and  C_6
REMARK    5  A    between atoms: C_4  and  C_5
REMARK    6  A    between atoms: C_6  and  C_7
REMARK    7  A    between atoms: C_7  and  S_8
REMARK    8  A    between atoms: S_8  and  C_9
REMARK    9  A    between atoms: C_9  and  C_10
REMARK   10  A    between atoms: C_10  and  O_12
REMARK   11  A    between atoms: O_12  and  C_13
REMARK   12  A    between atoms: C_16  and  C_37
REMARK   13  A    between atoms: C_16  and  C_38
REMARK   14  A    between atoms: C_17  and  O_36
REMARK   15  A    between atoms: C_19  and  C_35
REMARK   16  A    between atoms: C_24  and  C_34
REMARK   17  A    between atoms: C_26  and  C_33
REMARK                            x       y       z     vdW  Elec       q    Type
REMARK                         _______ _______ _______ _____ _____    ______ ____
ROOT
ATOM      1  C   UNL     1       2.139  -8.801   4.803  0.00  0.00    +0.184 C 
ATOM      2  C   UNL     1       1.240  -9.802   5.533  0.00  0.00    +0.058 C 
ATOM      3  C   UNL     1       0.797 -10.976   4.623  0.00  0.00    +0.015 C 
ATOM      4  C   UNL     1       1.983 -11.788   4.242  0.00  0.00    +0.128 C 
ATOM      5  C   UNL     1       2.995 -11.100   3.368  0.00  0.00    +0.022 C 
ATOM      6  C   UNL     1       4.374 -11.205   4.001  0.00  0.00    -0.014 C 
ATOM      7  C   UNL     1       5.415 -10.575   3.091  0.00  0.00    +0.008 C 
ATOM      8  C   UNL     1       4.864  -9.223   2.627  0.00  0.00    +0.004 C 
ATOM      9  C   UNL     1       4.364  -8.325   3.743  0.00  0.00    -0.004 C 
ATOM     10  C   UNL     1       3.627  -9.035   4.885  0.00  0.00    +0.018 C 
ATOM     11  C   UNL     1       4.322 -10.275   5.261  0.00  0.00    +0.071 C 
ATOM     12  C   UNL     1       3.875 -11.144   6.386  0.00  0.00    +0.138 C 
ATOM     13  O   UNL     1       3.285 -10.830   7.392  0.00  0.00    -0.297 OA
ATOM     14  C   UNL     1       4.354 -12.551   6.051  0.00  0.00    +0.075 C 
ATOM     15  C   UNL     1       4.691 -12.581   4.544  0.00  0.00    +0.015 C 
ATOM     16  C   UNL     1       4.010  -8.099   6.050  0.00  0.00    +0.016 C 
ATOM     17  C   UNL     1       5.537  -7.529   4.324  0.00  0.00    +0.008 C 
ATOM     18  C   UNL     1       3.010 -11.833   2.006  0.00  0.00    +0.011 C 
ATOM     19  C   UNL     1       0.053 -10.475   3.386  0.00  0.00    +0.018 C 
ENDROOT
BRANCH   4  20
ATOM     20  O   UNL     1       1.503 -12.942   3.533  0.00  0.00    -0.391 OA
ATOM     21  H   UNL     1       0.906 -13.500   4.049  0.00  0.00    +0.210 HD
ENDBRANCH   4  20
BRANCH   3  22
ATOM     22  C   UNL     1      -0.147 -11.867   5.411  0.00  0.00    -0.025 C 
ATOM     23  C   UNL     1      -0.449 -11.568   6.650  0.00  0.00    +0.004 C 
ENDBRANCH   3  22
BRANCH   1  24
ATOM     24  O   UNL     1       1.890  -7.503   5.382  0.00  0.00    -0.460 OA
BRANCH  24  25
ATOM     25  C   UNL     1       0.897  -6.776   4.846  0.00  0.00    +0.317 C 
ATOM     26  O   UNL     1       0.259  -7.216   3.919  0.00  0.00    -0.250 OA
BRANCH  25  27
ATOM     27  C   UNL     1       0.580  -5.410   5.399  0.00  0.00    +0.189 C 
BRANCH  27  28
ATOM     28  S   UNL     1      -0.800  -4.688   4.468  0.00  0.00    -0.151 S 
BRANCH  28  29
ATOM     29  C   UNL     1      -1.054  -3.069   5.247  0.00  0.00    +0.051 C 
BRANCH  29  30
ATOM     30  C   UNL     1      -2.206  -2.343   4.550  0.00  0.00    -0.068 C 
BRANCH  30  31
ATOM     31  N   UNL     1      -2.492  -1.087   5.256  0.00  0.00    +0.380 N 
ATOM     32  H   UNL     1      -2.669  -1.282   6.230  0.00  0.00    -0.082 HD
BRANCH  31  34
ATOM     33  C   UNL     1      -1.585   1.071   5.977  0.00  0.00    -0.017 C 
ATOM     34  C   UNL     1      -1.338  -0.185   5.138  0.00  0.00    -0.082 C 
ENDBRANCH  31  34
BRANCH  31  35
ATOM     35  C   UNL     1      -3.674  -0.449   4.662  0.00  0.00    -0.082 C 
ATOM     36  C   UNL     1      -4.905  -1.323   4.912  0.00  0.00    -0.017 C 
ENDBRANCH  31  35
ENDBRANCH  30  31
ENDBRANCH  29  30
ENDBRANCH  28  29
ENDBRANCH  27  28
ENDBRANCH  25  27
ENDBRANCH  24  25
ENDBRANCH   1  24
TORSDOF 11
