REMARK  Name = ZINC10450664
REMARK  11 active torsions:
REMARK  status: ('A' for Active; 'I' for Inactive)
REMARK    1  A    between atoms: C_1  and  C_2
REMARK    2  A    between atoms: C_2  and  C_3
REMARK    3  A    between atoms: C_3  and  C_4
REMARK    4  A    between atoms: N_6  and  C_7
REMARK    5  A    between atoms: C_10  and  C_13
REMARK    6  A    between atoms: N_15  and  N_16
REMARK    7  A    between atoms: N_16  and  C_17
REMARK    8  A    between atoms: C_17  and  N_19
REMARK    9  A    between atoms: C_20  and  C_22
REMARK   10  A    between atoms: C_23  and  C_24
REMARK   11  A    between atoms: C_28  and  N_30
REMARK                            x       y       z     vdW  Elec       q    Type
REMARK                         _______ _______ _______ _____ _____    ______ ____
ROOT
ATOM      1  N   UNL     1      -3.649  10.128   0.057  0.00  0.00    -0.245 N 
ATOM      2  H   UNL     1      -3.666  11.098   0.054  0.00  0.00    +0.172 HD
ENDROOT
BRANCH   1   5
ATOM      3  C   UNL     1      -6.028  10.061   0.081  0.00  0.00    +0.260 C 
ATOM      4  O   UNL     1      -6.049  11.276   0.079  0.00  0.00    -0.269 OA
ATOM      5  N   UNL     1      -4.850   9.407   0.071  0.00  0.00    -0.231 N 
ATOM      6  H   UNL     1      -4.833   8.437   0.073  0.00  0.00    +0.173 HD
BRANCH   3  10
ATOM      7  C   UNL     1      -9.669   7.874   0.125  0.00  0.00    +0.033 A 
ATOM      8  C   UNL     1      -9.695   9.265   0.122  0.00  0.00    +0.024 A 
ATOM      9  C   UNL     1      -8.517   9.977   0.107  0.00  0.00    +0.015 A 
ATOM     10  C   UNL     1      -7.294   9.301   0.097  0.00  0.00    +0.038 A 
ATOM     11  C   UNL     1      -7.271   7.903   0.094  0.00  0.00    +0.015 A 
ATOM     12  C   UNL     1      -8.453   7.198   0.115  0.00  0.00    +0.024 A 
BRANCH   7  15
ATOM     13  C   UNL     1     -11.926   7.629   0.821  0.00  0.00    +0.217 C 
ATOM     14  O   UNL     1     -11.870   8.718   1.353  0.00  0.00    -0.275 OA
ATOM     15  N   UNL     1     -10.864   7.156   0.139  0.00  0.00    -0.285 N 
ATOM     16  H   UNL     1     -10.931   6.316  -0.341  0.00  0.00    +0.155 HD
BRANCH  13  17
ATOM     17  C   UNL     1     -13.184   6.805   0.923  0.00  0.00    +0.096 C 
BRANCH  17  19
ATOM     18  C   UNL     1     -15.504   6.730   1.847  0.00  0.00    +0.004 C 
ATOM     19  C   UNL     1     -14.227   7.566   1.744  0.00  0.00    +0.006 C 
ENDBRANCH  17  19
ENDBRANCH  13  17
ENDBRANCH   7  15
ENDBRANCH   3  10
ENDBRANCH   1   5
BRANCH   1  20
ATOM     20  C   UNL     1      -2.470   9.475   0.046  0.00  0.00    +0.153 C 
ATOM     21  S   UNL     1      -1.003  10.356   0.028  0.00  0.00    -0.017 S 
BRANCH  20  22
ATOM     22  N   UNL     1      -2.447   8.127   0.049  0.00  0.00    -0.263 N 
ATOM     23  C   UNL     1      -1.268   7.473   0.039  0.00  0.00    +0.242 C 
ATOM     24  O   UNL     1      -0.225   8.100   0.026  0.00  0.00    -0.270 OA
ATOM     25  H   UNL     1      -3.278   7.628   0.059  0.00  0.00    +0.157 HD
BRANCH  23  26
ATOM     26  C   UNL     1      -1.243   6.010   0.042  0.00  0.00    +0.068 C 
ATOM     27  C   UNL     1      -0.064   5.356   0.032  0.00  0.00    +0.013 C 
BRANCH  27  28
ATOM     28  C   UNL     1      -0.038   3.885   0.035  0.00  0.00    -0.023 A 
ATOM     29  C   UNL     1      -1.235   3.161   0.050  0.00  0.00    +0.008 A 
ATOM     30  C   UNL     1      -1.203   1.783   0.048  0.00  0.00    +0.003 A 
ATOM     31  C   UNL     1       0.010   1.115   0.043  0.00  0.00    +0.033 A 
ATOM     32  C   UNL     1       1.198   1.824   0.028  0.00  0.00    +0.127 A 
ATOM     33  C   UNL     1       1.183   3.203   0.024  0.00  0.00    +0.040 A 
BRANCH  32  34
ATOM     34  N   UNL     1       2.489   1.100   0.017  0.00  0.00    +0.056 N 
ATOM     35  O   UNL     1       2.505  -0.118   0.021  0.00  0.00    -0.126 OA
ATOM     36  O   UNL     1       3.536   1.722   0.004  0.00  0.00    -0.126 OA
ENDBRANCH  32  34
ENDBRANCH  27  28
ENDBRANCH  23  26
ENDBRANCH  20  22
ENDBRANCH   1  20
TORSDOF 10
