REMARK  Name = ZINC21263249
REMARK  14 active torsions:
REMARK  status: ('A' for Active; 'I' for Inactive)
REMARK    1  A    between atoms: C_1  and  C_2
REMARK    2  A    between atoms: C_2  and  C_31
REMARK    3  A    between atoms: C_4  and  N_10
REMARK    4  A    between atoms: C_6  and  C_8
REMARK    5  A    between atoms: C_6  and  C_9
REMARK    6  A    between atoms: N_10  and  C_11
REMARK    7  A    between atoms: C_11  and  N_13
REMARK    8  A    between atoms: N_13  and  C_14
REMARK    9  A    between atoms: N_13  and  C_21
REMARK   10  A    between atoms: C_14  and  C_15
REMARK   11  A    between atoms: C_21  and  C_22
REMARK   12  A    between atoms: C_25  and  N_28
REMARK   13  A    between atoms: N_28  and  C_29
REMARK   14  A    between atoms: N_28  and  C_30
REMARK                            x       y       z     vdW  Elec       q    Type
REMARK                         _______ _______ _______ _____ _____    ______ ____
ROOT
ATOM      1  N   UNL     1       0.110   7.068  -2.373  0.00  0.00    -0.304 N 
ENDROOT
BRANCH   1   2
ATOM      2  C   UNL     1       0.116   5.721  -2.334  0.00  0.00    +0.134 C 
ATOM      3  S   UNL     1      -0.229   4.822  -3.749  0.00  0.00    -0.019 S 
BRANCH   2   4
ATOM      4  N   UNL     1       0.395   5.081  -1.181  0.00  0.00    -0.324 N 
ATOM      5  H   UNL     1       0.617   5.659  -0.271  0.00  0.00    +0.148 HD
BRANCH   4   9
ATOM      6  C   UNL     1      -0.942   0.995  -2.192  0.00  0.00    -0.010 C 
ATOM      7  C   UNL     1      -1.036   1.587  -0.780  0.00  0.00    -0.072 C 
ATOM      8  C   UNL     1      -1.015   3.111  -0.865  0.00  0.00    +0.009 C 
ATOM      9  C   UNL     1       0.402   3.614  -1.138  0.00  0.00    +0.069 C 
ATOM     10  C   UNL     1       1.307   3.149   0.004  0.00  0.00    +0.009 C 
ATOM     11  C   UNL     1       1.329   1.622   0.062  0.00  0.00    -0.072 C 
ATOM     12  N   UNL     1      -0.003   1.050   0.082  0.00  0.00    +0.386 N 
ATOM     13  C   UNL     1       2.046   1.216   1.369  0.00  0.00    -0.010 C 
ATOM     14  C   UNL     1       2.157   1.072  -1.103  0.00  0.00    -0.010 C 
ATOM     15  C   UNL     1      -2.408   1.173  -0.203  0.00  0.00    -0.010 C 
ATOM     16  H   UNL     1      -0.317   1.145   1.132  0.00  0.00    -0.084 HD
ATOM     17  H   UNL     1       0.160  -0.011  -0.157  0.00  0.00    -0.084 HD
ENDBRANCH   4   9
ENDBRANCH   2   4
ENDBRANCH   1   2
BRANCH   1  18
ATOM     18  C   UNL     1       0.406   7.837  -1.162  0.00  0.00    +0.142 C 
BRANCH  18  19
ATOM     19  C   UNL     1       1.888   8.098  -1.082  0.00  0.00    -0.030 A 
ATOM     20  C   UNL     1       2.713   7.202  -0.428  0.00  0.00    +0.005 A 
ATOM     21  C   UNL     1       4.073   7.438  -0.360  0.00  0.00    +0.000 A 
ATOM     22  C   UNL     1       4.607   8.577  -0.934  0.00  0.00    +0.000 A 
ATOM     23  C   UNL     1       3.781   9.476  -1.583  0.00  0.00    +0.000 A 
ATOM     24  C   UNL     1       2.421   9.236  -1.656  0.00  0.00    +0.005 A 
ENDBRANCH  18  19
ENDBRANCH   1  18
BRANCH   1  25
ATOM     25  C   UNL     1      -0.193   7.763  -3.626  0.00  0.00    +0.142 C 
BRANCH  25  26
ATOM     26  C   UNL     1      -1.678   8.004  -3.721  0.00  0.00    -0.030 A 
ATOM     27  C   UNL     1      -2.493   7.062  -4.321  0.00  0.00    +0.007 A 
ATOM     28  C   UNL     1      -3.854   7.278  -4.405  0.00  0.00    +0.023 A 
ATOM     29  C   UNL     1      -4.403   8.447  -3.895  0.00  0.00    +0.029 A 
ATOM     30  C   UNL     1      -3.581   9.394  -3.297  0.00  0.00    +0.023 A 
ATOM     31  C   UNL     1      -2.221   9.170  -3.212  0.00  0.00    +0.007 A 
BRANCH  29  32
ATOM     32  N   UNL     1      -5.779   8.671  -3.982  0.00  0.00    -0.336 N 
ATOM     33  C   UNL     1      -6.374   9.843  -3.334  0.00  0.00    +0.129 C 
ATOM     34  C   UNL     1      -6.628   7.733  -4.721  0.00  0.00    +0.129 C 
ENDBRANCH  29  32
ENDBRANCH  25  26
ENDBRANCH   1  25
TORSDOF 8
