REMARK  Name = ZINC61824057
REMARK  3 active torsions:
REMARK  status: ('A' for Active; 'I' for Inactive)
REMARK    1  A    between atoms: C_3  and  N_11
REMARK    2  A    between atoms: C_4  and  C_8
REMARK    3  A    between atoms: C_6  and  N_7
REMARK                            x       y       z     vdW  Elec       q    Type
REMARK                         _______ _______ _______ _____ _____    ______ ____
ROOT
ATOM      1  C   UNL     1       0.087   1.544  -0.027  0.00  0.00    +0.024 A 
ATOM      2  C   UNL     1       1.358   2.085  -0.099  0.00  0.00    +0.024 A 
ATOM      3  C   UNL     1       2.465   1.262  -0.079  0.00  0.00    +0.028 A 
ATOM      4  C   UNL     1       2.304  -0.123   0.015  0.00  0.00    +0.084 A 
ATOM      5  C   UNL     1       1.021  -0.668   0.088  0.00  0.00    +0.039 A 
ATOM      6  C   UNL     1      -0.084   0.168   0.067  0.00  0.00    +0.025 A 
ENDROOT
BRANCH   3   7
ATOM      7  N   UNL     1       3.747   1.814  -0.152  0.00  0.00    -0.393 NA
ATOM      8  C   UNL     1       3.909   2.501  -1.439  0.00  0.00    +0.085 C 
ATOM      9  C   UNL     1       5.337   3.037  -1.559  0.00  0.00    +0.024 C 
ATOM     10  C   UNL     1       5.605   4.019  -0.416  0.00  0.00    -0.026 C 
ATOM     11  C   UNL     1       7.056   4.500  -0.483  0.00  0.00    +0.007 C 
ATOM     12  C   UNL     1       7.322   5.479   0.662  0.00  0.00    +0.001 C 
ATOM     13  C   UNL     1       6.379   6.678   0.538  0.00  0.00    +0.000 C 
ATOM     14  C   UNL     1       4.928   6.196   0.606  0.00  0.00    +0.001 C 
ATOM     15  C   UNL     1       4.662   5.217  -0.539  0.00  0.00    +0.007 C 
ATOM     16  C   UNL     1       5.362   3.313   0.921  0.00  0.00    +0.024 C 
ATOM     17  C   UNL     1       3.932   2.767   0.949  0.00  0.00    +0.085 C 
ATOM     18  H   UNL     1       4.434   1.078  -0.078  0.00  0.00    +0.126 HD
ENDBRANCH   3   7
BRANCH   6  19
ATOM     19  N   UNL     1      -1.371  -0.372   0.139  0.00  0.00    -0.358 N 
ATOM     20  H   UNL     1      -2.144   0.213   0.124  0.00  0.00    +0.142 HD
ATOM     21  H   UNL     1      -1.490  -1.333   0.204  0.00  0.00    +0.142 HD
ENDBRANCH   6  19
BRANCH   4  22
ATOM     22  C   UNL     1       3.487  -1.006   0.036  0.00  0.00    +0.388 C 
ATOM     23  O   UNL     1       3.606  -1.888  -0.802  0.00  0.00    -0.241 OA
ATOM     24  O   UNL     1       4.347  -0.855   0.893  0.00  0.00    -0.241 OA
ENDBRANCH   4  22
TORSDOF 3
