REMARK  Name = ZINC35559863
REMARK  7 active torsions:
REMARK  status: ('A' for Active; 'I' for Inactive)
REMARK    1  A    between atoms: C_1  and  C_2
REMARK    2  A    between atoms: C_6  and  N_8
REMARK    3  A    between atoms: C_9  and  C_15
REMARK    4  A    between atoms: C_18  and  N_21
REMARK    5  A    between atoms: N_21  and  S_22
REMARK    6  A    between atoms: S_22  and  C_25
REMARK    7  A    between atoms: C_26  and  C_27
REMARK                            x       y       z     vdW  Elec       q    Type
REMARK                         _______ _______ _______ _____ _____    ______ ____
ROOT
ATOM      1  C   UNL     1      -0.803  -4.661   1.185  0.00  0.00    -0.017 A 
ATOM      2  C   UNL     1      -1.826  -3.778   0.894  0.00  0.00    +0.008 A 
ATOM      3  C   UNL     1      -2.924  -4.205   0.173  0.00  0.00    +0.025 A 
ATOM      4  C   UNL     1      -2.999  -5.523  -0.259  0.00  0.00    +0.048 A 
ATOM      5  C   UNL     1      -1.969  -6.407   0.035  0.00  0.00    +0.025 A 
ATOM      6  C   UNL     1      -0.872  -5.972   0.752  0.00  0.00    +0.008 A 
ENDROOT
BRANCH   1   8
ATOM      7  N   UNL     1       0.654  -2.759   1.736  0.00  0.00    -0.254 N 
ATOM      8  C   UNL     1       0.394  -4.192   1.972  0.00  0.00    +0.170 C 
ATOM      9  S   UNL     1       0.043  -4.202   3.783  0.00  0.00    -0.124 S 
ATOM     10  C   UNL     1       0.848  -2.585   4.159  0.00  0.00    +0.167 C 
ATOM     11  C   UNL     1       0.884  -1.963   2.772  0.00  0.00    +0.231 C 
ATOM     12  O   UNL     1       1.111  -0.781   2.619  0.00  0.00    -0.274 OA
BRANCH   7  18
ATOM     13  C   UNL     1      -1.198   0.330  -1.611  0.00  0.00    +0.044 C 
ATOM     14  C   UNL     1      -0.223  -0.749  -1.215  0.00  0.00    -0.049 A 
ATOM     15  C   UNL     1       0.684  -1.234  -2.141  0.00  0.00    +0.003 A 
ATOM     16  C   UNL     1       1.580  -2.223  -1.782  0.00  0.00    +0.002 A 
ATOM     17  C   UNL     1       1.573  -2.731  -0.497  0.00  0.00    +0.023 A 
ATOM     18  C   UNL     1       0.664  -2.246   0.434  0.00  0.00    +0.038 A 
ATOM     19  C   UNL     1      -0.232  -1.249   0.072  0.00  0.00    +0.027 A 
ENDBRANCH   7  18
ENDBRANCH   1   8
BRANCH   4  20
ATOM     20  N   UNL     1      -4.109  -5.959  -0.988  0.00  0.00    -0.217 N 
ATOM     21  H   UNL     1      -4.775  -6.523  -0.566  0.00  0.00    +0.174 HD
BRANCH  20  22
ATOM     22  S   UNL     1      -4.286  -5.511  -2.573  0.00  0.00    +0.066 S 
ATOM     23  O   UNL     1      -5.457  -6.160  -3.049  0.00  0.00    -0.151 OA
ATOM     24  O   UNL     1      -4.125  -4.100  -2.617  0.00  0.00    -0.151 OA
BRANCH  22  25
ATOM     25  C   UNL     1      -2.930  -6.201  -3.463  0.00  0.00    +0.157 C 
ATOM     26  C   UNL     1      -3.147  -7.122  -4.391  0.00  0.00    +0.028 C 
BRANCH  26  27
ATOM     27  C   UNL     1      -2.010  -7.700  -5.138  0.00  0.00    -0.024 A 
ATOM     28  C   UNL     1      -0.707  -7.282  -4.864  0.00  0.00    +0.008 A 
ATOM     29  C   UNL     1       0.350  -7.826  -5.565  0.00  0.00    +0.001 A 
ATOM     30  C   UNL     1       0.120  -8.783  -6.538  0.00  0.00    +0.000 A 
ATOM     31  C   UNL     1      -1.169  -9.201  -6.814  0.00  0.00    +0.001 A 
ATOM     32  C   UNL     1      -2.235  -8.670  -6.116  0.00  0.00    +0.008 A 
ENDBRANCH  26  27
ENDBRANCH  22  25
ENDBRANCH  20  22
ENDBRANCH   4  20
TORSDOF 6
