REMARK  Name = ZINC12246596
REMARK  10 active torsions:
REMARK  status: ('A' for Active; 'I' for Inactive)
REMARK    1  A    between atoms: C_1  and  C_2
REMARK    2  A    between atoms: C_9  and  C_20
REMARK    3  A    between atoms: N_11  and  C_12
REMARK    4  A    between atoms: N_11  and  C_13
REMARK    5  A    between atoms: C_13  and  C_14
REMARK    6  A    between atoms: C_20  and  N_21
REMARK    7  A    between atoms: N_21  and  C_22
REMARK    8  A    between atoms: C_22  and  C_23
REMARK    9  A    between atoms: C_29  and  C_31
REMARK   10  A    between atoms: C_32  and  C_36
REMARK                            x       y       z     vdW  Elec       q    Type
REMARK                         _______ _______ _______ _____ _____    ______ ____
ROOT
ATOM      1  C   UNL     1      -7.501   9.223   1.685  0.00  0.00    +0.044 C 
ATOM      2  C   UNL     1      -6.586   8.527   2.659  0.00  0.00    -0.050 A 
ATOM      3  C   UNL     1      -6.601   8.898   4.002  0.00  0.00    +0.005 A 
ATOM      4  C   UNL     1      -5.788   8.290   4.908  0.00  0.00    +0.026 A 
ATOM      5  C   UNL     1      -4.916   7.270   4.488  0.00  0.00    +0.048 A 
ATOM      6  C   UNL     1      -4.902   6.894   3.123  0.00  0.00    -0.001 A 
ATOM      7  C   UNL     1      -5.755   7.543   2.216  0.00  0.00    +0.013 A 
ATOM      8  C   UNL     1      -4.029   5.871   2.701  0.00  0.00    +0.018 A 
ATOM      9  C   UNL     1      -3.228   5.282   3.633  0.00  0.00    +0.008 A 
ATOM     10  C   UNL     1      -3.292   5.695   4.971  0.00  0.00    +0.104 A 
ATOM     11  N   UNL     1      -2.475   5.082   5.909  0.00  0.00    -0.314 N 
ATOM     12  C   UNL     1      -1.078   5.507   5.748  0.00  0.00    +0.131 C 
ATOM     13  N   UNL     1      -4.108   6.676   5.432  0.00  0.00    -0.343 N 
ATOM     14  H   UNL     1      -4.122   6.957   6.419  0.00  0.00    +0.167 HD
ENDROOT
BRANCH  11  15
ATOM     15  C   UNL     1      -2.951   5.344   7.274  0.00  0.00    +0.160 C 
BRANCH  15  16
ATOM     16  C   UNL     1      -2.197   4.473   8.245  0.00  0.00    +0.053 A 
ATOM     17  C   UNL     1      -1.094   4.827   8.944  0.00  0.00    +0.045 A 
ATOM     18  C   UNL     1      -0.711   3.733   9.727  0.00  0.00    +0.134 A 
ATOM     19  N   UNL     1      -1.553   2.757   9.505  0.00  0.00    -0.182 NA
ATOM     20  N   UNL     1      -2.504   3.201   8.577  0.00  0.00    -0.280 N 
ATOM     21  H   UNL     1      -3.273   2.670   8.223  0.00  0.00    +0.189 HD
ENDBRANCH  15  16
ENDBRANCH  11  15
BRANCH   9  22
ATOM     22  C   UNL     1      -2.279   4.183   3.226  0.00  0.00    +0.146 C 
BRANCH  22  23
ATOM     23  N   UNL     1      -2.940   2.885   3.382  0.00  0.00    -0.290 N 
ATOM     24  C   UNL     1      -2.852   2.220   4.551  0.00  0.00    +0.254 C 
ATOM     25  O   UNL     1      -2.303   2.738   5.506  0.00  0.00    -0.269 OA
BRANCH  24  26
ATOM     26  C   UNL     1      -3.418   0.873   4.672  0.00  0.00    +0.077 A 
ATOM     27  C   UNL     1      -3.510   0.062   5.792  0.00  0.00    -0.031 A 
ATOM     28  C   UNL     1      -4.094  -1.169   5.626  0.00  0.00    +0.011 A 
ATOM     29  C   UNL     1      -4.546  -1.528   4.396  0.00  0.00    +0.046 A 
ATOM     30  S   UNL     1      -4.175  -0.145   3.418  0.00  0.00    -0.092 S 
ATOM     31  C   UNL     1      -2.991   0.511   7.134  0.00  0.00    +0.045 C 
ENDBRANCH  24  26
BRANCH  23  32
ATOM     32  C   UNL     1      -3.696   2.310   2.267  0.00  0.00    +0.140 C 
BRANCH  32  33
ATOM     33  C   UNL     1      -2.739   1.574   1.327  0.00  0.00    +0.136 C 
ATOM     34  C   UNL     1      -3.491   1.062   0.073  0.00  0.00    +0.035 C 
ATOM     35  C   UNL     1      -2.600  -0.121  -0.379  0.00  0.00    +0.031 C 
ATOM     36  C   UNL     1      -1.802  -0.497   0.884  0.00  0.00    +0.160 C 
ATOM     37  O   UNL     1      -2.247   0.364   1.946  0.00  0.00    -0.375 OA
ENDBRANCH  32  33
ENDBRANCH  23  32
ENDBRANCH  22  23
ENDBRANCH   9  22
TORSDOF 7
