REMARK  Name = ZINC63572790
REMARK  7 active torsions:
REMARK  status: ('A' for Active; 'I' for Inactive)
REMARK    1  A    between atoms: C_1  and  C_2
REMARK    2  A    between atoms: C_5  and  C_8
REMARK    3  A    between atoms: N_26  and  C_27
REMARK    4  A    between atoms: C_30  and  O_35
REMARK    5  A    between atoms: C_31  and  O_33
REMARK    6  A    between atoms: O_33  and  C_34
REMARK    7  A    between atoms: O_35  and  C_36
REMARK                            x       y       z     vdW  Elec       q    Type
REMARK                         _______ _______ _______ _____ _____    ______ ____
ROOT
ATOM      1  C   UNL     1       0.468  -3.684   0.085  0.00  0.00    +0.134 C 
ATOM      2  C   UNL     1      -0.990  -4.155   0.129  0.00  0.00    +0.131 C 
ATOM      3  C   UNL     1      -1.387  -4.206   1.599  0.00  0.00    -0.035 C 
ATOM      4  C   UNL     1      -2.462  -3.437   1.724  0.00  0.00    +0.001 A 
ATOM      5  C   UNL     1      -3.330  -3.149   2.876  0.00  0.00    +0.030 A 
ATOM      6  C   UNL     1      -4.360  -2.288   2.651  0.00  0.00    +0.042 A 
ATOM      7  C   UNL     1      -4.607  -1.694   1.409  0.00  0.00    +0.022 A 
ATOM      8  C   UNL     1      -3.862  -1.905   0.295  0.00  0.00    +0.027 A 
ATOM      9  C   UNL     1      -2.754  -2.796   0.406  0.00  0.00    +0.043 A 
ATOM     10  N   UNL     1      -1.891  -3.195  -0.512  0.00  0.00    -0.375 N 
ATOM     11 CL   UNL     1      -5.420  -1.909   3.973  0.00  0.00    -0.084 Cl
ATOM     12  C   UNL     1      -0.581  -4.957   2.630  0.00  0.00    +0.052 C 
ATOM     13  C   UNL     1       0.881  -4.502   2.467  0.00  0.00    +0.114 C 
ATOM     14  N   UNL     1       1.234  -4.496   1.043  0.00  0.00    -0.276 N 
ATOM     15  C   UNL     1       2.269  -5.242   0.607  0.00  0.00    +0.307 C 
ATOM     16  O   UNL     1       2.623  -5.172  -0.554  0.00  0.00    -0.252 OA
ATOM     17  N   UNL     1       2.912  -6.065   1.459  0.00  0.00    -0.269 N 
ATOM     18  H   UNL     1       2.590  -6.170   2.368  0.00  0.00    +0.156 HD
ATOM     19  H   UNL     1      -1.850  -2.908  -1.437  0.00  0.00    +0.160 HD
ENDROOT
BRANCH   1  24
ATOM     20  C   UNL     1       0.764   1.893   1.570  0.00  0.00    +0.044 C 
ATOM     21  C   UNL     1       0.687   0.439   1.183  0.00  0.00    -0.050 A 
ATOM     22  C   UNL     1       0.969   0.053  -0.114  0.00  0.00    +0.004 A 
ATOM     23  C   UNL     1       0.898  -1.281  -0.469  0.00  0.00    +0.006 A 
ATOM     24  C   UNL     1       0.546  -2.229   0.473  0.00  0.00    -0.025 A 
ATOM     25  C   UNL     1       0.265  -1.844   1.770  0.00  0.00    +0.006 A 
ATOM     26  C   UNL     1       0.339  -0.510   2.126  0.00  0.00    +0.004 A 
ENDBRANCH   1  24
BRANCH  17  27
ATOM     27  C   UNL     1       4.045  -6.770   1.031  0.00  0.00    +0.038 A 
ATOM     28  C   UNL     1       4.249  -7.000  -0.323  0.00  0.00    +0.027 A 
ATOM     29  C   UNL     1       5.366  -7.695  -0.746  0.00  0.00    +0.051 A 
ATOM     30  C   UNL     1       6.285  -8.164   0.179  0.00  0.00    +0.162 A 
ATOM     31  C   UNL     1       6.083  -7.934   1.537  0.00  0.00    +0.163 A 
ATOM     32  C   UNL     1       4.966  -7.233   1.961  0.00  0.00    +0.072 A 
BRANCH  31  33
ATOM     33  O   UNL     1       6.984  -8.394   2.446  0.00  0.00    -0.491 OA
ATOM     34  C   UNL     1       6.713  -8.122   3.822  0.00  0.00    +0.277 C 
ENDBRANCH  31  33
BRANCH  30  35
ATOM     35  O   UNL     1       7.384  -8.848  -0.239  0.00  0.00    -0.491 OA
ATOM     36  C   UNL     1       7.527  -9.047  -1.647  0.00  0.00    +0.277 C 
ENDBRANCH  30  35
ENDBRANCH  17  27
TORSDOF 4
