REMARK  Name = ZINC59170534
REMARK  7 active torsions:
REMARK  status: ('A' for Active; 'I' for Inactive)
REMARK    1  A    between atoms: C_1  and  C_2
REMARK    2  A    between atoms: C_5  and  S_8
REMARK    3  A    between atoms: S_8  and  N_11
REMARK    4  A    between atoms: N_11  and  N_12
REMARK    5  A    between atoms: C_14  and  C_24
REMARK    6  A    between atoms: C_18  and  C_23
REMARK    7  A    between atoms: N_26  and  C_27
REMARK                            x       y       z     vdW  Elec       q    Type
REMARK                         _______ _______ _______ _____ _____    ______ ____
ROOT
ATOM      1  N   UNL     1       3.299  -3.611  -0.170  0.00  0.00    -0.260 N 
ATOM      2  C   UNL     1       4.391  -4.286   0.055  0.00  0.00    +0.225 A 
ATOM      3  C   UNL     1       5.050  -4.253   1.381  0.00  0.00    +0.099 A 
ATOM      4  C   UNL     1       5.808  -5.343   1.733  0.00  0.00    +0.030 A 
ATOM      5  C   UNL     1       5.902  -6.447   0.770  0.00  0.00    +0.018 A 
ATOM      6  C   UNL     1       6.423  -7.686   1.153  0.00  0.00    +0.015 A 
ATOM      7  C   UNL     1       6.498  -8.709   0.231  0.00  0.00    -0.050 A 
ATOM      8  C   UNL     1       6.060  -8.513  -1.069  0.00  0.00    +0.007 A 
ATOM      9  C   UNL     1       5.544  -7.292  -1.461  0.00  0.00    +0.047 A 
ATOM     10  C   UNL     1       5.462  -6.251  -0.551  0.00  0.00    +0.137 A 
ATOM     11  O   UNL     1       4.960  -5.049  -0.923  0.00  0.00    -0.437 OA
ATOM     12  C   UNL     1       7.059 -10.046   0.640  0.00  0.00    +0.044 C 
ATOM     13  H   UNL     1       2.861  -3.141   0.557  0.00  0.00    +0.189 HD
ENDROOT
BRANCH   3  14
ATOM     14  C   UNL     1       4.898  -3.100   2.284  0.00  0.00    +0.253 C 
ATOM     15  O   UNL     1       4.158  -2.183   1.982  0.00  0.00    -0.270 OA
ATOM     16  N   UNL     1       5.580  -3.060   3.446  0.00  0.00    -0.281 N 
ATOM     17  H   UNL     1       6.239  -3.743   3.646  0.00  0.00    +0.155 HD
BRANCH  16  18
ATOM     18  C   UNL     1       5.337  -2.033   4.365  0.00  0.00    +0.034 A 
ATOM     19  C   UNL     1       4.064  -1.490   4.480  0.00  0.00    +0.025 A 
ATOM     20  C   UNL     1       3.826  -0.476   5.387  0.00  0.00    +0.022 A 
ATOM     21  C   UNL     1       4.856  -0.002   6.181  0.00  0.00    +0.041 A 
ATOM     22  C   UNL     1       6.125  -0.541   6.069  0.00  0.00    +0.022 A 
ATOM     23  C   UNL     1       6.367  -1.559   5.167  0.00  0.00    +0.025 A 
ATOM     24 CL   UNL     1       4.554   1.273   7.321  0.00  0.00    -0.084 Cl
ENDBRANCH  16  18
ENDBRANCH   3  14
BRANCH   1  25
ATOM     25  N   UNL     1       2.757  -3.566  -1.461  0.00  0.00    -0.157 N 
ATOM     26  H   UNL     1       3.152  -4.094  -2.172  0.00  0.00    +0.194 HD
BRANCH  25  27
ATOM     27  S   UNL     1       1.442  -2.609  -1.774  0.00  0.00    +0.085 S 
ATOM     28  O   UNL     1       0.401  -3.058  -0.917  0.00  0.00    -0.149 OA
ATOM     29  O   UNL     1       1.300  -2.564  -3.187  0.00  0.00    -0.149 OA
BRANCH  27  34
ATOM     30  C   UNL     1       2.840   2.987  -0.002  0.00  0.00    +0.044 C 
ATOM     31  C   UNL     1       2.491   1.589  -0.445  0.00  0.00    -0.050 A 
ATOM     32  C   UNL     1       2.860   1.150  -1.702  0.00  0.00    +0.005 A 
ATOM     33  C   UNL     1       2.539  -0.132  -2.108  0.00  0.00    +0.029 A 
ATOM     34  C   UNL     1       1.851  -0.975  -1.256  0.00  0.00    +0.110 A 
ATOM     35  C   UNL     1       1.483  -0.536   0.002  0.00  0.00    +0.029 A 
ATOM     36  C   UNL     1       1.807   0.744   0.409  0.00  0.00    +0.005 A 
ENDBRANCH  27  34
ENDBRANCH  25  27
ENDBRANCH   1  25
TORSDOF 5
