REMARK  Name = ZINC63083899
REMARK  3 active torsions:
REMARK  status: ('A' for Active; 'I' for Inactive)
REMARK    1  A    between atoms: C_1  and  O_2
REMARK    2  A    between atoms: O_2  and  C_3
REMARK    3  A    between atoms: C_22  and  N_23
REMARK                            x       y       z     vdW  Elec       q    Type
REMARK                         _______ _______ _______ _____ _____    ______ ____
ROOT
ATOM      1  C   UNL     1       1.954  -0.605  -1.147  0.00  0.00    +0.121 A 
ATOM      2  C   UNL     1       2.369   0.166  -2.243  0.00  0.00    +0.047 A 
ATOM      3  C   UNL     1       2.733  -0.349  -3.445  0.00  0.00    +0.029 A 
ATOM      4  C   UNL     1       2.682  -1.811  -3.584  0.00  0.00    +0.044 A 
ATOM      5  N   UNL     1       2.945  -2.571  -4.604  0.00  0.00    -0.371 N 
ATOM      6  C   UNL     1       2.828  -3.964  -4.179  0.00  0.00    +0.168 C 
ATOM      7  C   UNL     1       2.242  -3.912  -2.771  0.00  0.00    -0.030 C 
ATOM      8  C   UNL     1       2.228  -2.635  -2.419  0.00  0.00    +0.003 A 
ATOM      9  C   UNL     1       1.868  -1.963  -1.161  0.00  0.00    +0.055 A 
ATOM     10  C   UNL     1       1.724  -5.155  -2.089  0.00  0.00    +0.053 C 
ATOM     11  C   UNL     1       0.687  -5.779  -3.039  0.00  0.00    +0.118 C 
ATOM     12  N   UNL     1       1.180  -5.806  -4.408  0.00  0.00    -0.276 N 
ATOM     13  C   UNL     1       1.865  -4.761  -5.011  0.00  0.00    +0.104 C 
ATOM     14  N   UNL     1       1.674  -4.472  -6.268  0.00  0.00    -0.358 N 
ATOM     15  C   UNL     1       0.676  -5.273  -6.981  0.00  0.00    +0.177 C 
ATOM     16  C   UNL     1       0.865  -6.720  -6.537  0.00  0.00    +0.025 C 
ATOM     17  C   UNL     1       1.017  -6.972  -5.184  0.00  0.00    +0.095 C 
ATOM     18  C   UNL     1       0.968  -7.676  -7.632  0.00  0.00    -0.029 C 
ATOM     19  C   UNL     1       1.109  -7.192  -8.882  0.00  0.00    -0.009 C 
ATOM     20  S   UNL     1       1.060  -5.403  -8.763  0.00  0.00    -0.100 S 
ATOM     21  C   UNL     1       1.269  -7.987 -10.146  0.00  0.00    +0.042 C 
ATOM     22  C   UNL     1       1.620  -9.434  -9.778  0.00  0.00    +0.005 C 
ATOM     23  C   UNL     1       0.649  -9.908  -8.692  0.00  0.00    +0.005 C 
ATOM     24  C   UNL     1       0.954  -9.184  -7.381  0.00  0.00    +0.036 C 
ATOM     25  H   UNL     1       3.179  -2.266  -5.495  0.00  0.00    +0.161 HD
ATOM     26  H   UNL     1       2.168  -3.763  -6.708  0.00  0.00    +0.162 HD
ENDROOT
BRANCH  17  28
ATOM     27  H   UNL     1       1.092  -8.384  -3.694  0.00  0.00    +0.143 HD
ATOM     28  N   UNL     1       1.055  -8.256  -4.655  0.00  0.00    -0.346 N 
ATOM     29  H   UNL     1       1.044  -9.025  -5.247  0.00  0.00    +0.143 HD
ENDBRANCH  17  28
BRANCH   1  31
ATOM     30  C   UNL     1       1.723   1.469  -0.007  0.00  0.00    +0.277 C 
ATOM     31  O   UNL     1       1.624   0.044   0.001  0.00  0.00    -0.495 OA
ENDBRANCH   1  31
TORSDOF 2
