REMARK  Name = ZINC16904225
REMARK  6 active torsions:
REMARK  status: ('A' for Active; 'I' for Inactive)
REMARK    1  A    between atoms: C_1  and  C_2
REMARK    2  A    between atoms: C_5  and  C_7
REMARK    3  A    between atoms: N_11  and  C_22
REMARK    4  A    between atoms: N_13  and  C_14
REMARK    5  A    between atoms: C_18  and  O_20
REMARK    6  A    between atoms: C_22  and  C_23
REMARK                            x       y       z     vdW  Elec       q    Type
REMARK                         _______ _______ _______ _____ _____    ______ ____
ROOT
ATOM      1  C   UNL     1      -0.605   6.384   2.315  0.00  0.00    +0.066 C 
ATOM      2  C   UNL     1      -0.985   5.082   2.187  0.00  0.00    +0.081 C 
ATOM      3  C   UNL     1      -0.924   4.203   1.008  0.00  0.00    +0.259 C 
ATOM      4  O   UNL     1      -0.487   4.598  -0.058  0.00  0.00    -0.269 OA
ATOM      5  N   UNL     1      -1.365   2.965   1.156  0.00  0.00    -0.242 N 
ATOM      6  C   UNL     1      -1.861   2.538   2.368  0.00  0.00    +0.169 C 
ATOM      7  N   UNL     1      -2.340   1.355   2.685  0.00  0.00    -0.225 NA
ATOM      8  S   UNL     1      -1.692   3.982   3.405  0.00  0.00    -0.049 S 
ENDROOT
BRANCH   1  13
ATOM      9  C   UNL     1      -1.723   7.215   7.075  0.00  0.00    +0.086 C 
ATOM     10  C   UNL     1      -1.244   7.430   5.663  0.00  0.00    +0.103 A 
ATOM     11  C   UNL     1      -0.732   8.581   5.174  0.00  0.00    +0.045 A 
ATOM     12  C   UNL     1      -0.412   8.355   3.826  0.00  0.00    +0.049 A 
ATOM     13  C   UNL     1      -0.754   7.045   3.556  0.00  0.00    +0.129 A 
ATOM     14  O   UNL     1      -1.260   6.510   4.687  0.00  0.00    -0.461 OA
ENDBRANCH   1  13
BRANCH   7  15
ATOM     15  C   UNL     1      -2.791   1.117   3.954  0.00  0.00    +0.070 A 
ATOM     16  C   UNL     1      -2.043   1.542   5.056  0.00  0.00    +0.028 A 
ATOM     17  C   UNL     1      -2.501   1.300   6.334  0.00  0.00    +0.006 A 
ATOM     18  C   UNL     1      -3.699   0.638   6.530  0.00  0.00    +0.045 A 
ATOM     19  C   UNL     1      -4.450   0.212   5.442  0.00  0.00    +0.119 A 
ATOM     20  C   UNL     1      -4.003   0.454   4.155  0.00  0.00    +0.073 A 
BRANCH  19  21
ATOM     21  O   UNL     1      -5.627  -0.437   5.642  0.00  0.00    -0.507 OA
ATOM     22  H   UNL     1      -6.395   0.148   5.692  0.00  0.00    +0.292 HD
ENDBRANCH  19  21
ENDBRANCH   7  15
BRANCH   5  23
ATOM     23  C   UNL     1      -1.331   2.042   0.019  0.00  0.00    +0.142 C 
BRANCH  23  24
ATOM     24  C   UNL     1      -0.016   1.306   0.009  0.00  0.00    -0.015 C 
ATOM     25  C   UNL     1       0.002  -0.004   0.002  0.00  0.00    +0.005 C 
ENDBRANCH  23  24
ENDBRANCH   5  23
TORSDOF 5
