REMARK  Name = ZINC11125545
REMARK  8 active torsions:
REMARK  status: ('A' for Active; 'I' for Inactive)
REMARK    1  A    between atoms: C_1  and  C_2
REMARK    2  A    between atoms: C_10  and  C_11
REMARK    3  A    between atoms: C_11  and  O_13
REMARK    4  A    between atoms: O_13  and  C_14
REMARK    5  A    between atoms: C_14  and  C_16
REMARK    6  A    between atoms: C_14  and  C_17
REMARK    7  A    between atoms: N_19  and  C_20
REMARK    8  A    between atoms: C_20  and  C_26
REMARK                            x       y       z     vdW  Elec       q    Type
REMARK                         _______ _______ _______ _____ _____    ______ ____
ROOT
ATOM      1  O   UNL     1      -0.411   6.045   0.037  0.00  0.00    -0.447 OA
ENDROOT
BRANCH   1   2
ATOM      2  C   UNL     1      -1.135   4.907   0.037  0.00  0.00    +0.376 C 
ATOM      3  O   UNL     1      -2.349   4.959   0.049  0.00  0.00    -0.241 OA
BRANCH   2  13
ATOM      4  C   UNL     1      -2.565   2.145   0.025  0.00  0.00    +0.048 C 
ATOM      5  C   UNL     1      -1.079   2.398   0.019  0.00  0.00    +0.010 A 
ATOM      6  C   UNL     1      -0.017   1.393   0.010  0.00  0.00    +0.025 A 
ATOM      7  C   UNL     1       0.002  -0.004   0.002  0.00  0.00    +0.012 A 
ATOM      8  C   UNL     1       1.197  -0.665  -0.013  0.00  0.00    +0.002 A 
ATOM      9  C   UNL     1       2.393   0.041  -0.021  0.00  0.00    +0.024 A 
ATOM     10  C   UNL     1       2.396   1.420  -0.013  0.00  0.00    +0.084 A 
ATOM     11  C   UNL     1       1.191   2.115   0.002  0.00  0.00    +0.154 A 
ATOM     12  O   UNL     1       0.882   3.427   0.012  0.00  0.00    -0.446 OA
ATOM     13  C   UNL     1      -0.456   3.605   0.025  0.00  0.00    +0.216 A 
ATOM     14 CL   UNL     1       3.900   2.287  -0.021  0.00  0.00    -0.080 Cl
ENDBRANCH   2  13
ENDBRANCH   1   2
BRANCH   1  15
ATOM     15  C   UNL     1      -1.149   7.295   0.049  0.00  0.00    +0.259 C 
ATOM     16  C   UNL     1      -1.395   7.727   1.496  0.00  0.00    +0.062 C 
BRANCH  15  17
ATOM     17  C   UNL     1      -0.351   8.357  -0.663  0.00  0.00    +0.255 C 
ATOM     18  O   UNL     1       0.733   8.086  -1.135  0.00  0.00    -0.272 OA
ATOM     19  N   UNL     1      -0.841   9.607  -0.776  0.00  0.00    -0.294 N 
ATOM     20  H   UNL     1      -1.708   9.823  -0.398  0.00  0.00    +0.150 HD
BRANCH  19  21
ATOM     21  C   UNL     1      -0.066  10.639  -1.468  0.00  0.00    +0.121 C 
ATOM     22  C   UNL     1       1.276  10.831  -0.758  0.00  0.00    +0.041 C 
ATOM     23  C   UNL     1       2.086  11.908  -1.482  0.00  0.00    +0.003 C 
ATOM     24  C   UNL     1       1.309  13.226  -1.468  0.00  0.00    +0.000 C 
ATOM     25  C   UNL     1      -0.033  13.034  -2.178  0.00  0.00    +0.003 C 
ATOM     26  C   UNL     1      -0.843  11.956  -1.455  0.00  0.00    +0.041 C 
BRANCH  21  27
ATOM     27  C   UNL     1       0.171  10.223  -2.860  0.00  0.00    +0.088 C 
ATOM     28  N   UNL     1       0.354   9.902  -3.935  0.00  0.00    -0.194 NA
ENDBRANCH  21  27
ENDBRANCH  19  21
ENDBRANCH  15  17
ENDBRANCH   1  15
TORSDOF 6
