REMARK  Name = ZINC37129233
REMARK  5 active torsions:
REMARK  status: ('A' for Active; 'I' for Inactive)
REMARK    1  A    between atoms: C_1  and  C_2
REMARK    2  A    between atoms: C_5  and  C_7
REMARK    3  A    between atoms: C_7  and  C_9
REMARK    4  A    between atoms: C_7  and  N_10
REMARK    5  A    between atoms: N_10  and  C_11
REMARK                            x       y       z     vdW  Elec       q    Type
REMARK                         _______ _______ _______ _____ _____    ______ ____
ROOT
ATOM      1  C   UNL     1       3.466  -4.020   1.515  0.00  0.00    +0.075 A 
ATOM      2  C   UNL     1       4.219  -3.772   2.622  0.00  0.00    +0.065 A 
ATOM      3  C   UNL     1       4.878  -4.798   3.297  0.00  0.00    +0.044 A 
ATOM      4  C   UNL     1       4.797  -6.086   2.882  0.00  0.00    +0.071 A 
ATOM      5  C   UNL     1       4.028  -6.422   1.734  0.00  0.00    +0.120 A 
ATOM      6  C   UNL     1       3.333  -5.354   1.027  0.00  0.00    +0.123 A 
ATOM      7  N   UNL     1       2.641  -5.785  -0.027  0.00  0.00    -0.189 NA
ATOM      8  S   UNL     1       2.869  -7.377  -0.075  0.00  0.00    +0.117 S 
ATOM      9  N   UNL     1       3.837  -7.624   1.187  0.00  0.00    -0.189 NA
ATOM     10 CL   UNL     1       5.635  -7.330   3.756  0.00  0.00    -0.081 Cl
ATOM     11 CL   UNL     1       4.364  -2.143   3.204  0.00  0.00    -0.082 Cl
ENDROOT
BRANCH   1  12
ATOM     12  N   UNL     1       2.819  -2.969   0.861  0.00  0.00    -0.331 N 
ATOM     13  H   UNL     1       3.100  -2.054   1.018  0.00  0.00    +0.147 HD
BRANCH  12  14
ATOM     14  C   UNL     1       1.716  -3.249  -0.061  0.00  0.00    +0.133 C 
ATOM     15  C   UNL     1       2.255  -3.328  -1.491  0.00  0.00    +0.036 C 
BRANCH  14  20
ATOM     16  C   UNL     1      -0.322   1.347   0.337  0.00  0.00    +0.086 C 
ATOM     17  C   UNL     1      -0.193  -0.148   0.204  0.00  0.00    +0.102 A 
ATOM     18  C   UNL     1      -1.214  -1.021   0.120  0.00  0.00    +0.045 A 
ATOM     19  C   UNL     1      -0.642  -2.309   0.009  0.00  0.00    +0.047 A 
ATOM     20  C   UNL     1       0.693  -2.147   0.031  0.00  0.00    +0.125 A 
ATOM     21  O   UNL     1       0.959  -0.835   0.143  0.00  0.00    -0.463 OA
ENDBRANCH  14  20
ENDBRANCH  12  14
ENDBRANCH   1  12
TORSDOF 3
