REMARK  Name = ZINC15170660
REMARK  7 active torsions:
REMARK  status: ('A' for Active; 'I' for Inactive)
REMARK    1  A    between atoms: C_3  and  N_19
REMARK    2  A    between atoms: C_4  and  N_16
REMARK    3  A    between atoms: C_6  and  S_7
REMARK    4  A    between atoms: S_7  and  N_10
REMARK    5  A    between atoms: N_19  and  C_20
REMARK    6  A    between atoms: C_20  and  C_21
REMARK    7  A    between atoms: C_21  and  N_27
REMARK                            x       y       z     vdW  Elec       q    Type
REMARK                         _______ _______ _______ _____ _____    ______ ____
ROOT
ATOM      1  C   UNL     1       3.974  -2.330  -0.708  0.00  0.00    +0.030 A 
ATOM      2  C   UNL     1       4.376  -2.542  -2.012  0.00  0.00    +0.027 A 
ATOM      3  C   UNL     1       5.098  -1.563  -2.683  0.00  0.00    +0.058 A 
ATOM      4  C   UNL     1       5.408  -0.371  -2.041  0.00  0.00    +0.149 A 
ATOM      5  C   UNL     1       4.998  -0.163  -0.739  0.00  0.00    +0.063 A 
ATOM      6  C   UNL     1       4.279  -1.140  -0.074  0.00  0.00    +0.108 A 
ENDROOT
BRANCH   6   7
ATOM      7  S   UNL     1       3.758  -0.870   1.587  0.00  0.00    +0.061 S 
ATOM      8  O   UNL     1       4.643   0.096   2.139  0.00  0.00    -0.153 OA
ATOM      9  O   UNL     1       3.573  -2.153   2.169  0.00  0.00    -0.153 OA
BRANCH   7  10
ATOM     10  N   UNL     1       2.263  -0.160   1.522  0.00  0.00    -0.177 NA
ATOM     11  C   UNL     1       1.045  -0.981   1.508  0.00  0.00    +0.109 C 
ATOM     12  C   UNL     1       0.191  -0.575   0.303  0.00  0.00    +0.017 C 
ATOM     13  C   UNL     1      -0.067   0.933   0.350  0.00  0.00    +0.003 C 
ATOM     14  C   UNL     1       1.264   1.683   0.274  0.00  0.00    +0.017 C 
ATOM     15  C   UNL     1       2.130   1.303   1.478  0.00  0.00    +0.109 C 
ENDBRANCH   7  10
ENDBRANCH   6   7
BRANCH   4  16
ATOM     16  N   UNL     1       6.177   0.675  -2.752  0.00  0.00    +0.058 N 
ATOM     17  O   UNL     1       6.360   1.759  -2.227  0.00  0.00    -0.126 OA
ATOM     18  O   UNL     1       6.627   0.452  -3.861  0.00  0.00    -0.126 OA
ENDBRANCH   4  16
BRANCH   3  19
ATOM     19  N   UNL     1       5.511  -1.777  -4.000  0.00  0.00    -0.340 N 
ATOM     20  H   UNL     1       6.174  -1.051  -4.493  0.00  0.00    +0.146 HD
BRANCH  19  21
ATOM     21  C   UNL     1       5.061  -2.968  -4.724  0.00  0.00    +0.124 C 
BRANCH  21  22
ATOM     22  C   UNL     1       5.746  -3.023  -6.091  0.00  0.00    +0.037 C 
ATOM     23  C   UNL     1       5.179  -4.192  -6.899  0.00  0.00    +0.024 C 
ATOM     24  C   UNL     1       5.434  -5.501  -6.149  0.00  0.00    +0.002 C 
ATOM     25  C   UNL     1       6.939  -5.695  -5.958  0.00  0.00    +0.000 C 
ATOM     26  C   UNL     1       7.506  -4.526  -5.150  0.00  0.00    +0.002 C 
ATOM     27  C   UNL     1       7.251  -3.217  -5.900  0.00  0.00    +0.024 C 
BRANCH  22  28
ATOM     28  N   UNL     1       5.502  -1.766  -6.812  0.00  0.00    -0.291 NA
ATOM     29  C   UNL     1       4.061  -1.494  -6.924  0.00  0.00    +0.113 C 
ATOM     30  C   UNL     1       3.854  -0.150  -7.626  0.00  0.00    +0.175 C 
ATOM     31  O   UNL     1       4.500  -0.180  -8.902  0.00  0.00    -0.377 OA
ATOM     32  C   UNL     1       5.905  -0.442  -8.830  0.00  0.00    +0.175 C 
ATOM     33  C   UNL     1       6.132  -1.789  -8.140  0.00  0.00    +0.113 C 
ENDBRANCH  22  28
ENDBRANCH  21  22
ENDBRANCH  19  21
ENDBRANCH   3  19
TORSDOF 7
