REMARK  Name = ZINC03462305
REMARK  8 active torsions:
REMARK  status: ('A' for Active; 'I' for Inactive)
REMARK    1  A    between atoms: C_1  and  C_2
REMARK    2  A    between atoms: C_2  and  C_3
REMARK    3  A    between atoms: C_3  and  C_25
REMARK    4  A    between atoms: N_6  and  C_10
REMARK    5  A    between atoms: C_10  and  C_11
REMARK    6  A    between atoms: N_13  and  C_14
REMARK    7  A    between atoms: C_14  and  C_16
REMARK    8  A    between atoms: C_14  and  C_17
REMARK                            x       y       z     vdW  Elec       q    Type
REMARK                         _______ _______ _______ _____ _____    ______ ____
ROOT
ATOM      1  C   UNL     1      -1.351   2.407  -0.441  0.00  0.00    +0.138 C 
ATOM      2  C   UNL     1       0.152   2.490  -0.261  0.00  0.00    +0.251 C 
ATOM      3  O   UNL     1       0.811   3.488  -0.059  0.00  0.00    -0.272 OA
ATOM      4  N   UNL     1       0.603   1.225  -0.369  0.00  0.00    -0.215 N 
ATOM      5  C   UNL     1      -0.395   0.363  -0.591  0.00  0.00    +0.310 C 
ATOM      6  O   UNL     1      -0.236  -0.835  -0.724  0.00  0.00    -0.252 OA
ATOM      7  N   UNL     1      -1.594   0.970  -0.656  0.00  0.00    -0.281 N 
ATOM      8  H   UNL     1      -2.451   0.544  -0.812  0.00  0.00    +0.152 HD
ENDROOT
BRANCH   1   9
ATOM      9  C   UNL     1      -1.785   3.202  -1.645  0.00  0.00    -0.015 A 
ATOM     10  C   UNL     1      -2.140   4.530  -1.505  0.00  0.00    +0.006 A 
ATOM     11  C   UNL     1      -2.534   5.261  -2.610  0.00  0.00    +0.000 A 
ATOM     12  C   UNL     1      -2.582   4.661  -3.854  0.00  0.00    +0.000 A 
ATOM     13  C   UNL     1      -2.232   3.331  -3.994  0.00  0.00    +0.000 A 
ATOM     14  C   UNL     1      -1.833   2.601  -2.890  0.00  0.00    +0.006 A 
ENDBRANCH   1   9
BRANCH   1  16
ATOM     15  C   UNL     1      -1.654   2.041   2.011  0.00  0.00    +0.007 C 
ATOM     16  C   UNL     1      -2.072   2.898   0.815  0.00  0.00    +0.037 C 
ENDBRANCH   1  16
BRANCH   4  17
ATOM     17  C   UNL     1       2.013   0.842  -0.257  0.00  0.00    +0.213 C 
BRANCH  17  18
ATOM     18  C   UNL     1       2.656   0.887  -1.619  0.00  0.00    +0.231 C 
ATOM     19  O   UNL     1       2.001   1.208  -2.588  0.00  0.00    -0.274 OA
ATOM     20  N   UNL     1       3.958   0.571  -1.761  0.00  0.00    -0.307 N 
ATOM     21  H   UNL     1       4.482   0.314  -0.986  0.00  0.00    +0.149 HD
BRANCH  20  22
ATOM     22  C   UNL     1       4.583   0.614  -3.085  0.00  0.00    +0.102 C 
ATOM     23  C   UNL     1       5.096   2.029  -3.360  0.00  0.00    +0.033 C 
BRANCH  22  24
ATOM     24  C   UNL     1       5.735  -0.356  -3.129  0.00  0.00    -0.009 A 
ATOM     25  C   UNL     1       6.405  -0.687  -1.966  0.00  0.00    +0.008 A 
ATOM     26  C   UNL     1       7.458  -1.580  -2.005  0.00  0.00    +0.020 A 
ATOM     27  C   UNL     1       7.851  -2.136  -3.210  0.00  0.00    +0.042 A 
ATOM     28  C   UNL     1       7.184  -1.801  -4.375  0.00  0.00    +0.040 A 
ATOM     29  C   UNL     1       6.127  -0.910  -4.334  0.00  0.00    +0.047 A 
ATOM     30 CL   UNL     1       5.290  -0.490  -5.796  0.00  0.00    -0.083 Cl
ATOM     31 CL   UNL     1       9.178  -3.253  -3.259  0.00  0.00    -0.083 Cl
ENDBRANCH  22  24
ENDBRANCH  20  22
ENDBRANCH  17  18
ENDBRANCH   4  17
TORSDOF 6
