REMARK  Name = ZINC20688424
REMARK  6 active torsions:
REMARK  status: ('A' for Active; 'I' for Inactive)
REMARK    1  A    between atoms: C_1  and  C_2
REMARK    2  A    between atoms: C_6  and  C_7
REMARK    3  A    between atoms: C_18  and  O_23
REMARK    4  A    between atoms: O_23  and  C_24
REMARK    5  A    between atoms: C_24  and  C_25
REMARK    6  A    between atoms: C_25  and  C_26
REMARK                            x       y       z     vdW  Elec       q    Type
REMARK                         _______ _______ _______ _____ _____    ______ ____
ROOT
ATOM      1  C   UNL     1       0.030  -0.179   2.581  0.00  0.00    +0.112 C 
ATOM      2  C   UNL     1      -1.325  -0.403   3.229  0.00  0.00    +0.029 C 
ATOM      3  C   UNL     1      -2.509   0.399   2.672  0.00  0.00    +0.033 C 
ATOM      4  C   UNL     1      -3.402   0.527   3.908  0.00  0.00    -0.030 C 
ATOM      5  C   UNL     1      -2.667   0.446   5.010  0.00  0.00    -0.023 C 
ATOM      6  C   UNL     1      -1.231   0.269   4.631  0.00  0.00    +0.049 C 
ATOM      7  C   UNL     1      -0.275  -0.513   5.445  0.00  0.00    -0.016 A 
ATOM      8  C   UNL     1      -0.435  -0.695   6.802  0.00  0.00    +0.051 A 
ATOM      9  C   UNL     1       0.497  -1.425   7.524  0.00  0.00    +0.121 A 
ATOM     10  C   UNL     1       1.596  -1.973   6.878  0.00  0.00    +0.047 A 
ATOM     11  C   UNL     1       1.758  -1.798   5.519  0.00  0.00    +0.027 A 
ATOM     12  C   UNL     1       0.825  -1.075   4.787  0.00  0.00    +0.032 A 
ATOM     13  N   UNL     1       0.997  -0.941   3.400  0.00  0.00    -0.336 N 
ATOM     14  H   UNL     1       1.762  -1.356   2.971  0.00  0.00    +0.147 HD
ENDROOT
BRANCH   1  20
ATOM     15  C   UNL     1      -0.018   1.503   0.010  0.00  0.00    +0.044 C 
ATOM     16  C   UNL     1       0.002  -0.004   0.002  0.00  0.00    -0.038 A 
ATOM     17  C   UNL     1       0.006  -0.699  -1.193  0.00  0.00    +0.011 A 
ATOM     18  C   UNL     1       0.024  -2.054  -1.165  0.00  0.00    +0.046 A 
ATOM     19  S   UNL     1       0.037  -2.387   0.589  0.00  0.00    -0.099 S 
ATOM     20  C   UNL     1       0.023  -0.698   1.166  0.00  0.00    +0.013 A 
ENDBRANCH   1  20
BRANCH   9  21
ATOM     21  O   UNL     1       0.335  -1.602   8.863  0.00  0.00    -0.492 OA
BRANCH  21  22
ATOM     22  C   UNL     1       1.335  -2.365   9.542  0.00  0.00    +0.229 C 
BRANCH  22  23
ATOM     23  C   UNL     1       0.984  -2.456  11.029  0.00  0.00    +0.044 C 
BRANCH  23  24
ATOM     24  C   UNL     1       2.054  -3.272  11.756  0.00  0.00    -0.008 C 
ATOM     25  C   UNL     1       3.390  -2.528  11.699  0.00  0.00    +0.003 C 
ATOM     26  C   UNL     1       4.460  -3.345  12.427  0.00  0.00    +0.000 C 
ATOM     27  C   UNL     1       4.047  -3.542  13.886  0.00  0.00    +0.000 C 
ATOM     28  C   UNL     1       2.711  -4.286  13.943  0.00  0.00    +0.000 C 
ATOM     29  C   UNL     1       1.641  -3.469  13.216  0.00  0.00    +0.003 C 
ENDBRANCH  23  24
ENDBRANCH  22  23
ENDBRANCH  21  22
ENDBRANCH   9  21
TORSDOF 5
