REMARK  Name = ZINC35938596
REMARK  10 active torsions:
REMARK  status: ('A' for Active; 'I' for Inactive)
REMARK    1  A    between atoms: C_1  and  C_2
REMARK    2  A    between atoms: C_9  and  C_11
REMARK    3  A    between atoms: C_13  and  O_19
REMARK    4  A    between atoms: C_15  and  O_17
REMARK    5  A    between atoms: O_17  and  C_18
REMARK    6  A    between atoms: O_19  and  C_20
REMARK    7  A    between atoms: C_21  and  C_23
REMARK    8  A    between atoms: C_23  and  C_24
REMARK    9  A    between atoms: C_24  and  N_25
REMARK   10  A    between atoms: C_33  and  C_35
REMARK                            x       y       z     vdW  Elec       q    Type
REMARK                         _______ _______ _______ _____ _____    ______ ____
ROOT
ATOM      1  C   UNL     1      -0.544   1.168   0.245  0.00  0.00    +0.029 C 
ATOM      2  C   UNL     1      -0.155  -0.292   0.009  0.00  0.00    +0.091 C 
ATOM      3  C   UNL     1      -1.419  -1.135  -0.198  0.00  0.00    +0.130 C 
ATOM      4  N   UNL     1      -2.132  -1.235   1.083  0.00  0.00    -0.298 N 
ATOM      5  C   UNL     1      -1.412  -1.749   2.256  0.00  0.00    +0.127 C 
ATOM      6  C   UNL     1      -0.147  -0.906   2.463  0.00  0.00    +0.127 C 
ATOM      7  N   UNL     1       0.569  -0.805   1.180  0.00  0.00    -0.292 N 
ATOM      8  C   UNL     1       1.860  -1.179   1.079  0.00  0.00    +0.247 C 
ATOM      9  O   UNL     1       2.405  -1.194  -0.008  0.00  0.00    -0.270 OA
ATOM     10  C   UNL     1      -3.423  -0.861   1.181  0.00  0.00    +0.214 C 
ATOM     11  O   UNL     1      -4.008  -0.438   0.206  0.00  0.00    -0.276 OA
ENDROOT
BRANCH   8  12
ATOM     12  C   UNL     1       2.614  -1.570   2.289  0.00  0.00    +0.044 A 
ATOM     13  C   UNL     1       3.477  -2.666   2.253  0.00  0.00    +0.059 A 
ATOM     14  C   UNL     1       4.181  -3.028   3.389  0.00  0.00    +0.124 A 
ATOM     15  C   UNL     1       4.029  -2.304   4.562  0.00  0.00    +0.091 A 
ATOM     16  C   UNL     1       3.172  -1.214   4.603  0.00  0.00    +0.124 A 
ATOM     17  C   UNL     1       2.468  -0.841   3.470  0.00  0.00    +0.059 A 
BRANCH  16  18
ATOM     18  O   UNL     1       3.026  -0.508   5.755  0.00  0.00    -0.495 OA
ATOM     19  C   UNL     1       3.786  -0.945   6.884  0.00  0.00    +0.277 C 
ENDBRANCH  16  18
BRANCH  14  20
ATOM     20  O   UNL     1       5.022  -4.095   3.354  0.00  0.00    -0.495 OA
ATOM     21  C   UNL     1       5.717  -4.413   4.562  0.00  0.00    +0.277 C 
ENDBRANCH  14  20
ENDBRANCH   8  12
BRANCH  10  22
ATOM     22  C   UNL     1      -4.141  -0.969   2.501  0.00  0.00    +0.077 C 
BRANCH  22  23
ATOM     23  C   UNL     1      -5.583  -0.484   2.339  0.00  0.00    -0.068 C 
BRANCH  23  24
ATOM     24  N   UNL     1      -6.283  -0.589   3.627  0.00  0.00    +0.388 N 
ATOM     25  C   UNL     1      -5.645   0.310   4.598  0.00  0.00    -0.072 C 
ATOM     26  C   UNL     1      -6.153  -0.041   6.008  0.00  0.00    +0.024 C 
ATOM     27  C   UNL     1      -7.640  -0.162   5.933  0.00  0.00    -0.010 A 
ATOM     28  C   UNL     1      -8.389  -0.249   4.797  0.00  0.00    -0.047 A 
ATOM     29  C   UNL     1      -9.767  -0.350   4.968  0.00  0.00    +0.010 A 
ATOM     30  C   UNL     1     -10.296  -0.360   6.214  0.00  0.00    +0.045 A 
ATOM     31  S   UNL     1      -8.836  -0.224   7.236  0.00  0.00    -0.101 S 
ATOM     32  C   UNL     1      -7.695  -0.236   3.439  0.00  0.00    -0.006 C 
ATOM     33  H   UNL     1      -6.220  -1.538   3.962  0.00  0.00    -0.080 HD
BRANCH  32  34
ATOM     34  C   UNL     1      -8.350  -1.242   2.527  0.00  0.00    -0.057 A 
ATOM     35  C   UNL     1      -8.048  -2.585   2.650  0.00  0.00    +0.002 A 
ATOM     36  C   UNL     1      -8.649  -3.508   1.814  0.00  0.00    +0.000 A 
ATOM     37  C   UNL     1      -9.552  -3.087   0.856  0.00  0.00    +0.000 A 
ATOM     38  C   UNL     1      -9.854  -1.744   0.733  0.00  0.00    +0.000 A 
ATOM     39  C   UNL     1      -9.257  -0.822   1.572  0.00  0.00    +0.002 A 
ENDBRANCH  32  34
ENDBRANCH  23  24
ENDBRANCH  22  23
ENDBRANCH  10  22
TORSDOF 7
