REMARK  Name = ZINC64517995
REMARK  7 active torsions:
REMARK  status: ('A' for Active; 'I' for Inactive)
REMARK    1  A    between atoms: C_6  and  S_10
REMARK    2  A    between atoms: S_10  and  C_11
REMARK    3  A    between atoms: C_11  and  C_12
REMARK    4  A    between atoms: C_14  and  C_17
REMARK    5  A    between atoms: C_17  and  C_18
REMARK    6  A    between atoms: C_18  and  C_19
REMARK    7  A    between atoms: N_21  and  C_22
REMARK                            x       y       z     vdW  Elec       q    Type
REMARK                         _______ _______ _______ _____ _____    ______ ____
ROOT
ATOM      1  C   UNL     1       3.325  -2.542  -4.202  0.00  0.00    +0.182 A 
ATOM      2  N   UNL     1       4.422  -2.247  -4.909  0.00  0.00    -0.195 NA
ATOM      3  C   UNL     1       4.458  -2.963  -5.999  0.00  0.00    +0.228 A 
ATOM      4  O   UNL     1       3.372  -3.746  -6.022  0.00  0.00    -0.338 OA
ATOM      5  N   UNL     1       2.649  -3.457  -4.835  0.00  0.00    -0.060 NA
ENDROOT
BRANCH   1   6
ATOM      6  C   UNL     1       2.938  -1.919  -2.886  0.00  0.00    +0.152 C 
BRANCH   6   7
ATOM      7  S   UNL     1       3.652  -2.886  -1.527  0.00  0.00    -0.107 S 
BRANCH   7  13
ATOM      8  C   UNL     1       0.011   1.387   0.006  0.00  0.00    +0.002 A 
ATOM      9  C   UNL     1       1.184   2.161  -0.010  0.00  0.00    +0.002 A 
ATOM     10  C   UNL     1       2.416   1.614  -0.027  0.00  0.00    +0.027 A 
ATOM     11  C   UNL     1       2.560   0.152  -0.028  0.00  0.00    +0.061 A 
ATOM     12  N   UNL     1       3.596  -0.635  -0.041  0.00  0.00    -0.355 N 
ATOM     13  C   UNL     1       3.100  -2.017  -0.033  0.00  0.00    +0.236 C 
ATOM     14  N   UNL     1       1.635  -1.931  -0.013  0.00  0.00    -0.355 N 
ATOM     15  C   UNL     1       1.318  -0.668  -0.009  0.00  0.00    +0.061 A 
ATOM     16  C   UNL     1       0.030   0.038   0.007  0.00  0.00    +0.027 A 
ATOM     17  H   UNL     1       4.526  -0.359  -0.055  0.00  0.00    +0.162 HD
ATOM     18  H   UNL     1       1.016  -2.678  -0.004  0.00  0.00    +0.162 HD
ENDBRANCH   7  13
ENDBRANCH   6   7
ENDBRANCH   1   6
BRANCH   3  19
ATOM     19  C   UNL     1       5.536  -2.917  -7.051  0.00  0.00    +0.108 C 
BRANCH  19  20
ATOM     20  C   UNL     1       6.629  -3.931  -6.706  0.00  0.00    +0.105 C 
BRANCH  20  21
ATOM     21  C   UNL     1       7.707  -3.884  -7.758  0.00  0.00    +0.218 C 
ATOM     22  O   UNL     1       7.611  -3.116  -8.691  0.00  0.00    -0.275 OA
ATOM     23  N   UNL     1       8.778  -4.697  -7.661  0.00  0.00    -0.285 N 
ATOM     24  H   UNL     1       8.889  -5.263  -6.881  0.00  0.00    +0.155 HD
BRANCH  23  25
ATOM     25  C   UNL     1       9.732  -4.724  -8.687  0.00  0.00    +0.037 A 
ATOM     26  C   UNL     1      10.363  -5.916  -9.017  0.00  0.00    +0.027 A 
ATOM     27  C   UNL     1      11.303  -5.944 -10.029  0.00  0.00    +0.051 A 
ATOM     28  C   UNL     1      11.620  -4.783 -10.717  0.00  0.00    +0.166 A 
ATOM     29  C   UNL     1      10.988  -3.586 -10.388  0.00  0.00    +0.168 A 
ATOM     30  C   UNL     1      10.042  -3.560  -9.377  0.00  0.00    +0.072 A 
ATOM     31  O   UNL     1      11.470  -2.601 -11.201  0.00  0.00    -0.453 OA
ATOM     32  C   UNL     1      12.694  -3.121 -11.752  0.00  0.00    +0.466 C 
ATOM     33  O   UNL     1      12.497  -4.547 -11.737  0.00  0.00    -0.453 OA
ENDBRANCH  23  25
ENDBRANCH  20  21
ENDBRANCH  19  20
ENDBRANCH   3  19
TORSDOF 7
