REMARK  Name = ZINC03237288
REMARK  7 active torsions:
REMARK  status: ('A' for Active; 'I' for Inactive)
REMARK    1  A    between atoms: C_1  and  C_2
REMARK    2  A    between atoms: C_5  and  S_8
REMARK    3  A    between atoms: S_8  and  C_11
REMARK    4  A    between atoms: C_12  and  N_23
REMARK    5  A    between atoms: C_14  and  C_16
REMARK    6  A    between atoms: N_23  and  C_24
REMARK    7  A    between atoms: C_24  and  C_25
REMARK                            x       y       z     vdW  Elec       q    Type
REMARK                         _______ _______ _______ _____ _____    ______ ____
ROOT
ATOM      1  C   UNL     1       1.234  -4.619  -2.887  0.00  0.00    +0.243 A 
ATOM      2  C   UNL     1       1.237  -4.033  -1.665  0.00  0.00    +0.233 A 
ATOM      3  O   UNL     1       1.264  -5.023  -0.750  0.00  0.00    -0.420 OA
ATOM      4  C   UNL     1       1.269  -6.195  -1.415  0.00  0.00    +0.233 A 
ATOM      5  N   UNL     1       1.253  -5.948  -2.703  0.00  0.00    -0.188 NA
ENDROOT
BRANCH   4   6
ATOM      6  C   UNL     1       1.294  -7.536  -0.796  0.00  0.00    +0.055 A 
ATOM      7  C   UNL     1       1.296  -8.679  -1.599  0.00  0.00    +0.014 A 
ATOM      8  C   UNL     1       1.324  -9.928  -1.014  0.00  0.00    +0.001 A 
ATOM      9  C   UNL     1       1.339 -10.051   0.364  0.00  0.00    +0.001 A 
ATOM     10  C   UNL     1       1.331  -8.923   1.166  0.00  0.00    +0.021 A 
ATOM     11  C   UNL     1       1.309  -7.666   0.595  0.00  0.00    +0.053 A 
ATOM     12 CL   UNL     1       1.298  -6.253   1.602  0.00  0.00    -0.083 Cl
ENDBRANCH   4   6
BRANCH   1  13
ATOM     13  S   UNL     1       1.207  -3.785  -4.439  0.00  0.00    +0.047 S 
ATOM     14  O   UNL     1       0.660  -4.698  -5.381  0.00  0.00    -0.163 OA
ATOM     15  O   UNL     1       0.641  -2.504  -4.202  0.00  0.00    -0.163 OA
BRANCH  13  20
ATOM     16  C   UNL     1       6.944  -2.862  -6.066  0.00  0.00    +0.044 C 
ATOM     17  C   UNL     1       5.511  -3.093  -5.660  0.00  0.00    -0.050 A 
ATOM     18  C   UNL     1       4.863  -4.253  -6.040  0.00  0.00    +0.005 A 
ATOM     19  C   UNL     1       3.549  -4.465  -5.667  0.00  0.00    +0.028 A 
ATOM     20  C   UNL     1       2.882  -3.516  -4.914  0.00  0.00    +0.095 A 
ATOM     21  C   UNL     1       3.529  -2.353  -4.539  0.00  0.00    +0.028 A 
ATOM     22  C   UNL     1       4.844  -2.143  -4.908  0.00  0.00    +0.005 A 
ENDBRANCH  13  20
ENDBRANCH   1  13
BRANCH   2  23
ATOM     23  N   UNL     1       1.222  -2.667  -1.404  0.00  0.00    -0.308 N 
ATOM     24  H   UNL     1       1.206  -2.033  -2.138  0.00  0.00    +0.149 HD
BRANCH  23  25
ATOM     25  C   UNL     1       1.228  -2.186  -0.020  0.00  0.00    +0.139 C 
BRANCH  25  26
ATOM     26  C   UNL     1       1.208  -0.679  -0.013  0.00  0.00    -0.030 A 
ATOM     27  C   UNL     1       0.002  -0.004   0.002  0.00  0.00    +0.006 A 
ATOM     28  C   UNL     1      -0.017   1.378   0.010  0.00  0.00    +0.020 A 
ATOM     29  C   UNL     1       1.172   2.086   0.002  0.00  0.00    +0.041 A 
ATOM     30  C   UNL     1       2.379   1.409  -0.013  0.00  0.00    +0.020 A 
ATOM     31  C   UNL     1       2.397   0.027  -0.020  0.00  0.00    +0.006 A 
ATOM     32 CL   UNL     1       1.149   3.821   0.011  0.00  0.00    -0.084 Cl
ENDBRANCH  25  26
ENDBRANCH  23  25
ENDBRANCH   2  23
TORSDOF 6
