REMARK  Name = ZINC38661668
REMARK  13 active torsions:
REMARK  status: ('A' for Active; 'I' for Inactive)
REMARK    1  A    between atoms: C_1  and  C_2
REMARK    2  A    between atoms: C_2  and  O_3
REMARK    3  A    between atoms: O_3  and  C_4
REMARK    4  A    between atoms: C_4  and  C_6
REMARK    5  A    between atoms: C_8  and  N_20
REMARK    6  A    between atoms: C_11  and  O_18
REMARK    7  A    between atoms: C_12  and  O_16
REMARK    8  A    between atoms: O_16  and  C_17
REMARK    9  A    between atoms: O_18  and  C_19
REMARK   10  A    between atoms: C_21  and  C_23
REMARK   11  A    between atoms: C_23  and  C_24
REMARK   12  A    between atoms: C_23  and  C_30
REMARK   13  A    between atoms: C_23  and  O_36
REMARK                            x       y       z     vdW  Elec       q    Type
REMARK                         _______ _______ _______ _____ _____    ______ ____
ROOT
ATOM      1  C   UNL     1      -1.919  -2.710  -1.657  0.00  0.00    +0.234 C 
ATOM      2  C   UNL     1      -3.196  -2.379  -2.398  0.00  0.00    +0.053 C 
ATOM      3  C   UNL     1      -3.721  -3.591  -2.803  0.00  0.00    +0.021 A 
ATOM      4  C   UNL     1      -4.892  -3.928  -3.530  0.00  0.00    +0.061 A 
ATOM      5  C   UNL     1      -5.168  -5.229  -3.793  0.00  0.00    +0.162 A 
ATOM      6  C   UNL     1      -4.317  -6.264  -3.360  0.00  0.00    +0.163 A 
ATOM      7  C   UNL     1      -3.179  -6.007  -2.659  0.00  0.00    +0.075 A 
ATOM      8  C   UNL     1      -2.828  -4.671  -2.349  0.00  0.00    +0.049 A 
ATOM      9  N   UNL     1      -1.796  -4.170  -1.692  0.00  0.00    -0.367 N 
ATOM     10  H   UNL     1      -1.075  -4.685  -1.298  0.00  0.00    +0.161 HD
ENDROOT
BRANCH   2  11
ATOM     11  N   UNL     1      -3.722  -1.139  -2.619  0.00  0.00    -0.283 N 
ATOM     12  C   UNL     1      -3.146  -0.054  -2.064  0.00  0.00    +0.258 C 
ATOM     13  O   UNL     1      -2.126  -0.172  -1.420  0.00  0.00    -0.272 OA
ATOM     14  H   UNL     1      -4.510  -1.039  -3.175  0.00  0.00    +0.155 HD
BRANCH  12  15
ATOM     15  C   UNL     1      -3.769   1.306  -2.245  0.00  0.00    +0.192 C 
BRANCH  15  16
ATOM     16  C   UNL     1      -3.358   2.202  -1.106  0.00  0.00    -0.003 A 
ATOM     17  C   UNL     1      -2.020   2.464  -0.880  0.00  0.00    +0.007 A 
ATOM     18  C   UNL     1      -1.643   3.286   0.165  0.00  0.00    +0.000 A 
ATOM     19  C   UNL     1      -2.604   3.848   0.984  0.00  0.00    +0.000 A 
ATOM     20  C   UNL     1      -3.943   3.587   0.757  0.00  0.00    +0.000 A 
ATOM     21  C   UNL     1      -4.320   2.768  -0.290  0.00  0.00    +0.007 A 
ENDBRANCH  15  16
BRANCH  15  22
ATOM     22  C   UNL     1      -3.303   1.903  -3.548  0.00  0.00    -0.003 A 
ATOM     23  C   UNL     1      -1.967   1.840  -3.898  0.00  0.00    +0.007 A 
ATOM     24  C   UNL     1      -1.540   2.388  -5.093  0.00  0.00    +0.000 A 
ATOM     25  C   UNL     1      -2.448   2.998  -5.938  0.00  0.00    +0.000 A 
ATOM     26  C   UNL     1      -3.784   3.060  -5.588  0.00  0.00    +0.000 A 
ATOM     27  C   UNL     1      -4.212   2.508  -4.395  0.00  0.00    +0.007 A 
ENDBRANCH  15  22
BRANCH  15  28
ATOM     28  O   UNL     1      -5.193   1.179  -2.262  0.00  0.00    -0.371 OA
ATOM     29  H   UNL     1      -5.563   0.800  -1.453  0.00  0.00    +0.212 HD
ENDBRANCH  15  28
ENDBRANCH  12  15
ENDBRANCH   2  11
BRANCH   1  30
ATOM     30  C   UNL     1      -0.740  -2.073  -2.346  0.00  0.00    +0.336 C 
ATOM     31  O   UNL     1      -0.256  -2.596  -3.322  0.00  0.00    -0.248 OA
BRANCH  30  32
ATOM     32  O   UNL     1      -0.229  -0.924  -1.877  0.00  0.00    -0.463 OA
BRANCH  32  34
ATOM     33  C   UNL     1       1.330   0.922  -1.903  0.00  0.00    +0.048 C 
ATOM     34  C   UNL     1       0.889  -0.377  -2.579  0.00  0.00    +0.229 C 
ENDBRANCH  32  34
ENDBRANCH  30  32
ENDBRANCH   1  30
BRANCH   6  35
ATOM     35  O   UNL     1      -4.639  -7.550  -3.649  0.00  0.00    -0.491 OA
ATOM     36  C   UNL     1      -3.743  -8.562  -3.187  0.00  0.00    +0.277 C 
ENDBRANCH   6  35
BRANCH   5  37
ATOM     37  O   UNL     1      -6.294  -5.543  -4.491  0.00  0.00    -0.491 OA
ATOM     38  C   UNL     1      -7.123  -4.455  -4.906  0.00  0.00    +0.277 C 
ENDBRANCH   5  37
TORSDOF 10
