REMARK  Name = ZINC24105873
REMARK  11 active torsions:
REMARK  status: ('A' for Active; 'I' for Inactive)
REMARK    1  A    between atoms: C_1  and  C_2
REMARK    2  A    between atoms: C_2  and  C_3
REMARK    3  A    between atoms: C_2  and  C_4
REMARK    4  A    between atoms: C_7  and  O_10
REMARK    5  A    between atoms: O_10  and  C_11
REMARK    6  A    between atoms: C_11  and  C_12
REMARK    7  A    between atoms: C_15  and  S_18
REMARK    8  A    between atoms: N_16  and  N_17
REMARK    9  A    between atoms: S_18  and  C_19
REMARK   10  A    between atoms: C_19  and  C_20
REMARK   11  A    between atoms: C_26  and  C_31
REMARK                            x       y       z     vdW  Elec       q    Type
REMARK                         _______ _______ _______ _____ _____    ______ ____
ROOT
ATOM      1  C   UNL     1      -7.113  -3.201  -0.875  0.00  0.00    +0.189 A 
ATOM      2  N   UNL     1      -7.528  -4.269  -0.256  0.00  0.00    -0.128 NA
ATOM      3  N   UNL     1      -8.812  -4.326  -0.286  0.00  0.00    -0.121 NA
ATOM      4  C   UNL     1      -9.289  -3.287  -0.932  0.00  0.00    +0.209 A 
ATOM      5  N   UNL     1      -8.219  -2.534  -1.324  0.00  0.00    -0.225 N 
ENDROOT
BRANCH   5   6
ATOM      6  N   UNL     1      -8.248  -1.361  -2.022  0.00  0.00    -0.295 N 
ATOM      7  H   UNL     1      -8.217  -1.530  -3.016  0.00  0.00    +0.163 HD
ATOM      8  H   UNL     1      -9.058  -0.812  -1.774  0.00  0.00    +0.163 HD
ENDBRANCH   5   6
BRANCH   1   9
ATOM      9  C   UNL     1      -5.679  -2.776  -1.058  0.00  0.00    +0.306 C 
BRANCH   9  10
ATOM     10  O   UNL     1      -5.282  -1.955   0.043  0.00  0.00    -0.484 OA
BRANCH  10  14
ATOM     11  C   UNL     1      -1.412  -0.526   0.013  0.00  0.00    -0.045 A 
ATOM     12  C   UNL     1      -2.258  -0.203   1.057  0.00  0.00    +0.007 A 
ATOM     13  C   UNL     1      -3.555  -0.681   1.070  0.00  0.00    +0.046 A 
ATOM     14  C   UNL     1      -4.007  -1.484   0.033  0.00  0.00    +0.121 A 
ATOM     15  C   UNL     1      -3.156  -1.805  -1.015  0.00  0.00    +0.046 A 
ATOM     16  C   UNL     1      -1.862  -1.321  -1.025  0.00  0.00    +0.007 A 
BRANCH  11  18
ATOM     17  C   UNL     1      -0.019   1.526   0.010  0.00  0.00    +0.012 C 
ATOM     18  C   UNL     1       0.002  -0.004   0.002  0.00  0.00    +0.013 C 
ATOM     19  C   UNL     1       0.742  -0.511   1.242  0.00  0.00    +0.012 C 
ENDBRANCH  11  18
ENDBRANCH  10  14
ENDBRANCH   9  10
ENDBRANCH   1   9
BRANCH   4  20
ATOM     20  S   UNL     1     -10.988  -2.929  -1.232  0.00  0.00    -0.077 S 
BRANCH  20  21
ATOM     21  C   UNL     1     -11.871  -4.307  -0.449  0.00  0.00    +0.151 C 
BRANCH  21  22
ATOM     22  C   UNL     1     -13.355  -4.122  -0.634  0.00  0.00    +0.121 A 
ATOM     23  N   UNL     1     -14.212  -5.041  -0.119  0.00  0.00    -0.310 N 
ATOM     24  H   UNL     1     -13.856  -5.805   0.362  0.00  0.00    +0.170 HD
ATOM     25  C   UNL     1     -15.544  -4.913  -0.262  0.00  0.00    +0.260 A 
ATOM     26  O   UNL     1     -16.299  -5.746   0.208  0.00  0.00    -0.267 OA
ATOM     27  C   UNL     1     -16.060  -3.783  -0.972  0.00  0.00    +0.083 A 
ATOM     28  C   UNL     1     -17.445  -3.425  -1.256  0.00  0.00    +0.039 A 
ATOM     29  C   UNL     1     -17.694  -2.289  -1.956  0.00  0.00    +0.059 A 
ATOM     30  S   UNL     1     -16.067  -1.636  -2.274  0.00  0.00    -0.076 S 
ATOM     31  C   UNL     1     -15.100  -2.886  -1.469  0.00  0.00    +0.116 A 
ATOM     32  N   UNL     1     -13.796  -3.078  -1.283  0.00  0.00    -0.226 NA
BRANCH  28  33
ATOM     33  C   UNL     1     -18.555  -4.282  -0.791  0.00  0.00    +0.136 A 
ATOM     34  C   UNL     1     -19.658  -3.862  -0.116  0.00  0.00    +0.050 A 
ATOM     35  C   UNL     1     -20.447  -5.006   0.125  0.00  0.00    +0.042 A 
ATOM     36  C   UNL     1     -19.793  -6.055  -0.409  0.00  0.00    +0.196 A 
ATOM     37  O   UNL     1     -18.653  -5.613  -0.967  0.00  0.00    -0.463 OA
ENDBRANCH  28  33
ENDBRANCH  21  22
ENDBRANCH  20  21
ENDBRANCH   4  20
TORSDOF 9
