REMARK  Name = ZINC39448391
REMARK  7 active torsions:
REMARK  status: ('A' for Active; 'I' for Inactive)
REMARK    1  A    between atoms: C_3  and  C_10
REMARK    2  A    between atoms: C_5  and  N_7
REMARK    3  A    between atoms: C_13  and  C_15
REMARK    4  A    between atoms: N_18  and  C_21
REMARK    5  A    between atoms: C_21  and  C_22
REMARK    6  A    between atoms: C_24  and  C_32
REMARK    7  A    between atoms: C_26  and  C_28
REMARK                            x       y       z     vdW  Elec       q    Type
REMARK                         _______ _______ _______ _____ _____    ______ ____
ROOT
ATOM      1  C   UNL     1       6.084   5.148  -0.022  0.00  0.00    +0.038 C 
ATOM      2  C   UNL     1       5.803   5.906  -1.323  0.00  0.00    +0.025 C 
ATOM      3  C   UNL     1       6.619   7.200  -1.339  0.00  0.00    +0.085 C 
ATOM      4  N   UNL     1       8.048   6.880  -1.238  0.00  0.00    -0.298 NA
ATOM      5  C   UNL     1       8.350   6.194   0.025  0.00  0.00    +0.085 C 
ATOM      6  C   UNL     1       7.586   4.870   0.082  0.00  0.00    +0.025 C 
ENDROOT
BRANCH   1  10
ATOM      7  C   UNL     1       3.653   2.155  -0.022  0.00  0.00    +0.076 C 
ATOM      8  N   UNL     1       4.860   1.661  -0.042  0.00  0.00    -0.153 NA
ATOM      9  N   UNL     1       5.834   2.653  -0.044  0.00  0.00    -0.158 NA
ATOM     10  C   UNL     1       5.329   3.844  -0.026  0.00  0.00    +0.050 C 
ATOM     11  C   UNL     1       3.825   3.662  -0.016  0.00  0.00    +0.110 C 
BRANCH   7  14
ATOM     12  C   UNL     1      -0.017   1.380   0.010  0.00  0.00    +0.003 A 
ATOM     13  C   UNL     1       1.166   2.089   0.002  0.00  0.00    +0.010 A 
ATOM     14  C   UNL     1       2.386   1.406  -0.013  0.00  0.00    +0.001 A 
ATOM     15  C   UNL     1       2.397   0.008  -0.021  0.00  0.00    +0.042 A 
ATOM     16  C   UNL     1       1.206  -0.687  -0.013  0.00  0.00    +0.127 A 
ATOM     17  C   UNL     1       0.002  -0.004   0.002  0.00  0.00    +0.033 A 
BRANCH  16  18
ATOM     18  N   UNL     1       1.215  -2.167  -0.021  0.00  0.00    +0.056 N 
ATOM     19  O   UNL     1       2.265  -2.765  -0.035  0.00  0.00    -0.126 OA
ATOM     20  O   UNL     1       0.172  -2.778  -0.015  0.00  0.00    -0.126 OA
ENDBRANCH  16  18
ENDBRANCH   7  14
ENDBRANCH   1  10
BRANCH   4  21
ATOM     21  C   UNL     1       8.870   8.089  -1.390  0.00  0.00    +0.119 C 
BRANCH  21  22
ATOM     22  C   UNL     1      10.319   7.697  -1.527  0.00  0.00    -0.032 A 
ATOM     23  C   UNL     1      11.111   7.574  -0.400  0.00  0.00    +0.017 A 
ATOM     24  C   UNL     1      12.440   7.214  -0.526  0.00  0.00    +0.056 A 
ATOM     25  C   UNL     1      12.976   6.977  -1.777  0.00  0.00    +0.024 A 
ATOM     26  C   UNL     1      12.184   7.099  -2.904  0.00  0.00    +0.056 A 
ATOM     27  C   UNL     1      10.854   7.455  -2.778  0.00  0.00    +0.017 A 
BRANCH  26  28
ATOM     28  C   UNL     1      12.770   6.842  -4.268  0.00  0.00    +0.417 C 
ATOM     29  F   UNL     1      14.120   6.497  -4.139  0.00  0.00    -0.166 F 
ATOM     30  F   UNL     1      12.077   5.793  -4.882  0.00  0.00    -0.166 F 
ATOM     31  F   UNL     1      12.656   7.996  -5.050  0.00  0.00    -0.166 F 
ENDBRANCH  26  28
BRANCH  24  32
ATOM     32  C   UNL     1      13.303   7.081   0.702  0.00  0.00    +0.417 C 
ATOM     33  F   UNL     1      13.235   5.767   1.180  0.00  0.00    -0.166 F 
ATOM     34  F   UNL     1      14.628   7.391   0.377  0.00  0.00    -0.166 F 
ATOM     35  F   UNL     1      12.848   7.960   1.690  0.00  0.00    -0.166 F 
ENDBRANCH  24  32
ENDBRANCH  21  22
ENDBRANCH   4  21
TORSDOF 7
