REMARK  Name = ZINC39724289
REMARK  11 active torsions:
REMARK  status: ('A' for Active; 'I' for Inactive)
REMARK    1  A    between atoms: C_1  and  C_2
REMARK    2  A    between atoms: C_2  and  C_3
REMARK    3  A    between atoms: C_11  and  S_20
REMARK    4  A    between atoms: N_12  and  C_15
REMARK    5  A    between atoms: C_15  and  C_16
REMARK    6  A    between atoms: C_16  and  C_17
REMARK    7  A    between atoms: C_17  and  O_18
REMARK    8  A    between atoms: O_18  and  C_19
REMARK    9  A    between atoms: S_20  and  C_21
REMARK   10  A    between atoms: C_21  and  C_22
REMARK   11  A    between atoms: C_30  and  C_34
REMARK                            x       y       z     vdW  Elec       q    Type
REMARK                         _______ _______ _______ _____ _____    ______ ____
ROOT
ATOM      1  C   UNL     1      -1.412  -0.526   0.013  0.00  0.00    -0.016 C 
ATOM      2  C   UNL     1      -2.151  -0.894  -1.042  0.00  0.00    -0.001 C 
ATOM      3  C   UNL     1      -3.557  -1.313  -0.784  0.00  0.00    +0.134 C 
ATOM      4  C   UNL     1      -3.601  -1.955   0.644  0.00  0.00    +0.185 C 
ATOM      5  S   UNL     1      -2.465  -0.795   1.445  0.00  0.00    -0.102 S 
ATOM      6  N   UNL     1      -4.958  -2.064   1.039  0.00  0.00    -0.247 NA
ATOM      7  C   UNL     1      -5.761  -2.579   0.113  0.00  0.00    +0.160 C 
ATOM      8  N   UNL     1      -5.243  -2.999  -1.104  0.00  0.00    -0.250 N 
ATOM      9  C   UNL     1      -4.141  -2.403  -1.647  0.00  0.00    +0.231 C 
ATOM     10  O   UNL     1      -3.690  -2.707  -2.731  0.00  0.00    -0.274 OA
ENDROOT
BRANCH   1  12
ATOM     11  C   UNL     1      -0.019   1.526   0.010  0.00  0.00    +0.009 C 
ATOM     12  C   UNL     1       0.002  -0.004   0.002  0.00  0.00    +0.038 C 
ENDBRANCH   1  12
BRANCH   8  13
ATOM     13  C   UNL     1      -5.873  -4.120  -1.806  0.00  0.00    +0.118 C 
BRANCH  13  14
ATOM     14  C   UNL     1      -6.964  -3.590  -2.738  0.00  0.00    +0.047 C 
BRANCH  14  15
ATOM     15  C   UNL     1      -7.622  -4.761  -3.471  0.00  0.00    +0.161 C 
BRANCH  15  16
ATOM     16  O   UNL     1      -8.641  -4.266  -4.342  0.00  0.00    -0.383 OA
ATOM     17  C   UNL     1      -9.322  -5.284  -5.078  0.00  0.00    +0.193 C 
ENDBRANCH  15  16
ENDBRANCH  14  15
ENDBRANCH  13  14
ENDBRANCH   8  13
BRANCH   7  18
ATOM     18  S   UNL     1      -7.487  -2.729   0.432  0.00  0.00    -0.083 S 
BRANCH  18  19
ATOM     19  C   UNL     1      -7.683  -2.066   2.109  0.00  0.00    +0.151 C 
BRANCH  19  20
ATOM     20  C   UNL     1      -9.133  -2.137   2.511  0.00  0.00    +0.121 A 
ATOM     21  N   UNL     1      -9.484  -1.678   3.741  0.00  0.00    -0.310 N 
ATOM     22  H   UNL     1      -8.804  -1.318   4.331  0.00  0.00    +0.170 HD
ATOM     23  C   UNL     1     -10.774  -1.719   4.149  0.00  0.00    +0.259 A 
ATOM     24  O   UNL     1     -11.102  -1.311   5.248  0.00  0.00    -0.267 OA
ATOM     25  C   UNL     1     -11.765  -2.276   3.212  0.00  0.00    +0.065 A 
ATOM     26  C   UNL     1     -13.117  -2.361   3.538  0.00  0.00    +0.016 A 
ATOM     27  C   UNL     1     -14.002  -2.884   2.639  0.00  0.00    +0.016 A 
ATOM     28  C   UNL     1     -13.563  -3.337   1.388  0.00  0.00    +0.065 A 
ATOM     29  C   UNL     1     -12.218  -3.261   1.043  0.00  0.00    +0.043 A 
ATOM     30  C   UNL     1     -11.305  -2.728   1.956  0.00  0.00    +0.079 A 
ATOM     31  N   UNL     1      -9.984  -2.628   1.662  0.00  0.00    -0.233 NA
BRANCH  28  32
ATOM     32  C   UNL     1     -14.536  -3.899   0.428  0.00  0.00    +0.387 C 
ATOM     33  O   UNL     1     -15.720  -3.968   0.727  0.00  0.00    -0.241 OA
ATOM     34  O   UNL     1     -14.158  -4.296  -0.664  0.00  0.00    -0.241 OA
ENDBRANCH  28  32
ENDBRANCH  19  20
ENDBRANCH  18  19
ENDBRANCH   7  18
TORSDOF 9
