REMARK  Name = ZINC39198225
REMARK  6 active torsions:
REMARK  status: ('A' for Active; 'I' for Inactive)
REMARK    1  A    between atoms: C_1  and  C_2
REMARK    2  A    between atoms: C_5  and  N_8
REMARK    3  A    between atoms: C_9  and  C_11
REMARK    4  A    between atoms: N_14  and  C_17
REMARK    5  A    between atoms: C_17  and  C_18
REMARK    6  A    between atoms: C_19  and  C_27
REMARK                            x       y       z     vdW  Elec       q    Type
REMARK                         _______ _______ _______ _____ _____    ______ ____
ROOT
ATOM      1  C   UNL     1      -1.387  -3.500   4.923  0.00  0.00    +0.071 C 
ATOM      2  C   UNL     1      -0.848  -2.072   5.038  0.00  0.00    -0.006 C 
ATOM      3  C   UNL     1      -1.597  -1.338   6.152  0.00  0.00    -0.078 C 
ATOM      4  N   UNL     1      -1.400  -2.041   7.425  0.00  0.00    +0.383 N 
ATOM      5  C   UNL     1      -1.979  -3.388   7.345  0.00  0.00    -0.078 C 
ATOM      6  C   UNL     1      -1.244  -4.200   6.277  0.00  0.00    -0.006 C 
ATOM      7  H   UNL     1      -0.412  -2.112   7.620  0.00  0.00    -0.081 HD
ENDROOT
BRANCH   1   9
ATOM      8  N   UNL     1      -0.580  -3.817   2.606  0.00  0.00    -0.312 N 
ATOM      9  C   UNL     1      -0.600  -4.253   3.881  0.00  0.00    +0.216 C 
ATOM     10  O   UNL     1       0.015  -5.252   4.190  0.00  0.00    -0.276 OA
ATOM     11  H   UNL     1      -1.072  -3.018   2.359  0.00  0.00    +0.149 HD
BRANCH   8  16
ATOM     12  C   UNL     1       1.174  -0.815  -0.358  0.00  0.00    +0.007 C 
ATOM     13  C   UNL     1       1.110  -2.314  -0.060  0.00  0.00    -0.014 C 
ATOM     14  C   UNL     1      -0.348  -2.778  -0.088  0.00  0.00    +0.005 C 
ATOM     15  C   UNL     1      -0.411  -4.278   0.210  0.00  0.00    +0.022 C 
ATOM     16  C   UNL     1       0.184  -4.549   1.593  0.00  0.00    +0.073 C 
ATOM     17  C   UNL     1       1.642  -4.085   1.621  0.00  0.00    +0.022 C 
ATOM     18  C   UNL     1       1.706  -2.585   1.323  0.00  0.00    +0.005 C 
ENDBRANCH   8  16
ENDBRANCH   1   9
BRANCH   4  19
ATOM     19  C   UNL     1      -2.056  -1.291   8.505  0.00  0.00    -0.022 C 
BRANCH  19  20
ATOM     20  C   UNL     1      -1.752  -1.945   9.828  0.00  0.00    +0.035 A 
ATOM     21  C   UNL     1      -2.542  -2.833  10.492  0.00  0.00    +0.091 A 
ATOM     22  N   UNL     1      -1.920  -3.181  11.630  0.00  0.00    -0.228 NA
ATOM     23  C   UNL     1      -0.763  -2.541  11.705  0.00  0.00    +0.138 A 
ATOM     24  N   UNL     1      -0.629  -1.762  10.585  0.00  0.00    -0.305 N 
ATOM     25  C   UNL     1       0.487  -0.996  10.405  0.00  0.00    +0.093 A 
ATOM     26  C   UNL     1       1.475  -0.994  11.324  0.00  0.00    +0.018 A 
ATOM     27  C   UNL     1       1.369  -1.784  12.481  0.00  0.00    +0.005 A 
ATOM     28  C   UNL     1       0.259  -2.546  12.677  0.00  0.00    +0.047 A 
BRANCH  21  29
ATOM     29  C   UNL     1      -3.864  -3.331  10.037  0.00  0.00    +0.002 A 
ATOM     30  C   UNL     1      -4.179  -4.683  10.151  0.00  0.00    +0.010 A 
ATOM     31  C   UNL     1      -5.410  -5.141   9.726  0.00  0.00    +0.001 A 
ATOM     32  C   UNL     1      -6.330  -4.259   9.188  0.00  0.00    +0.000 A 
ATOM     33  C   UNL     1      -6.022  -2.915   9.072  0.00  0.00    +0.001 A 
ATOM     34  C   UNL     1      -4.797  -2.446   9.500  0.00  0.00    +0.010 A 
ENDBRANCH  21  29
ENDBRANCH  19  20
ENDBRANCH   4  19
TORSDOF 5
