REMARK  Name = ZINC15626006
REMARK  6 active torsions:
REMARK  status: ('A' for Active; 'I' for Inactive)
REMARK    1  A    between atoms: C_1  and  C_2
REMARK    2  A    between atoms: C_2  and  C_4
REMARK    3  A    between atoms: C_2  and  N_12
REMARK    4  A    between atoms: C_13  and  C_15
REMARK    5  A    between atoms: N_18  and  S_21
REMARK    6  A    between atoms: S_21  and  C_24
REMARK                            x       y       z     vdW  Elec       q    Type
REMARK                         _______ _______ _______ _____ _____    ______ ____
ROOT
ATOM      1  C   UNL     1      -2.276   4.992  -2.321  0.00  0.00    +0.077 C 
ATOM      2  C   UNL     1      -1.670   6.168  -1.552  0.00  0.00    +0.030 C 
ATOM      3  C   UNL     1      -1.550   7.376  -2.487  0.00  0.00    +0.110 C 
ATOM      4  N   UNL     1      -2.868   7.654  -3.073  0.00  0.00    -0.177 NA
ATOM      5  C   UNL     1      -3.580   6.566  -3.757  0.00  0.00    +0.110 C 
ATOM      6  C   UNL     1      -3.678   5.367  -2.808  0.00  0.00    +0.030 C 
ENDROOT
BRANCH   1   8
ATOM      7  N   UNL     1      -1.246   3.280  -0.862  0.00  0.00    -0.309 N 
ATOM      8  C   UNL     1      -2.365   3.792  -1.414  0.00  0.00    +0.217 C 
ATOM      9  O   UNL     1      -3.442   3.286  -1.180  0.00  0.00    -0.275 OA
ATOM     10  H   UNL     1      -0.385   3.685  -1.049  0.00  0.00    +0.149 HD
BRANCH   7  12
ATOM     11  C   UNL     1      -1.648   2.573   1.444  0.00  0.00    +0.033 C 
ATOM     12  C   UNL     1      -1.332   2.114   0.020  0.00  0.00    +0.100 C 
BRANCH  12  13
ATOM     13  C   UNL     1      -0.017   1.378   0.010  0.00  0.00    -0.026 A 
ATOM     14  C   UNL     1       0.002  -0.004   0.002  0.00  0.00    +0.007 A 
ATOM     15  C   UNL     1       1.208  -0.679  -0.013  0.00  0.00    +0.022 A 
ATOM     16  C   UNL     1       2.397   0.028  -0.021  0.00  0.00    +0.059 A 
ATOM     17  C   UNL     1       2.378   1.412  -0.013  0.00  0.00    +0.060 A 
ATOM     18  C   UNL     1       1.170   2.087   0.002  0.00  0.00    +0.027 A 
ATOM     19 CL   UNL     1       3.869   2.301  -0.022  0.00  0.00    -0.082 Cl
ATOM     20 CL   UNL     1       3.912  -0.820  -0.039  0.00  0.00    -0.082 Cl
ENDBRANCH  12  13
ENDBRANCH   7  12
ENDBRANCH   1   8
BRANCH   4  21
ATOM     21  S   UNL     1      -3.539   9.164  -2.966  0.00  0.00    +0.061 S 
ATOM     22  O   UNL     1      -2.462  10.074  -2.788  0.00  0.00    -0.153 OA
ATOM     23  O   UNL     1      -4.462   9.276  -4.040  0.00  0.00    -0.153 OA
BRANCH  21  24
ATOM     24  C   UNL     1      -4.486   9.209  -1.480  0.00  0.00    +0.108 A 
ATOM     25  C   UNL     1      -5.820   8.848  -1.501  0.00  0.00    +0.031 A 
ATOM     26  C   UNL     1      -6.564   8.877  -0.336  0.00  0.00    +0.043 A 
ATOM     27  C   UNL     1      -5.975   9.278   0.851  0.00  0.00    +0.159 A 
ATOM     28  C   UNL     1      -4.638   9.646   0.870  0.00  0.00    +0.160 A 
ATOM     29  C   UNL     1      -3.895   9.610  -0.297  0.00  0.00    +0.069 A 
ATOM     30  F   UNL     1      -4.062  10.038   2.027  0.00  0.00    -0.202 F 
ATOM     31  F   UNL     1      -6.702   9.312   1.988  0.00  0.00    -0.202 F 
ENDBRANCH  21  24
ENDBRANCH   4  21
TORSDOF 5
