REMARK  Name = ZINC16557563
REMARK  9 active torsions:
REMARK  status: ('A' for Active; 'I' for Inactive)
REMARK    1  A    between atoms: C_1  and  C_2
REMARK    2  A    between atoms: C_2  and  N_51
REMARK    3  A    between atoms: C_3  and  C_4
REMARK    4  A    between atoms: C_3  and  N_51
REMARK    5  A    between atoms: C_13  and  C_15
REMARK    6  A    between atoms: C_16  and  C_17
REMARK    7  A    between atoms: C_16  and  N_51
REMARK    8  A    between atoms: N_19  and  C_20
REMARK    9  A    between atoms: C_25  and  C_26
REMARK                            x       y       z     vdW  Elec       q    Type
REMARK                         _______ _______ _______ _____ _____    ______ ____
ROOT
ATOM      1  N   UNL     1      -1.759   2.397  -1.363  0.00  0.00    +0.388 N 
ATOM      2  H   UNL     1      -1.130   2.973  -1.934  0.00  0.00    -0.081 HD
ENDROOT
BRANCH   1   4
ATOM      3  C   UNL     1      -2.684   0.124  -1.065  0.00  0.00    -0.017 C 
ATOM      4  C   UNL     1      -1.807   1.033  -1.929  0.00  0.00    -0.081 C 
ENDBRANCH   1   4
BRANCH   1   5
ATOM      5  C   UNL     1      -1.244   2.352   0.022  0.00  0.00    -0.041 C 
BRANCH   5   6
ATOM      6  C   UNL     1       0.206   1.943  -0.012  0.00  0.00    -0.047 A 
ATOM      7  C   UNL     1       0.578   0.669   0.270  0.00  0.00    +0.094 A 
ATOM      8  C   UNL     1       1.943   0.310   0.226  0.00  0.00    +0.337 A 
ATOM      9  O   UNL     1       2.264  -0.836   0.481  0.00  0.00    -0.245 OA
ATOM     10  O   UNL     1       2.896   1.201  -0.091  0.00  0.00    -0.422 OA
ATOM     11  C   UNL     1       2.593   2.484  -0.382  0.00  0.00    +0.139 A 
ATOM     12  C   UNL     1       1.253   2.910  -0.356  0.00  0.00    +0.019 A 
ATOM     13  C   UNL     1       0.937   4.238  -0.656  0.00  0.00    +0.012 A 
ATOM     14  C   UNL     1       1.943   5.122  -0.975  0.00  0.00    +0.004 A 
ATOM     15  C   UNL     1       3.265   4.700  -0.999  0.00  0.00    -0.047 A 
ATOM     16  C   UNL     1       3.592   3.393  -0.706  0.00  0.00    +0.050 A 
ATOM     17  C   UNL     1       4.354   5.680  -1.350  0.00  0.00    +0.044 C 
ENDBRANCH   5   6
ENDBRANCH   1   5
BRANCH   1  18
ATOM     18  C   UNL     1      -3.109   2.999  -1.380  0.00  0.00    +0.019 C 
BRANCH  18  19
ATOM     19  C   UNL     1      -3.452   3.378  -2.798  0.00  0.00    +0.201 C 
ATOM     20  O   UNL     1      -2.626   3.249  -3.676  0.00  0.00    -0.278 OA
ATOM     21  N   UNL     1      -4.676   3.859  -3.089  0.00  0.00    -0.287 N 
ATOM     22  H   UNL     1      -5.312   4.032  -2.377  0.00  0.00    +0.155 HD
BRANCH  21  23
ATOM     23  C   UNL     1      -5.031   4.110  -4.419  0.00  0.00    +0.038 A 
ATOM     24  C   UNL     1      -4.053   4.435  -5.351  0.00  0.00    +0.043 A 
ATOM     25  C   UNL     1      -4.406   4.677  -6.665  0.00  0.00    +0.043 A 
ATOM     26  C   UNL     1      -5.734   4.606  -7.050  0.00  0.00    +0.020 A 
ATOM     27  C   UNL     1      -6.710   4.289  -6.123  0.00  0.00    +0.006 A 
ATOM     28  C   UNL     1      -6.362   4.041  -4.809  0.00  0.00    -0.029 A 
ATOM     29  C   UNL     1      -7.426   3.695  -3.800  0.00  0.00    +0.045 C 
ATOM     30 CL   UNL     1      -3.185   5.075  -7.832  0.00  0.00    -0.083 Cl
ENDBRANCH  21  23
ENDBRANCH  18  19
ENDBRANCH   1  18
TORSDOF 6
