REMARK  Name = ZINC63280788
REMARK  12 active torsions:
REMARK  status: ('A' for Active; 'I' for Inactive)
REMARK    1  A    between atoms: C_1  and  C_2
REMARK    2  A    between atoms: C_4  and  C_17
REMARK    3  A    between atoms: C_7  and  O_12
REMARK    4  A    between atoms: O_12  and  C_13
REMARK    5  A    between atoms: C_17  and  C_18
REMARK    6  A    between atoms: C_18  and  N_19
REMARK    7  A    between atoms: C_20  and  C_22
REMARK    8  A    between atoms: C_28  and  O_30
REMARK    9  A    between atoms: O_30  and  C_31
REMARK   10  A    between atoms: C_31  and  C_32
REMARK   11  A    between atoms: C_31  and  C_33
REMARK   12  A    between atoms: C_31  and  C_34
REMARK                            x       y       z     vdW  Elec       q    Type
REMARK                         _______ _______ _______ _____ _____    ______ ____
ROOT
ATOM      1  C   UNL     1       1.363  -0.963  -3.578  0.00  0.00    +0.108 C 
ENDROOT
BRANCH   1   2
ATOM      2  N   UNL     1       0.997  -0.729  -4.977  0.00  0.00    -0.315 N 
ATOM      3  C   UNL     1       1.750  -1.249  -5.967  0.00  0.00    +0.216 C 
ATOM      4  O   UNL     1       2.731  -1.910  -5.699  0.00  0.00    -0.276 OA
ATOM      5  H   UNL     1       0.212  -0.201  -5.192  0.00  0.00    +0.149 HD
BRANCH   3   6
ATOM      6  C   UNL     1       1.373  -1.009  -7.406  0.00  0.00    +0.078 C 
ATOM      7  C   UNL     1      -0.025  -1.574  -7.668  0.00  0.00    +0.032 C 
ATOM      8  C   UNL     1      -0.419  -1.297  -9.122  0.00  0.00    +0.112 C 
ATOM      9  N   UNL     1       0.625  -1.836 -10.005  0.00  0.00    -0.267 N 
ATOM     10  C   UNL     1       2.018  -1.429  -9.783  0.00  0.00    +0.112 C 
ATOM     11  C   UNL     1       2.385  -1.704  -8.321  0.00  0.00    +0.032 C 
ATOM     12  C   UNL     1       0.309  -2.689 -11.001  0.00  0.00    +0.403 C 
ATOM     13  O   UNL     1      -0.847  -3.018 -11.174  0.00  0.00    -0.226 OA
BRANCH  12  14
ATOM     14  O   UNL     1       1.275  -3.175 -11.802  0.00  0.00    -0.445 OA
BRANCH  14  15
ATOM     15  C   UNL     1       0.869  -4.073 -12.836  0.00  0.00    +0.107 C 
ATOM     16  C   UNL     1      -0.120  -3.367 -13.766  0.00  0.00    +0.055 C 
ATOM     17  C   UNL     1       2.095  -4.516 -13.637  0.00  0.00    +0.055 C 
ATOM     18  C   UNL     1       0.198  -5.298 -12.213  0.00  0.00    +0.055 C 
ENDBRANCH  14  15
ENDBRANCH  12  14
ENDBRANCH   3   6
ENDBRANCH   1   2
BRANCH   1  19
ATOM     19  C   UNL     1       0.352  -0.269  -2.664  0.00  0.00    +0.052 C 
BRANCH  19  22
ATOM     20  C   UNL     1      -0.019   1.526   0.010  0.00  0.00    +0.035 C 
ATOM     21  C   UNL     1       0.002  -0.004   0.002  0.00  0.00    +0.103 C 
ATOM     22  C   UNL     1       0.729  -0.509  -1.224  0.00  0.00    -0.037 C 
ATOM     23  C   UNL     1       1.785  -1.220  -0.768  0.00  0.00    +0.003 A 
ATOM     24  C   UNL     1       2.858  -1.954  -1.447  0.00  0.00    +0.056 A 
ATOM     25  C   UNL     1       3.803  -2.586  -0.711  0.00  0.00    +0.131 A 
ATOM     26  C   UNL     1       3.796  -2.567   0.695  0.00  0.00    +0.048 A 
ATOM     27  C   UNL     1       2.851  -1.919   1.409  0.00  0.00    +0.029 A 
ATOM     28  C   UNL     1       1.779  -1.200   0.713  0.00  0.00    +0.043 A 
ATOM     29  N   UNL     1       0.758  -0.506   1.155  0.00  0.00    -0.378 N 
ATOM     30  H   UNL     1       0.540  -0.349   2.087  0.00  0.00    +0.160 HD
BRANCH  25  31
ATOM     31  O   UNL     1       4.792  -3.263  -1.353  0.00  0.00    -0.406 OA
BRANCH  31  32
ATOM     32  C   UNL     1       5.767  -3.915  -0.537  0.00  0.00    +0.575 C 
ATOM     33  F   UNL     1       5.136  -4.859   0.280  0.00  0.00    -0.133 F 
ATOM     34  F   UNL     1       6.704  -4.558  -1.354  0.00  0.00    -0.133 F 
ATOM     35  F   UNL     1       6.417  -2.968   0.261  0.00  0.00    -0.133 F 
ENDBRANCH  31  32
ENDBRANCH  25  31
ENDBRANCH  19  22
ENDBRANCH   1  19
TORSDOF 8
