REMARK  Name = ZINC41584666
REMARK  5 active torsions:
REMARK  status: ('A' for Active; 'I' for Inactive)
REMARK    1  A    between atoms: C_8  and  C_12
REMARK    2  A    between atoms: C_21  and  O_37
REMARK    3  A    between atoms: C_22  and  C_23
REMARK    4  A    between atoms: C_23  and  N_24
REMARK    5  A    between atoms: C_29  and  C_31
REMARK                            x       y       z     vdW  Elec       q    Type
REMARK                         _______ _______ _______ _____ _____    ______ ____
ROOT
ATOM      1  C   UNL     1       2.618  -4.185   0.288  0.00  0.00    +0.006 A 
ATOM      2  C   UNL     1       2.269  -4.957  -0.807  0.00  0.00    +0.101 A 
ATOM      3  C   UNL     1       2.403  -6.352  -0.740  0.00  0.00    +0.338 A 
ATOM      4  O   UNL     1       2.094  -7.024  -1.709  0.00  0.00    -0.245 OA
ATOM      5  O   UNL     1       2.861  -6.968   0.362  0.00  0.00    -0.422 OA
ATOM      6  C   UNL     1       3.220  -6.280   1.467  0.00  0.00    +0.144 A 
ATOM      7  C   UNL     1       3.124  -4.879   1.486  0.00  0.00    +0.026 A 
ATOM      8  C   UNL     1       3.499  -4.165   2.625  0.00  0.00    +0.016 A 
ATOM      9  C   UNL     1       3.965  -4.832   3.722  0.00  0.00    +0.046 A 
ATOM     10  C   UNL     1       4.068  -6.221   3.710  0.00  0.00    +0.122 A 
ATOM     11  C   UNL     1       3.690  -6.944   2.591  0.00  0.00    +0.020 A 
ENDROOT
BRANCH   1  19
ATOM     12  C   UNL     1      -0.016   1.361   0.009  0.00  0.00    +0.001 A 
ATOM     13  C   UNL     1       1.169   2.083   0.002  0.00  0.00    +0.004 A 
ATOM     14  C   UNL     1       2.386   1.435  -0.025  0.00  0.00    +0.047 A 
ATOM     15  C   UNL     1       2.430   0.047  -0.039  0.00  0.00    +0.139 A 
ATOM     16  C   UNL     1       1.228  -0.684  -0.003  0.00  0.00    +0.018 A 
ATOM     17  C   UNL     1       0.002  -0.004   0.002  0.00  0.00    +0.011 A 
ATOM     18  C   UNL     1       1.266  -2.102   0.048  0.00  0.00    +0.027 A 
ATOM     19  C   UNL     1       2.491  -2.716   0.256  0.00  0.00    +0.068 A 
ATOM     20  C   UNL     1       3.664  -1.841   0.443  0.00  0.00    +0.345 A 
ATOM     21  O   UNL     1       4.641  -2.223   1.061  0.00  0.00    -0.245 OA
ATOM     22  O   UNL     1       3.618  -0.601  -0.095  0.00  0.00    -0.422 OA
ENDBRANCH   1  19
BRANCH  10  23
ATOM     23  O   UNL     1       4.534  -6.872   4.807  0.00  0.00    -0.506 OA
ATOM     24  H   UNL     1       3.844  -7.124   5.436  0.00  0.00    +0.292 HD
ENDBRANCH  10  23
BRANCH  11  25
ATOM     25  C   UNL     1       3.805  -8.447   2.587  0.00  0.00    -0.035 C 
BRANCH  25  26
ATOM     26  N   UNL     1       5.137  -8.835   2.104  0.00  0.00    +0.387 N 
ATOM     27  C   UNL     1       5.287  -8.423   0.703  0.00  0.00    -0.078 C 
ATOM     28  C   UNL     1       6.701  -8.752   0.219  0.00  0.00    -0.019 C 
ATOM     29  C   UNL     1       6.937 -10.260   0.337  0.00  0.00    -0.003 C 
ATOM     30  C   UNL     1       6.705 -10.691   1.788  0.00  0.00    -0.011 C 
ATOM     31  C   UNL     1       5.291 -10.291   2.214  0.00  0.00    -0.036 C 
ATOM     32  H   UNL     1       5.843  -8.380   2.664  0.00  0.00    -0.080 HD
BRANCH  31  33
ATOM     33  C   UNL     1       5.059 -10.713   3.641  0.00  0.00    -0.043 A 
ATOM     34  C   UNL     1       4.358 -11.876   3.924  0.00  0.00    +0.005 A 
ATOM     35  C   UNL     1       4.168 -12.226   5.252  0.00  0.00    +0.020 A 
ATOM     36  C   UNL     1       4.679 -11.410   6.243  0.00  0.00    +0.111 A 
ATOM     37  N   UNL     1       5.340 -10.310   5.937  0.00  0.00    -0.263 NA
ATOM     38  C   UNL     1       5.545  -9.950   4.685  0.00  0.00    +0.112 A 
ENDBRANCH  31  33
ENDBRANCH  25  26
ENDBRANCH  11  25
TORSDOF 5
