REMARK  Name = ZINC35924707
REMARK  9 active torsions:
REMARK  status: ('A' for Active; 'I' for Inactive)
REMARK    1  A    between atoms: C_1  and  C_2
REMARK    2  A    between atoms: C_5  and  C_8
REMARK    3  A    between atoms: C_8  and  C_9
REMARK    4  A    between atoms: C_13  and  C_22
REMARK    5  A    between atoms: N_15  and  C_16
REMARK    6  A    between atoms: C_23  and  N_25
REMARK    7  A    between atoms: N_29  and  C_32
REMARK    8  A    between atoms: C_32  and  C_33
REMARK    9  A    between atoms: C_38  and  O_39
REMARK                            x       y       z     vdW  Elec       q    Type
REMARK                         _______ _______ _______ _____ _____    ______ ____
ROOT
ATOM      1  C   UNL     1       1.523  -4.781  -0.044  0.00  0.00    +0.138 A 
ATOM      2  N   UNL     1       2.107  -4.969  -1.207  0.00  0.00    -0.212 NA
ATOM      3  C   UNL     1       3.366  -5.397  -1.275  0.00  0.00    +0.169 A 
ATOM      4  C   UNL     1       4.064  -5.646  -0.076  0.00  0.00    +0.082 A 
ATOM      5  C   UNL     1       5.357  -6.084  -0.435  0.00  0.00    +0.073 A 
ATOM      6  N   UNL     1       5.444  -6.100  -1.735  0.00  0.00    -0.169 NA
ATOM      7  N   UNL     1       4.230  -5.681  -2.294  0.00  0.00    -0.214 N 
ATOM      8  C   UNL     1       6.454  -6.467   0.525  0.00  0.00    +0.068 C 
ATOM      9  C   UNL     1       3.393  -5.430   1.143  0.00  0.00    +0.136 A 
ATOM     10  N   UNL     1       2.138  -4.997   1.105  0.00  0.00    -0.216 NA
ENDROOT
BRANCH   9  11
ATOM     11  N   UNL     1       4.027  -5.658   2.349  0.00  0.00    -0.316 N 
ATOM     12  C   UNL     1       4.665  -4.521   3.044  0.00  0.00    +0.104 C 
ATOM     13  C   UNL     1       4.399  -4.579   4.559  0.00  0.00    +0.000 C 
ATOM     14  C   UNL     1       2.973  -5.022   4.803  0.00  0.00    -0.077 C 
ATOM     15  N   UNL     1       2.942  -6.471   4.985  0.00  0.00    +0.384 N 
ATOM     16  C   UNL     1       2.809  -7.218   3.794  0.00  0.00    -0.059 C 
ATOM     17  C   UNL     1       4.038  -7.002   2.889  0.00  0.00    +0.088 C 
ATOM     18  H   UNL     1       3.796  -6.752   5.444  0.00  0.00    -0.081 HD
BRANCH  15  19
ATOM     19  C   UNL     1       1.817  -6.803   5.869  0.00  0.00    -0.039 C 
BRANCH  19  20
ATOM     20  C   UNL     1       1.835  -8.279   6.173  0.00  0.00    -0.022 A 
ATOM     21  C   UNL     1       0.999  -9.137   5.485  0.00  0.00    +0.005 A 
ATOM     22  C   UNL     1       1.015 -10.491   5.764  0.00  0.00    +0.000 A 
ATOM     23  C   UNL     1       1.868 -10.990   6.731  0.00  0.00    +0.004 A 
ATOM     24  C   UNL     1       2.707 -10.137   7.421  0.00  0.00    +0.045 A 
ATOM     25  C   UNL     1       2.696  -8.778   7.139  0.00  0.00    +0.118 A 
BRANCH  25  26
ATOM     26  O   UNL     1       3.524  -7.937   7.813  0.00  0.00    -0.507 OA
ATOM     27  H   UNL     1       3.142  -7.574   8.624  0.00  0.00    +0.292 HD
ENDBRANCH  25  26
ENDBRANCH  19  20
ENDBRANCH  15  19
ENDBRANCH   9  11
BRANCH   7  28
ATOM     28  C   UNL     1       3.950  -5.573  -3.662  0.00  0.00    +0.068 A 
ATOM     29  C   UNL     1       2.676  -5.857  -4.136  0.00  0.00    +0.028 A 
ATOM     30  C   UNL     1       2.403  -5.749  -5.486  0.00  0.00    +0.002 A 
ATOM     31  C   UNL     1       3.397  -5.357  -6.364  0.00  0.00    +0.000 A 
ATOM     32  C   UNL     1       4.667  -5.074  -5.895  0.00  0.00    +0.002 A 
ATOM     33  C   UNL     1       4.944  -5.174  -4.546  0.00  0.00    +0.028 A 
ENDBRANCH   7  28
BRANCH   1  34
ATOM     34  C   UNL     1       0.097  -4.295  -0.021  0.00  0.00    +0.111 C 
BRANCH  34  39
ATOM     35  C   UNL     1       0.029   1.483   0.035  0.00  0.00    +0.044 C 
ATOM     36  C   UNL     1       0.046  -0.024   0.020  0.00  0.00    -0.050 A 
ATOM     37  C   UNL     1       0.040  -0.704  -1.183  0.00  0.00    +0.003 A 
ATOM     38  C   UNL     1       0.056  -2.086  -1.197  0.00  0.00    +0.004 A 
ATOM     39  C   UNL     1       0.080  -2.788  -0.006  0.00  0.00    -0.040 A 
ATOM     40  C   UNL     1       0.087  -2.108   1.197  0.00  0.00    +0.004 A 
ATOM     41  C   UNL     1       0.075  -0.726   1.211  0.00  0.00    +0.003 A 
ENDBRANCH  34  39
ENDBRANCH   1  34
TORSDOF 7
