REMARK  Name = ZINC03430188
REMARK  11 active torsions:
REMARK  status: ('A' for Active; 'I' for Inactive)
REMARK    1  A    between atoms: C_1  and  C_2
REMARK    2  A    between atoms: C_5  and  N_9
REMARK    3  A    between atoms: C_6  and  C_8
REMARK    4  A    between atoms: C_10  and  C_22
REMARK    5  A    between atoms: C_13  and  S_14
REMARK    6  A    between atoms: S_14  and  C_15
REMARK    7  A    between atoms: C_15  and  C_16
REMARK    8  A    between atoms: C_16  and  C_18
REMARK    9  A    between atoms: C_18  and  C_19
REMARK   10  A    between atoms: C_18  and  C_20
REMARK   11  A    between atoms: C_18  and  C_21
REMARK                            x       y       z     vdW  Elec       q    Type
REMARK                         _______ _______ _______ _____ _____    ______ ____
ROOT
ATOM      1  N   UNL     1       2.439  -2.889   0.244  0.00  0.00    -0.270 N 
ATOM      2  C   UNL     1       1.322  -2.127  -0.022  0.00  0.00    +0.171 A 
ATOM      3  N   UNL     1       0.343  -2.959  -0.292  0.00  0.00    -0.128 NA
ATOM      4  N   UNL     1       0.761  -4.171  -0.208  0.00  0.00    -0.122 NA
ATOM      5  C   UNL     1       2.034  -4.190   0.120  0.00  0.00    +0.197 A 
ENDROOT
BRANCH   1  10
ATOM      6  C   UNL     1       7.627  -1.022   1.587  0.00  0.00    +0.044 C 
ATOM      7  C   UNL     1       6.250  -1.518   1.230  0.00  0.00    -0.050 A 
ATOM      8  C   UNL     1       5.326  -1.767   2.229  0.00  0.00    +0.005 A 
ATOM      9  C   UNL     1       4.061  -2.217   1.905  0.00  0.00    +0.027 A 
ATOM     10  C   UNL     1       3.720  -2.429   0.576  0.00  0.00    +0.053 A 
ATOM     11  C   UNL     1       4.650  -2.178  -0.424  0.00  0.00    -0.026 A 
ATOM     12  C   UNL     1       5.912  -1.724  -0.094  0.00  0.00    +0.008 A 
ATOM     13  C   UNL     1       4.282  -2.401  -1.869  0.00  0.00    +0.046 C 
ENDBRANCH   1  10
BRANCH   2  14
ATOM     14  C   UNL     1       1.244  -0.651  -0.013  0.00  0.00    +0.038 A 
ATOM     15  C   UNL     1       0.002  -0.004   0.002  0.00  0.00    +0.014 A 
ATOM     16  C   UNL     1      -0.017   1.379   0.010  0.00  0.00    +0.020 A 
ATOM     17  C   UNL     1       1.180   2.073   0.002  0.00  0.00    +0.111 A 
ATOM     18  N   UNL     1       2.336   1.437  -0.013  0.00  0.00    -0.263 NA
ATOM     19  C   UNL     1       2.406   0.122  -0.020  0.00  0.00    +0.122 A 
ENDBRANCH   2  14
BRANCH   5  20
ATOM     20  S   UNL     1       3.033  -5.623   0.349  0.00  0.00    -0.078 S 
BRANCH  20  21
ATOM     21  C   UNL     1       1.813  -6.915   0.008  0.00  0.00    +0.152 C 
BRANCH  21  22
ATOM     22  C   UNL     1       2.461  -8.268   0.148  0.00  0.00    +0.149 C 
ATOM     23  O   UNL     1       3.628  -8.350   0.448  0.00  0.00    -0.296 OA
BRANCH  22  24
ATOM     24  C   UNL     1       1.654  -9.519  -0.086  0.00  0.00    +0.021 C 
ATOM     25  C   UNL     1       2.544 -10.747   0.119  0.00  0.00    +0.018 C 
ATOM     26  C   UNL     1       0.486  -9.565   0.902  0.00  0.00    +0.018 C 
ATOM     27  C   UNL     1       1.111  -9.516  -1.517  0.00  0.00    +0.018 C 
ENDBRANCH  22  24
ENDBRANCH  21  22
ENDBRANCH  20  21
ENDBRANCH   5  20
TORSDOF 6
