REMARK  Name = ZINC09807842
REMARK  9 active torsions:
REMARK  status: ('A' for Active; 'I' for Inactive)
REMARK    1  A    between atoms: C_1  and  C_2
REMARK    2  A    between atoms: C_2  and  O_3
REMARK    3  A    between atoms: O_3  and  C_4
REMARK    4  A    between atoms: C_4  and  C_6
REMARK    5  A    between atoms: N_9  and  C_12
REMARK    6  A    between atoms: C_12  and  C_14
REMARK    7  A    between atoms: C_12  and  C_21
REMARK    8  A    between atoms: C_22  and  O_34
REMARK    9  A    between atoms: C_27  and  C_29
REMARK                            x       y       z     vdW  Elec       q    Type
REMARK                         _______ _______ _______ _____ _____    ______ ____
ROOT
ATOM      1  C   UNL     1       2.004  -4.662   6.066  0.00  0.00    +0.005 C 
ENDROOT
BRANCH   1   2
ATOM      2  C   UNL     1       1.928  -6.162   5.945  0.00  0.00    +0.045 A 
ATOM      3  C   UNL     1       2.910  -7.067   6.036  0.00  0.00    +0.225 A 
ATOM      4  N   UNL     1       2.643  -8.407   5.898  0.00  0.00    -0.173 N 
ATOM      5  C   UNL     1       1.343  -8.763   5.666  0.00  0.00    +0.199 A 
ATOM      6  S   UNL     1       0.502  -7.198   5.652  0.00  0.00    -0.050 S 
ATOM      7  N   UNL     1       1.254 -10.060   5.559  0.00  0.00    -0.197 NA
ATOM      8  C   UNL     1       2.470 -10.601   5.714  0.00  0.00    +0.218 A 
ATOM      9  N   UNL     1       3.345  -9.641   5.921  0.00  0.00    -0.138 NA
BRANCH   8  10
ATOM     10  C   UNL     1       2.779 -12.046   5.660  0.00  0.00    +0.173 A 
ATOM     11  C   UNL     1       1.883 -13.045   5.440  0.00  0.00    +0.053 A 
ATOM     12  C   UNL     1       2.608 -14.253   5.471  0.00  0.00    +0.042 A 
ATOM     13  C   UNL     1       3.897 -13.935   5.705  0.00  0.00    +0.196 A 
ATOM     14  O   UNL     1       3.997 -12.600   5.813  0.00  0.00    -0.460 OA
ENDBRANCH   8  10
BRANCH   3  15
ATOM     15  O   UNL     1       4.185  -6.655   6.268  0.00  0.00    -0.492 OA
ATOM     16  H   UNL     1       4.828  -7.375   6.318  0.00  0.00    +0.294 HD
ENDBRANCH   3  15
ENDBRANCH   1   2
BRANCH   1  20
ATOM     17  C   UNL     1       1.516  -2.381   2.500  0.00  0.00    +0.094 C 
ATOM     18  C   UNL     1       0.808  -1.934   3.783  0.00  0.00    -0.004 C 
ATOM     19  C   UNL     1       1.491  -2.583   4.988  0.00  0.00    -0.077 C 
ATOM     20  N   UNL     1       1.417  -4.044   4.870  0.00  0.00    +0.387 N 
ATOM     21  C   UNL     1       2.155  -4.486   3.680  0.00  0.00    -0.077 C 
ATOM     22  C   UNL     1       1.497  -3.910   2.424  0.00  0.00    -0.004 C 
ATOM     23  H   UNL     1       0.451  -4.325   4.788  0.00  0.00    -0.080 HD
BRANCH  17  24
ATOM     24  C   UNL     1       0.801  -1.808   1.304  0.00  0.00    +0.310 C 
ATOM     25  O   UNL     1       0.324  -2.546   0.475  0.00  0.00    -0.251 OA
BRANCH  24  26
ATOM     26  O   UNL     1       0.693  -0.477   1.160  0.00  0.00    -0.465 OA
BRANCH  26  28
ATOM     27  C   UNL     1      -0.019   1.526   0.010  0.00  0.00    +0.048 C 
ATOM     28  C   UNL     1       0.002  -0.004   0.002  0.00  0.00    +0.229 C 
ENDBRANCH  26  28
ENDBRANCH  24  26
ENDBRANCH  17  24
ENDBRANCH   1  20
BRANCH   1  29
ATOM     29  C   UNL     1       1.242  -4.217   7.287  0.00  0.00    -0.056 A 
ATOM     30  C   UNL     1      -0.136  -4.114   7.242  0.00  0.00    +0.004 A 
ATOM     31  C   UNL     1      -0.836  -3.706   8.362  0.00  0.00    +0.020 A 
ATOM     32  C   UNL     1      -0.158  -3.400   9.528  0.00  0.00    +0.041 A 
ATOM     33  C   UNL     1       1.221  -3.503   9.572  0.00  0.00    +0.020 A 
ATOM     34  C   UNL     1       1.920  -3.916   8.454  0.00  0.00    +0.004 A 
ATOM     35 CL   UNL     1      -1.036  -2.886  10.934  0.00  0.00    -0.084 Cl
ENDBRANCH   1  29
TORSDOF 8
