REMARK  Name = ZINC09905866
REMARK  9 active torsions:
REMARK  status: ('A' for Active; 'I' for Inactive)
REMARK    1  A    between atoms: C_1  and  S_2
REMARK    2  A    between atoms: S_2  and  N_5
REMARK    3  A    between atoms: N_5  and  C_6
REMARK    4  A    between atoms: C_6  and  C_7
REMARK    5  A    between atoms: C_7  and  C_8
REMARK    6  A    between atoms: C_11  and  C_13
REMARK    7  A    between atoms: N_15  and  C_16
REMARK    8  A    between atoms: C_18  and  C_27
REMARK    9  A    between atoms: C_21  and  N_22
REMARK                            x       y       z     vdW  Elec       q    Type
REMARK                         _______ _______ _______ _____ _____    ______ ____
ROOT
ATOM      1  C   UNL     1      -2.843   5.027   0.713  0.00  0.00    +0.255 C 
ATOM      2  O   UNL     1      -1.917   5.566   1.290  0.00  0.00    -0.269 OA
ATOM      3  N   UNL     1      -2.636   3.888   0.024  0.00  0.00    -0.280 N 
ATOM      4  H   UNL     1      -3.359   3.493  -0.489  0.00  0.00    +0.155 HD
ENDROOT
BRANCH   3   5
ATOM      5  C   UNL     1      -1.377   3.273   0.048  0.00  0.00    +0.056 A 
ATOM      6  C   UNL     1      -0.232   4.044   0.104  0.00  0.00    +0.038 A 
ATOM      7  C   UNL     1       1.022   3.427   0.129  0.00  0.00    +0.038 A 
ATOM      8  C   UNL     1       1.113   2.033   0.096  0.00  0.00    +0.015 A 
ATOM      9  C   UNL     1      -0.031   1.268   0.040  0.00  0.00    +0.026 A 
ATOM     10  C   UNL     1      -1.279   1.879   0.010  0.00  0.00    +0.051 A 
BRANCH  10  11
ATOM     11  N   UNL     1      -2.433   1.102  -0.053  0.00  0.00    -0.328 N 
ATOM     12  C   UNL     1      -2.111  -0.340   0.098  0.00  0.00    +0.105 C 
ATOM     13  C   UNL     1      -3.464  -0.962   0.528  0.00  0.00    +0.020 C 
ATOM     14  C   UNL     1      -4.061   0.120   1.457  0.00  0.00    +0.020 C 
ATOM     15  C   UNL     1      -3.353   1.428   1.058  0.00  0.00    +0.105 C 
ENDBRANCH  10  11
BRANCH   7  16
ATOM     16  C   UNL     1       2.247   4.246   0.189  0.00  0.00    +0.242 C 
ATOM     17  O   UNL     1       2.167   5.459   0.217  0.00  0.00    -0.270 OA
ATOM     18  N   UNL     1       3.456   3.650   0.212  0.00  0.00    -0.325 N 
ATOM     19  H   UNL     1       3.520   2.683   0.190  0.00  0.00    +0.145 HD
ATOM     20  H   UNL     1       4.261   4.189   0.252  0.00  0.00    +0.145 HD
ENDBRANCH   7  16
ENDBRANCH   3   5
BRANCH   1  24
ATOM     21  C   UNL     1      -6.756   6.297   0.574  0.00  0.00    -0.008 A 
ATOM     22  C   UNL     1      -5.933   7.100   1.298  0.00  0.00    +0.012 A 
ATOM     23  C   UNL     1      -4.605   6.770   1.411  0.00  0.00    +0.021 A 
ATOM     24  C   UNL     1      -4.184   5.618   0.767  0.00  0.00    +0.074 A 
ATOM     25  S   UNL     1      -5.696   5.045   0.014  0.00  0.00    -0.089 S 
BRANCH  21  26
ATOM     26  C   UNL     1      -8.232   6.459   0.316  0.00  0.00    +0.059 C 
BRANCH  26  27
ATOM     27  C   UNL     1      -8.439   7.283  -0.957  0.00  0.00    +0.110 C 
BRANCH  27  28
ATOM     28  N   UNL     1      -9.874   7.440  -1.208  0.00  0.00    -0.194 NA
ATOM     29  H   UNL     1     -10.513   6.877  -0.743  0.00  0.00    +0.148 HD
BRANCH  28  31
ATOM     30  C   UNL     1      -9.767   8.033  -3.894  0.00  0.00    +0.214 C 
ATOM     31  S   UNL     1     -10.405   8.579  -2.287  0.00  0.00    +0.027 S 
ATOM     32  O   UNL     1     -11.822   8.470  -2.260  0.00  0.00    -0.158 OA
ATOM     33  O   UNL     1      -9.764   9.783  -1.888  0.00  0.00    -0.158 OA
ENDBRANCH  28  31
ENDBRANCH  27  28
ENDBRANCH  26  27
ENDBRANCH  21  26
ENDBRANCH   1  24
TORSDOF 8
