REMARK  Name = ZINC39302182
REMARK  5 active torsions:
REMARK  status: ('A' for Active; 'I' for Inactive)
REMARK    1  A    between atoms: C_4  and  C_7
REMARK    2  A    between atoms: C_7  and  C_9
REMARK    3  A    between atoms: C_7  and  N_15
REMARK    4  A    between atoms: C_16  and  C_18
REMARK    5  A    between atoms: C_24  and  C_26
REMARK                            x       y       z     vdW  Elec       q    Type
REMARK                         _______ _______ _______ _____ _____    ______ ____
ROOT
ATOM      1  C   UNL     1       3.636  -2.976  -3.136  0.00  0.00    +0.091 C 
ATOM      2  C   UNL     1       4.730  -3.979  -2.761  0.00  0.00    +0.040 C 
ATOM      3  C   UNL     1       6.082  -3.412  -3.080  0.00  0.00    -0.030 C 
ATOM      4  C   UNL     1       6.279  -2.407  -3.871  0.00  0.00    -0.030 C 
ATOM      5  C   UNL     1       5.182  -1.661  -4.572  0.00  0.00    +0.040 C 
ATOM      6  C   UNL     1       3.890  -2.488  -4.568  0.00  0.00    +0.091 C 
ENDROOT
BRANCH   6   7
ATOM      7  C   UNL     1       2.733  -1.637  -5.025  0.00  0.00    +0.220 C 
ATOM      8  O   UNL     1       2.816  -0.428  -4.985  0.00  0.00    -0.275 OA
ATOM      9  N   UNL     1       1.605  -2.220  -5.479  0.00  0.00    -0.298 N 
ATOM     10  C   UNL     1       1.449  -3.681  -5.435  0.00  0.00    +0.126 C 
ATOM     11  C   UNL     1       0.162  -4.013  -4.669  0.00  0.00    +0.125 C 
ATOM     12  N   UNL     1      -0.933  -3.199  -5.216  0.00  0.00    -0.314 N 
ATOM     13  C   UNL     1      -0.776  -1.739  -5.259  0.00  0.00    +0.125 C 
ATOM     14  C   UNL     1       0.508  -1.406  -6.020  0.00  0.00    +0.126 C 
ATOM     15  C   UNL     1      -2.096  -3.801  -5.683  0.00  0.00    +0.099 A 
ATOM     16  C   UNL     1      -2.171  -5.188  -5.762  0.00  0.00    +0.042 A 
ATOM     17  C   UNL     1      -3.334  -5.773  -6.229  0.00  0.00    +0.005 A 
ATOM     18  C   UNL     1      -4.387  -4.948  -6.603  0.00  0.00    +0.018 A 
ATOM     19  C   UNL     1      -4.243  -3.579  -6.499  0.00  0.00    +0.084 A 
ATOM     20  N   UNL     1      -3.123  -3.049  -6.045  0.00  0.00    -0.350 N 
ATOM     21  H   UNL     1      -3.050  -2.084  -5.978  0.00  0.00    +0.166 HD
ENDBRANCH   6   7
BRANCH   1  23
ATOM     22  N   UNL     1       2.542  -1.142  -1.889  0.00  0.00    -0.304 N 
ATOM     23  C   UNL     1       3.676  -1.806  -2.187  0.00  0.00    +0.218 C 
ATOM     24  O   UNL     1       4.728  -1.461  -1.693  0.00  0.00    -0.275 OA
ATOM     25  H   UNL     1       1.700  -1.417  -2.284  0.00  0.00    +0.150 HD
BRANCH  22  26
ATOM     26  C   UNL     1       2.580  -0.004  -0.967  0.00  0.00    +0.135 C 
BRANCH  26  30
ATOM     27  C   UNL     1       3.603   3.539  -3.122  0.00  0.00    +0.000 A 
ATOM     28  C   UNL     1       4.131   3.319  -1.863  0.00  0.00    +0.000 A 
ATOM     29  C   UNL     1       3.800   2.173  -1.165  0.00  0.00    +0.006 A 
ATOM     30  C   UNL     1       2.940   1.246  -1.726  0.00  0.00    -0.023 A 
ATOM     31  C   UNL     1       2.412   1.467  -2.985  0.00  0.00    +0.006 A 
ATOM     32  C   UNL     1       2.745   2.613  -3.683  0.00  0.00    +0.000 A 
ENDBRANCH  26  30
BRANCH  26  33
ATOM     33  C   UNL     1       1.227   0.170  -0.326  0.00  0.00    -0.005 A 
ATOM     34  C   UNL     1       1.123   0.504   1.016  0.00  0.00    +0.009 A 
ATOM     35  C   UNL     1      -0.143   0.653   1.562  0.00  0.00    +0.020 A 
ATOM     36  C   UNL     1      -1.250   0.466   0.757  0.00  0.00    +0.111 A 
ATOM     37  N   UNL     1      -1.113   0.148  -0.516  0.00  0.00    -0.263 NA
ATOM     38  C   UNL     1       0.074   0.004  -1.071  0.00  0.00    +0.116 A 
ENDBRANCH  26  33
ENDBRANCH  22  26
ENDBRANCH   1  23
TORSDOF 5
