REMARK  Name = ZINC04290118
REMARK  8 active torsions:
REMARK  status: ('A' for Active; 'I' for Inactive)
REMARK    1  A    between atoms: C_1  and  C_2
REMARK    2  A    between atoms: C_2  and  C_3
REMARK    3  A    between atoms: C_9  and  C_10
REMARK    4  A    between atoms: C_9  and  N_62
REMARK    5  A    between atoms: C_11  and  O_36
REMARK    6  A    between atoms: C_17  and  C_32
REMARK    7  A    between atoms: C_18  and  O_21
REMARK    8  A    between atoms: O_21  and  C_22
REMARK                            x       y       z     vdW  Elec       q    Type
REMARK                         _______ _______ _______ _____ _____    ______ ____
ROOT
ATOM      1  C   UNL     1       7.224   4.531  -0.225  0.00  0.00    +0.020 A 
ATOM      2  C   UNL     1       8.010   5.157   0.728  0.00  0.00    +0.122 A 
ATOM      3  C   UNL     1       7.696   5.060   2.081  0.00  0.00    +0.046 A 
ATOM      4  C   UNL     1       6.605   4.346   2.488  0.00  0.00    +0.019 A 
ATOM      5  C   UNL     1       5.803   3.709   1.540  0.00  0.00    +0.068 A 
ATOM      6  C   UNL     1       6.113   3.801   0.172  0.00  0.00    +0.144 A 
ATOM      7  O   UNL     1       5.330   3.182  -0.735  0.00  0.00    -0.447 OA
ATOM      8  C   UNL     1       4.254   2.464  -0.384  0.00  0.00    +0.254 A 
ATOM      9  C   UNL     1       3.864   2.315   0.897  0.00  0.00    +0.222 A 
ATOM     10  C   UNL     1       4.618   2.928   1.938  0.00  0.00    +0.235 A 
ATOM     11  O   UNL     1       4.298   2.811   3.108  0.00  0.00    -0.283 OA
ENDROOT
BRANCH   8  12
ATOM     12  C   UNL     1       3.443   1.802  -1.468  0.00  0.00    +0.454 C 
ATOM     13  F   UNL     1       2.445   2.678  -1.906  0.00  0.00    -0.163 F 
ATOM     14  F   UNL     1       4.279   1.474  -2.541  0.00  0.00    -0.163 F 
ATOM     15  F   UNL     1       2.854   0.638  -0.964  0.00  0.00    -0.163 F 
ENDBRANCH   8  12
BRANCH   2  16
ATOM     16  O   UNL     1       9.097   5.871   0.339  0.00  0.00    -0.506 OA
ATOM     17  H   UNL     1       9.912   5.352   0.290  0.00  0.00    +0.292 HD
ENDBRANCH   2  16
BRANCH   1  18
ATOM     18  C   UNL     1       7.574   4.642  -1.687  0.00  0.00    -0.035 C 
BRANCH  18  24
ATOM     19  C   UNL     1       8.750   3.556  -3.502  0.00  0.00    -0.068 C 
ATOM     20  C   UNL     1       9.564   2.316  -3.878  0.00  0.00    -0.015 C 
ATOM     21  C   UNL     1      10.874   2.312  -3.086  0.00  0.00    -0.003 C 
ATOM     22  C   UNL     1      10.556   2.345  -1.588  0.00  0.00    -0.019 C 
ATOM     23  C   UNL     1       9.712   3.584  -1.279  0.00  0.00    -0.078 C 
ATOM     24  N   UNL     1       8.456   3.515  -2.054  0.00  0.00    +0.384 N 
ATOM     25  H   UNL     1       7.978   2.633  -1.836  0.00  0.00    -0.081 HD
BRANCH  19  27
ATOM     26  C   UNL     1       7.718   3.686  -5.774  0.00  0.00    +0.002 C 
ATOM     27  C   UNL     1       7.431   3.553  -4.277  0.00  0.00    -0.019 C 
ENDBRANCH  19  27
ENDBRANCH  18  24
ENDBRANCH   1  18
BRANCH   9  28
ATOM     28  O   UNL     1       2.758   1.579   1.195  0.00  0.00    -0.448 OA
BRANCH  28  29
ATOM     29  C   UNL     1       1.561   2.219   1.247  0.00  0.00    +0.129 A 
ATOM     30  C   UNL     1       1.502   3.594   0.997  0.00  0.00    +0.047 A 
ATOM     31  C   UNL     1       0.318   4.263   1.042  0.00  0.00    +0.012 A 
ATOM     32  C   UNL     1      -0.865   3.566   1.344  0.00  0.00    -0.018 A 
ATOM     33  C   UNL     1      -2.105   4.225   1.400  0.00  0.00    +0.008 A 
ATOM     34  C   UNL     1      -3.231   3.520   1.696  0.00  0.00    +0.001 A 
ATOM     35  C   UNL     1      -3.174   2.150   1.946  0.00  0.00    +0.001 A 
ATOM     36  C   UNL     1      -1.992   1.478   1.901  0.00  0.00    +0.008 A 
ATOM     37  C   UNL     1      -0.809   2.171   1.592  0.00  0.00    -0.014 A 
ATOM     38  C   UNL     1       0.430   1.512   1.544  0.00  0.00    +0.054 A 
ENDBRANCH  28  29
ENDBRANCH   9  28
TORSDOF 7
