REMARK  Name = ZINC63768605
REMARK  5 active torsions:
REMARK  status: ('A' for Active; 'I' for Inactive)
REMARK    1  A    between atoms: C_1  and  C_2
REMARK    2  A    between atoms: C_5  and  C_21
REMARK    3  A    between atoms: C_8  and  C_10
REMARK    4  A    between atoms: C_13  and  C_16
REMARK    5  A    between atoms: C_16  and  N_17
REMARK                            x       y       z     vdW  Elec       q    Type
REMARK                         _______ _______ _______ _____ _____    ______ ____
ROOT
ATOM      1  C   UNL     1       0.059   1.326  -0.137  0.00  0.00    +0.028 C 
ATOM      2  C   UNL     1      -0.426  -0.040   0.354  0.00  0.00    +0.073 C 
ATOM      3  C   UNL     1      -0.275  -1.071  -0.769  0.00  0.00    +0.023 C 
ATOM      4  C   UNL     1      -0.629  -2.460  -0.231  0.00  0.00    +0.016 C 
ATOM      5  C   UNL     1       0.334  -2.832   0.899  0.00  0.00    +0.092 C 
ATOM      6  C   UNL     1       0.190  -1.820   2.040  0.00  0.00    +0.121 C 
ATOM      7  N   UNL     1       0.386  -0.468   1.501  0.00  0.00    -0.294 N 
ATOM      8  C   UNL     1       1.294   0.365   2.049  0.00  0.00    +0.247 C 
ATOM      9  O   UNL     1       1.368   1.517   1.669  0.00  0.00    -0.270 OA
ENDROOT
BRANCH   8  10
ATOM     10  C   UNL     1       2.199  -0.124   3.110  0.00  0.00    +0.037 A 
ATOM     11  C   UNL     1       2.646  -1.446   3.097  0.00  0.00    +0.013 A 
ATOM     12  C   UNL     1       3.491  -1.895   4.090  0.00  0.00    +0.006 A 
ATOM     13  C   UNL     1       3.896  -1.039   5.099  0.00  0.00    -0.030 A 
ATOM     14  C   UNL     1       3.456   0.273   5.118  0.00  0.00    +0.006 A 
ATOM     15  C   UNL     1       2.615   0.737   4.127  0.00  0.00    +0.013 A 
BRANCH  13  16
ATOM     16  C   UNL     1       4.819  -1.537   6.181  0.00  0.00    +0.141 C 
BRANCH  16  17
ATOM     17  N   UNL     1       6.209  -1.321   5.774  0.00  0.00    -0.295 N 
ATOM     18  C   UNL     1       7.215  -1.692   6.591  0.00  0.00    +0.297 C 
ATOM     19  O   UNL     1       6.969  -2.205   7.665  0.00  0.00    -0.253 OA
ATOM     20  N   UNL     1       8.495  -1.494   6.216  0.00  0.00    -0.313 N 
ATOM     21  H   UNL     1       6.406  -0.912   4.917  0.00  0.00    +0.151 HD
ATOM     22  H   UNL     1       8.692  -1.085   5.359  0.00  0.00    +0.146 HD
ATOM     23  H   UNL     1       9.219  -1.761   6.804  0.00  0.00    +0.146 HD
ENDBRANCH  16  17
ENDBRANCH  13  16
ENDBRANCH   8  10
BRANCH   5  24
ATOM     24  C   UNL     1       0.005  -4.212   1.406  0.00  0.00    +0.215 C 
ATOM     25  O   UNL     1      -0.910  -4.838   0.912  0.00  0.00    -0.276 OA
ATOM     26  N   UNL     1       0.727  -4.752   2.408  0.00  0.00    -0.329 N 
ATOM     27  H   UNL     1       1.458  -4.252   2.803  0.00  0.00    +0.145 HD
ATOM     28  H   UNL     1       0.515  -5.641   2.734  0.00  0.00    +0.145 HD
ENDBRANCH   5  24
TORSDOF 4
