REMARK  Name = ZINC32542248
REMARK  12 active torsions:
REMARK  status: ('A' for Active; 'I' for Inactive)
REMARK    1  A    between atoms: C_1  and  C_2
REMARK    2  A    between atoms: C_2  and  C_4
REMARK    3  A    between atoms: C_2  and  N_14
REMARK    4  A    between atoms: C_7  and  S_10
REMARK    5  A    between atoms: S_10  and  N_13
REMARK    6  A    between atoms: N_14  and  C_15
REMARK    7  A    between atoms: N_14  and  C_16
REMARK    8  A    between atoms: C_16  and  C_17
REMARK    9  A    between atoms: N_19  and  C_20
REMARK   10  A    between atoms: C_21  and  C_30
REMARK   11  A    between atoms: C_30  and  O_32
REMARK   12  A    between atoms: O_32  and  C_33
REMARK                            x       y       z     vdW  Elec       q    Type
REMARK                         _______ _______ _______ _____ _____    ______ ____
ROOT
ATOM      1  C   UNL     1      -0.014   1.392  -0.022  0.00  0.00    +0.019 C 
ENDROOT
BRANCH   1   2
ATOM      2  C   UNL     1      -0.824   2.128  -1.058  0.00  0.00    +0.201 C 
ATOM      3  O   UNL     1      -1.849   2.691  -0.737  0.00  0.00    -0.278 OA
ATOM      4  N   UNL     1      -0.410   2.160  -2.340  0.00  0.00    -0.281 N 
ATOM      5  H   UNL     1       0.520   1.649  -2.630  0.00  0.00    +0.155 HD
BRANCH   4   6
ATOM      6  C   UNL     1      -1.155   2.837  -3.292  0.00  0.00    +0.086 A 
ATOM      7  C   UNL     1      -0.893   2.987  -4.646  0.00  0.00    +0.091 A 
ATOM      8  C   UNL     1      -1.849   3.747  -5.441  0.00  0.00    -0.021 A 
ATOM      9  C   UNL     1      -2.895   4.245  -4.749  0.00  0.00    -0.004 A 
ATOM     10  S   UNL     1      -2.637   3.709  -3.080  0.00  0.00    -0.077 S 
ATOM     11  C   UNL     1      -4.021   5.083  -5.270  0.00  0.00    +0.043 C 
ATOM     12  C   UNL     1      -4.594   4.431  -6.536  0.00  0.00    +0.005 C 
ATOM     13  C   UNL     1      -3.830   4.968  -7.742  0.00  0.00    +0.001 C 
ATOM     14  C   UNL     1      -2.378   5.250  -7.362  0.00  0.00    +0.005 C 
ATOM     15  C   UNL     1      -1.679   3.962  -6.939  0.00  0.00    +0.037 C 
BRANCH   7  16
ATOM     16  C   UNL     1       0.300   2.397  -5.256  0.00  0.00    +0.342 C 
ATOM     17  O   UNL     1       0.257   1.270  -5.712  0.00  0.00    -0.245 OA
BRANCH  16  18
ATOM     18  O   UNL     1       1.448   3.104  -5.312  0.00  0.00    -0.464 OA
ATOM     19  C   UNL     1       2.591   2.456  -5.931  0.00  0.00    +0.280 C 
ENDBRANCH  16  18
ENDBRANCH   7  16
ENDBRANCH   4   6
ENDBRANCH   1   2
BRANCH   1  20
ATOM     20  N   UNL     1      -0.672   1.505   1.286  0.00  0.00    +0.388 N 
ATOM     21  C   UNL     1      -1.963   0.803   1.289  0.00  0.00    -0.095 C 
ATOM     22  H   UNL     1      -0.867   2.571   1.476  0.00  0.00    -0.081 HD
BRANCH  20  24
ATOM     23  C   UNL     1      -0.497   1.193   3.709  0.00  0.00    -0.008 C 
ATOM     24  C   UNL     1       0.199   1.008   2.359  0.00  0.00    -0.041 C 
BRANCH  24  25
ATOM     25  C   UNL     1       1.494   1.779   2.352  0.00  0.00    -0.061 A 
ATOM     26  C   UNL     1       1.478   3.156   2.239  0.00  0.00    +0.004 A 
ATOM     27  C   UNL     1       2.666   3.864   2.237  0.00  0.00    +0.029 A 
ATOM     28  C   UNL     1       3.870   3.193   2.338  0.00  0.00    +0.105 A 
ATOM     29  C   UNL     1       3.887   1.815   2.446  0.00  0.00    +0.029 A 
ATOM     30  C   UNL     1       2.699   1.108   2.453  0.00  0.00    +0.004 A 
BRANCH  28  31
ATOM     31  S   UNL     1       5.384   4.094   2.329  0.00  0.00    +0.056 S 
ATOM     32  O   UNL     1       5.076   5.410   2.767  0.00  0.00    -0.153 OA
ATOM     33  O   UNL     1       6.346   3.278   2.983  0.00  0.00    -0.153 OA
BRANCH  31  34
ATOM     34  N   UNL     1       5.868   4.222   0.750  0.00  0.00    -0.204 NA
ATOM     35  H   UNL     1       6.814   4.781   0.701  0.00  0.00    +0.144 HD
ATOM     36  H   UNL     1       5.097   4.754   0.172  0.00  0.00    +0.144 HD
ENDBRANCH  31  34
ENDBRANCH  28  31
ENDBRANCH  24  25
ENDBRANCH  20  24
ENDBRANCH   1  20
TORSDOF 9
