REMARK  Name = ZINC39942477
REMARK  6 active torsions:
REMARK  status: ('A' for Active; 'I' for Inactive)
REMARK    1  A    between atoms: C_7  and  C_10
REMARK    2  A    between atoms: C_13  and  S_19
REMARK    3  A    between atoms: N_15  and  C_16
REMARK    4  A    between atoms: S_19  and  C_20
REMARK    5  A    between atoms: C_20  and  C_21
REMARK    6  A    between atoms: N_23  and  C_24
REMARK                            x       y       z     vdW  Elec       q    Type
REMARK                         _______ _______ _______ _____ _____    ______ ____
ROOT
ATOM      1  C   UNL     1       0.739  -3.125   0.162  0.00  0.00    +0.147 C 
ATOM      2  N   UNL     1      -0.555  -3.247   0.024  0.00  0.00    -0.169 NA
ATOM      3  N   UNL     1      -0.914  -4.571  -0.255  0.00  0.00    -0.237 N 
ATOM      4  C   UNL     1       0.338  -5.345  -0.288  0.00  0.00    +0.237 C 
ATOM      5  N   UNL     1       1.387  -4.350  -0.014  0.00  0.00    -0.282 N 
ATOM      6  H   UNL     1      -1.811  -4.911  -0.399  0.00  0.00    +0.171 HD
ENDROOT
BRANCH   1  13
ATOM      7  C   UNL     1      -0.829   1.025   1.116  0.00  0.00    +0.001 A 
ATOM      8  C   UNL     1       0.179   1.965   1.339  0.00  0.00    +0.002 A 
ATOM      9  C   UNL     1       1.492   1.636   1.270  0.00  0.00    +0.026 A 
ATOM     10  C   UNL     1       1.871   0.304   0.963  0.00  0.00    +0.043 A 
ATOM     11  N   UNL     1       3.057  -0.260   0.839  0.00  0.00    -0.380 N 
ATOM     12  C   UNL     1       2.886  -1.678   0.509  0.00  0.00    +0.152 C 
ATOM     13  C   UNL     1       1.394  -1.917   0.446  0.00  0.00    +0.022 C 
ATOM     14  C   UNL     1       0.804  -0.684   0.729  0.00  0.00    +0.006 A 
ATOM     15  C   UNL     1      -0.541  -0.269   0.818  0.00  0.00    +0.010 A 
ATOM     16  H   UNL     1       3.907   0.193   0.948  0.00  0.00    +0.160 HD
ENDBRANCH   1  13
BRANCH   5  17
ATOM     17  C   UNL     1       2.830  -4.596   0.061  0.00  0.00    +0.078 C 
ATOM     18  C   UNL     1       3.321  -6.013  -0.241  0.00  0.00    +0.024 C 
ATOM     19  C   UNL     1       3.336  -5.488   1.196  0.00  0.00    +0.024 C 
ENDBRANCH   5  17
BRANCH   4  20
ATOM     20  S   UNL     1       0.582  -6.088  -1.925  0.00  0.00    -0.109 S 
BRANCH  20  21
ATOM     21  C   UNL     1       0.601  -4.667  -3.053  0.00  0.00    +0.168 C 
BRANCH  21  22
ATOM     22  C   UNL     1       0.799  -5.151  -4.466  0.00  0.00    +0.227 C 
ATOM     23  O   UNL     1       0.917  -6.337  -4.690  0.00  0.00    -0.275 OA
ATOM     24  N   UNL     1       0.846  -4.265  -5.481  0.00  0.00    -0.285 N 
ATOM     25  H   UNL     1       0.827  -3.313  -5.295  0.00  0.00    +0.155 HD
BRANCH  24  26
ATOM     26  C   UNL     1       0.923  -4.719  -6.804  0.00  0.00    +0.037 A 
ATOM     27  C   UNL     1       1.657  -4.005  -7.742  0.00  0.00    +0.027 A 
ATOM     28  C   UNL     1       1.732  -4.452  -9.047  0.00  0.00    +0.051 A 
ATOM     29  C   UNL     1       1.077  -5.615  -9.424  0.00  0.00    +0.162 A 
ATOM     30  C   UNL     1       0.344  -6.333  -8.487  0.00  0.00    +0.164 A 
ATOM     31  C   UNL     1       0.271  -5.886  -7.176  0.00  0.00    +0.072 A 
ATOM     32  O   UNL     1      -0.299  -7.481  -8.836  0.00  0.00    -0.485 OA
ATOM     33  C   UNL     1      -0.509  -7.701 -10.235  0.00  0.00    +0.270 C 
ATOM     34  C   UNL     1       0.804  -7.401 -10.971  0.00  0.00    +0.270 C 
ATOM     35  O   UNL     1       1.160  -6.038 -10.716  0.00  0.00    -0.485 OA
ENDBRANCH  24  26
ENDBRANCH  21  22
ENDBRANCH  20  21
ENDBRANCH   4  20
TORSDOF 6
