REMARK  Name = ZINC10100378
REMARK  15 active torsions:
REMARK  status: ('A' for Active; 'I' for Inactive)
REMARK    1  A    between atoms: C_1  and  C_2
REMARK    2  A    between atoms: C_5  and  C_33
REMARK    3  A    between atoms: N_11  and  C_12
REMARK    4  A    between atoms: C_12  and  C_13
REMARK    5  A    between atoms: C_13  and  C_14
REMARK    6  A    between atoms: C_14  and  N_68
REMARK    7  A    between atoms: C_15  and  N_68
REMARK    8  A    between atoms: C_16  and  N_68
REMARK    9  A    between atoms: C_17  and  C_19
REMARK   10  A    between atoms: C_22  and  S_25
REMARK   11  A    between atoms: S_25  and  N_28
REMARK   12  A    between atoms: N_28  and  C_29
REMARK   13  A    between atoms: N_28  and  C_30
REMARK   14  A    between atoms: C_30  and  C_31
REMARK   15  A    between atoms: C_30  and  C_32
REMARK                            x       y       z     vdW  Elec       q    Type
REMARK                         _______ _______ _______ _____ _____    ______ ____
ROOT
ATOM      1  C   UNL     1       3.339   2.144   0.496  0.00  0.00    +0.046 C 
ATOM      2  C   UNL     1       2.176   1.238   0.809  0.00  0.00    -0.024 A 
ATOM      3  C   UNL     1       0.989   1.779   1.228  0.00  0.00    +0.006 A 
ATOM      4  C   UNL     1      -0.106   0.982   1.526  0.00  0.00    +0.005 A 
ATOM      5  C   UNL     1       0.000  -0.391   1.397  0.00  0.00    -0.035 A 
ATOM      6  C   UNL     1       1.185  -0.942   0.977  0.00  0.00    +0.044 A 
ATOM      7  C   UNL     1       2.321  -0.161   0.664  0.00  0.00    +0.083 A 
ATOM      8  N   UNL     1       3.412  -0.849   0.265  0.00  0.00    -0.224 NA
ATOM      9  C   UNL     1       3.425  -2.159   0.170  0.00  0.00    +0.168 A 
ATOM     10  S   UNL     1       1.766  -2.593   0.675  0.00  0.00    -0.052 S 
ATOM     11  N   UNL     1       4.460  -2.991  -0.221  0.00  0.00    -0.246 N 
ATOM     12  C   UNL     1       4.275  -4.326  -0.255  0.00  0.00    +0.252 C 
ATOM     13  O   UNL     1       3.240  -4.807   0.165  0.00  0.00    -0.270 OA
ATOM     14  C   UNL     1      -1.177  -1.277   1.716  0.00  0.00    +0.045 C 
ENDROOT
BRANCH  12  15
ATOM     15  C   UNL     1       5.330  -5.204  -0.801  0.00  0.00    +0.037 A 
ATOM     16  C   UNL     1       6.658  -5.037  -0.402  0.00  0.00    +0.015 A 
ATOM     17  C   UNL     1       7.637  -5.863  -0.913  0.00  0.00    +0.029 A 
ATOM     18  C   UNL     1       7.308  -6.850  -1.826  0.00  0.00    +0.106 A 
ATOM     19  C   UNL     1       5.995  -7.017  -2.229  0.00  0.00    +0.029 A 
ATOM     20  C   UNL     1       5.005  -6.201  -1.723  0.00  0.00    +0.015 A 
BRANCH  18  21
ATOM     21  S   UNL     1       8.566  -7.897  -2.477  0.00  0.00    +0.061 S 
ATOM     22  O   UNL     1       9.627  -7.894  -1.531  0.00  0.00    -0.153 OA
ATOM     23  O   UNL     1       7.923  -9.092  -2.897  0.00  0.00    -0.153 OA
BRANCH  21  24
ATOM     24  N   UNL     1       9.150  -7.168  -3.845  0.00  0.00    -0.177 NA
ATOM     25  C   UNL     1      10.277  -6.236  -3.754  0.00  0.00    +0.132 C 
BRANCH  24  26
ATOM     26  C   UNL     1       8.541  -7.456  -5.146  0.00  0.00    +0.073 C 
ATOM     27  C   UNL     1       7.998  -6.161  -5.752  0.00  0.00    +0.025 C 
ATOM     28  C   UNL     1       9.593  -8.056  -6.081  0.00  0.00    +0.025 C 
ENDBRANCH  24  26
ENDBRANCH  21  24
ENDBRANCH  18  21
ENDBRANCH  12  15
BRANCH  11  29
ATOM     29  C   UNL     1       5.755  -2.421  -0.599  0.00  0.00    +0.114 C 
BRANCH  29  30
ATOM     30  C   UNL     1       6.567  -2.118   0.662  0.00  0.00    +0.001 C 
BRANCH  30  31
ATOM     31  C   UNL     1       7.971  -1.656   0.266  0.00  0.00    -0.078 C 
BRANCH  31  34
ATOM     32  C   UNL     1       8.990  -2.588   2.255  0.00  0.00    -0.097 C 
ATOM     33  C   UNL     1      10.015  -0.698   1.141  0.00  0.00    -0.097 C 
ATOM     34  N   UNL     1       8.734  -1.348   1.493  0.00  0.00    +0.376 N 
ATOM     35  H   UNL     1       8.184  -0.706   2.076  0.00  0.00    -0.083 HD
ENDBRANCH  31  34
ENDBRANCH  30  31
ENDBRANCH  29  30
ENDBRANCH  11  29
TORSDOF 8
