REMARK  Name = ZINC39686665
REMARK  13 active torsions:
REMARK  status: ('A' for Active; 'I' for Inactive)
REMARK    1  A    between atoms: C_1  and  C_2
REMARK    2  A    between atoms: C_4  and  C_11
REMARK    3  A    between atoms: N_5  and  C_7
REMARK    4  A    between atoms: C_7  and  C_8
REMARK    5  A    between atoms: C_7  and  C_9
REMARK    6  A    between atoms: C_7  and  C_10
REMARK    7  A    between atoms: C_15  and  C_24
REMARK    8  A    between atoms: N_26  and  C_27
REMARK    9  A    between atoms: C_27  and  C_29
REMARK   10  A    between atoms: C_27  and  C_30
REMARK   11  A    between atoms: C_30  and  C_31
REMARK   12  A    between atoms: C_36  and  O_37
REMARK   13  A    between atoms: O_37  and  C_38
REMARK                            x       y       z     vdW  Elec       q    Type
REMARK                         _______ _______ _______ _____ _____    ______ ____
ROOT
ATOM      1  C   UNL     1      -1.058  -4.066  -0.610  0.00  0.00    +0.265 C 
ATOM      2  O   UNL     1      -1.139  -4.031  -1.823  0.00  0.00    -0.268 OA
ATOM      3  N   UNL     1      -1.378  -5.194   0.055  0.00  0.00    -0.295 N 
ATOM      4  C   UNL     1      -1.470  -5.388   1.521  0.00  0.00    +0.121 C 
ATOM      5  C   UNL     1      -2.701  -6.303   1.716  0.00  0.00    +0.100 C 
ATOM      6  C   UNL     1      -2.855  -7.043   0.378  0.00  0.00    -0.004 C 
ATOM      7  C   UNL     1      -1.722  -6.518  -0.515  0.00  0.00    +0.115 C 
ATOM      8  C   UNL     1      -4.207  -6.721  -0.252  0.00  0.00    -0.010 C 
ATOM      9  C   UNL     1      -4.361  -7.513  -1.553  0.00  0.00    -0.082 C 
ATOM     10  N   UNL     1      -4.262  -8.950  -1.268  0.00  0.00    +0.379 N 
ATOM     11  C   UNL     1      -2.926  -9.266  -0.749  0.00  0.00    -0.082 C 
ATOM     12  C   UNL     1      -2.711  -8.548   0.586  0.00  0.00    -0.010 C 
ATOM     13  H   UNL     1      -4.956  -9.204  -0.581  0.00  0.00    -0.086 HD
ATOM     14  H   UNL     1      -4.424  -9.472  -2.116  0.00  0.00    -0.086 HD
ENDROOT
BRANCH   1  18
ATOM     15  C   UNL     1       0.470  -0.879   3.028  0.00  0.00    +0.067 C 
ATOM     16  C   UNL     1       0.057  -1.474   1.706  0.00  0.00    +0.061 A 
ATOM     17  C   UNL     1      -0.322  -2.800   1.483  0.00  0.00    +0.057 A 
ATOM     18  C   UNL     1      -0.611  -2.876   0.132  0.00  0.00    +0.124 A 
ATOM     19  N   UNL     1      -0.397  -1.626  -0.375  0.00  0.00    -0.254 N 
ATOM     20  N   UNL     1      -0.016  -0.838   0.565  0.00  0.00    -0.175 NA
BRANCH  19  21
ATOM     21  C   UNL     1      -0.580  -1.241  -1.777  0.00  0.00    +0.056 C 
ATOM     22  C   UNL     1      -2.001  -1.591  -2.221  0.00  0.00    +0.036 C 
ATOM     23  C   UNL     1      -0.355   0.265  -1.926  0.00  0.00    +0.036 C 
ATOM     24  C   UNL     1       0.427  -1.995  -2.648  0.00  0.00    +0.036 C 
ENDBRANCH  19  21
ENDBRANCH   1  18
BRANCH   5  25
ATOM     25  C   UNL     1      -3.928  -5.477   2.007  0.00  0.00    +0.218 C 
ATOM     26  O   UNL     1      -4.072  -4.397   1.473  0.00  0.00    -0.275 OA
ATOM     27  N   UNL     1      -4.864  -5.938   2.860  0.00  0.00    -0.312 N 
ATOM     28  H   UNL     1      -4.713  -6.763   3.346  0.00  0.00    +0.149 HD
BRANCH  27  29
ATOM     29  C   UNL     1      -6.110  -5.192   3.052  0.00  0.00    +0.074 C 
ATOM     30  C   UNL     1      -5.875  -4.053   4.046  0.00  0.00    +0.028 C 
BRANCH  29  31
ATOM     31  C   UNL     1      -7.188  -6.132   3.597  0.00  0.00    +0.060 C 
BRANCH  31  32
ATOM     32  C   UNL     1      -7.519  -7.173   2.559  0.00  0.00    -0.004 A 
ATOM     33  C   UNL     1      -8.513  -6.931   1.630  0.00  0.00    +0.007 A 
ATOM     34  C   UNL     1      -8.818  -7.886   0.678  0.00  0.00    +0.000 A 
ATOM     35  C   UNL     1      -8.129  -9.084   0.652  0.00  0.00    +0.004 A 
ATOM     36  C   UNL     1      -7.134  -9.331   1.578  0.00  0.00    +0.046 A 
ATOM     37  C   UNL     1      -6.822  -8.372   2.531  0.00  0.00    +0.123 A 
BRANCH  37  38
ATOM     38  O   UNL     1      -5.840  -8.609   3.440  0.00  0.00    -0.495 OA
ATOM     39  C   UNL     1      -5.130  -9.843   3.319  0.00  0.00    +0.277 C 
ENDBRANCH  37  38
ENDBRANCH  31  32
ENDBRANCH  29  31
ENDBRANCH  27  29
ENDBRANCH   5  25
TORSDOF 7
