REMARK  Name = ZINC35714648
REMARK  12 active torsions:
REMARK  status: ('A' for Active; 'I' for Inactive)
REMARK    1  A    between atoms: C_1  and  C_2
REMARK    2  A    between atoms: C_2  and  C_3
REMARK    3  A    between atoms: C_3  and  C_5
REMARK    4  A    between atoms: C_3  and  N_6
REMARK    5  A    between atoms: C_7  and  C_9
REMARK    6  A    between atoms: C_12  and  C_14
REMARK    7  A    between atoms: C_14  and  N_15
REMARK    8  A    between atoms: N_15  and  C_16
REMARK    9  A    between atoms: N_15  and  C_25
REMARK   10  A    between atoms: C_16  and  C_17
REMARK   11  A    between atoms: C_25  and  C_27
REMARK   12  A    between atoms: C_25  and  C_28
REMARK                            x       y       z     vdW  Elec       q    Type
REMARK                         _______ _______ _______ _____ _____    ______ ____
ROOT
ATOM      1  N   UNL     1      -3.931   2.885   6.583  0.00  0.00    +0.393 N 
ATOM      2  H   UNL     1      -4.601   3.543   6.952  0.00  0.00    -0.080 HD
ENDROOT
BRANCH   1   3
ATOM      3  C   UNL     1      -3.102   3.548   5.568  0.00  0.00    -0.040 C 
ATOM      4  C   UNL     1      -3.808   3.485   4.212  0.00  0.00    -0.008 C 
BRANCH   3   5
ATOM      5  C   UNL     1      -2.888   4.989   5.957  0.00  0.00    -0.061 A 
ATOM      6  C   UNL     1      -3.958   5.758   6.372  0.00  0.00    +0.002 A 
ATOM      7  C   UNL     1      -3.761   7.080   6.729  0.00  0.00    +0.000 A 
ATOM      8  C   UNL     1      -2.495   7.630   6.670  0.00  0.00    +0.000 A 
ATOM      9  C   UNL     1      -1.425   6.860   6.255  0.00  0.00    +0.000 A 
ATOM     10  C   UNL     1      -1.621   5.538   5.902  0.00  0.00    +0.002 A 
ENDBRANCH   3   5
ENDBRANCH   1   3
BRANCH   1  11
ATOM     11  C   UNL     1      -4.641   1.754   5.973  0.00  0.00    +0.020 C 
BRANCH  11  15
ATOM     12  C   UNL     1      -7.212   2.824   3.656  0.00  0.00    +0.163 A 
ATOM     13  C   UNL     1      -7.827   3.087   4.841  0.00  0.00    +0.230 A 
ATOM     14  O   UNL     1      -6.971   2.731   5.813  0.00  0.00    -0.449 OA
ATOM     15  C   UNL     1      -5.855   2.260   5.237  0.00  0.00    +0.179 A 
ATOM     16  N   UNL     1      -5.988   2.305   3.946  0.00  0.00    -0.210 NA
BRANCH  12  18
ATOM     17  N   UNL     1      -7.047   2.738   1.218  0.00  0.00    -0.307 N 
ATOM     18  C   UNL     1      -7.770   3.053   2.311  0.00  0.00    +0.266 C 
ATOM     19  O   UNL     1      -8.884   3.526   2.187  0.00  0.00    -0.268 OA
ATOM     20  H   UNL     1      -6.158   2.361   1.317  0.00  0.00    +0.149 HD
BRANCH  17  21
ATOM     21  C   UNL     1      -7.601   2.965  -0.118  0.00  0.00    +0.070 C 
ATOM     22  C   UNL     1      -8.462   1.767  -0.524  0.00  0.00    +0.028 C 
BRANCH  21  24
ATOM     23  C   UNL     1      -5.673   4.405  -0.789  0.00  0.00    +0.005 C 
ATOM     24  C   UNL     1      -6.459   3.135  -1.122  0.00  0.00    +0.018 C 
ENDBRANCH  21  24
ENDBRANCH  17  21
ENDBRANCH  12  18
ENDBRANCH  11  15
ENDBRANCH   1  11
BRANCH   1  25
ATOM     25  C   UNL     1      -3.075   2.396   7.672  0.00  0.00    -0.041 C 
BRANCH  25  26
ATOM     26  C   UNL     1      -2.474   3.568   8.404  0.00  0.00    -0.062 A 
ATOM     27  C   UNL     1      -1.171   3.950   8.144  0.00  0.00    +0.003 A 
ATOM     28  C   UNL     1      -0.618   5.025   8.815  0.00  0.00    +0.021 A 
ATOM     29  C   UNL     1      -1.369   5.719   9.747  0.00  0.00    +0.059 A 
ATOM     30  C   UNL     1      -2.674   5.337  10.006  0.00  0.00    +0.059 A 
ATOM     31  C   UNL     1      -3.227   4.264   9.330  0.00  0.00    +0.023 A 
ATOM     32 CL   UNL     1      -3.618   6.206  11.175  0.00  0.00    -0.082 Cl
ATOM     33 CL   UNL     1      -0.676   7.069  10.590  0.00  0.00    -0.082 Cl
ENDBRANCH  25  26
ENDBRANCH   1  25
TORSDOF 9
