REMARK  Name = ZINC11553855
REMARK  10 active torsions:
REMARK  status: ('A' for Active; 'I' for Inactive)
REMARK    1  A    between atoms: C_1  and  C_2
REMARK    2  A    between atoms: C_2  and  O_3
REMARK    3  A    between atoms: O_3  and  C_4
REMARK    4  A    between atoms: C_6  and  C_11
REMARK    5  A    between atoms: C_9  and  O_10
REMARK    6  A    between atoms: C_13  and  C_27
REMARK    7  A    between atoms: C_14  and  C_26
REMARK    8  A    between atoms: N_15  and  C_19
REMARK    9  A    between atoms: C_22  and  C_25
REMARK   10  A    between atoms: C_32  and  C_35
REMARK                            x       y       z     vdW  Elec       q    Type
REMARK                         _______ _______ _______ _____ _____    ______ ____
ROOT
ATOM      1  C   UNL     1       3.326  -4.024   0.020  0.00  0.00    +0.139 C 
ATOM      2  C   UNL     1       1.897  -4.197   0.494  0.00  0.00    +0.056 C 
ATOM      3  C   UNL     1       1.361  -5.434   0.433  0.00  0.00    +0.025 C 
ATOM      4  N   UNL     1       2.079  -6.492  -0.050  0.00  0.00    -0.255 N 
ATOM      5  C   UNL     1       3.343  -6.396  -0.481  0.00  0.00    +0.142 C 
ATOM      6  S   UNL     1       4.132  -7.802  -1.056  0.00  0.00    -0.018 S 
ATOM      7  N   UNL     1       4.015  -5.227  -0.477  0.00  0.00    -0.315 N 
ATOM      8  C   UNL     1      -0.056  -5.652   0.900  0.00  0.00    +0.062 C 
ATOM      9  H   UNL     1       4.930  -5.180  -0.795  0.00  0.00    +0.149 HD
ENDROOT
BRANCH   2  10
ATOM     10  C   UNL     1       1.153  -3.099   0.989  0.00  0.00    +0.249 C 
ATOM     11  O   UNL     1       0.605  -2.336   0.215  0.00  0.00    -0.270 OA
ATOM     12  N   UNL     1       1.049  -2.900   2.318  0.00  0.00    -0.264 N 
ATOM     13  C   UNL     1       0.398  -1.768   2.805  0.00  0.00    +0.168 A 
ATOM     14  C   UNL     1      -0.206  -0.736   2.038  0.00  0.00    +0.091 A 
ATOM     15  C   UNL     1      -0.692   0.119   2.966  0.00  0.00    +0.136 A 
ATOM     16  O   UNL     1      -0.381  -0.398   4.164  0.00  0.00    -0.358 OA
ATOM     17  N   UNL     1       0.222  -1.442   4.059  0.00  0.00    -0.063 NA
ATOM     18  C   UNL     1      -1.432   1.405   2.706  0.00  0.00    +0.089 C 
ATOM     19  H   UNL     1       1.428  -3.545   2.936  0.00  0.00    +0.157 HD
ENDBRANCH   2  10
BRANCH   4  20
ATOM     20  C   UNL     1       1.461  -7.748  -0.091  0.00  0.00    +0.040 A 
ATOM     21  C   UNL     1       0.477  -8.008  -1.036  0.00  0.00    +0.024 A 
ATOM     22  C   UNL     1      -0.127  -9.250  -1.077  0.00  0.00    +0.005 A 
ATOM     23  C   UNL     1       0.239 -10.229  -0.172  0.00  0.00    -0.050 A 
ATOM     24  C   UNL     1       1.215  -9.971   0.773  0.00  0.00    +0.005 A 
ATOM     25  C   UNL     1       1.827  -8.734   0.817  0.00  0.00    +0.024 A 
ATOM     26  C   UNL     1      -0.426 -11.581  -0.216  0.00  0.00    +0.044 C 
ENDBRANCH   4  20
BRANCH   1  29
ATOM     27  C   UNL     1       5.235  -1.621   2.222  0.00  0.00    +0.162 A 
ATOM     28  C   UNL     1       4.499  -2.135   1.167  0.00  0.00    +0.055 A 
ATOM     29  C   UNL     1       4.132  -3.468   1.165  0.00  0.00    -0.019 A 
ATOM     30  C   UNL     1       4.507  -4.293   2.209  0.00  0.00    +0.009 A 
ATOM     31  C   UNL     1       5.247  -3.787   3.262  0.00  0.00    +0.049 A 
ATOM     32  C   UNL     1       5.613  -2.451   3.273  0.00  0.00    +0.158 A 
BRANCH  32  33
ATOM     33  O   UNL     1       6.341  -1.952   4.307  0.00  0.00    -0.503 OA
ATOM     34  H   UNL     1       7.298  -2.009   4.179  0.00  0.00    +0.292 HD
ENDBRANCH  32  33
BRANCH  27  35
ATOM     35  O   UNL     1       5.592  -0.308   2.228  0.00  0.00    -0.489 OA
BRANCH  35  37
ATOM     36  C   UNL     1       5.661   1.921   1.299  0.00  0.00    +0.048 C 
ATOM     37  C   UNL     1       5.169   0.484   1.117  0.00  0.00    +0.226 C 
ENDBRANCH  35  37
ENDBRANCH  27  35
ENDBRANCH   1  29
TORSDOF 6
