REMARK  Name = ZINC20367615
REMARK  10 active torsions:
REMARK  status: ('A' for Active; 'I' for Inactive)
REMARK    1  A    between atoms: C_1  and  C_2
REMARK    2  A    between atoms: C_5  and  N_8
REMARK    3  A    between atoms: C_9  and  C_11
REMARK    4  A    between atoms: C_12  and  C_41
REMARK    5  A    between atoms: C_16  and  C_18
REMARK    6  A    between atoms: C_28  and  C_31
REMARK    7  A    between atoms: C_34  and  O_39
REMARK    8  A    between atoms: C_35  and  O_37
REMARK    9  A    between atoms: O_37  and  C_38
REMARK   10  A    between atoms: O_39  and  C_40
REMARK                            x       y       z     vdW  Elec       q    Type
REMARK                         _______ _______ _______ _____ _____    ______ ____
ROOT
ATOM      1  C   UNL     1      -2.582   3.935  -0.033  0.00  0.00    +0.043 C 
ATOM      2  C   UNL     1      -2.679   5.273  -0.090  0.00  0.00    +0.014 C 
ATOM      3  N   UNL     1      -3.905   5.879  -0.105  0.00  0.00    -0.321 N 
ATOM      4  C   UNL     1      -5.019   5.211   0.326  0.00  0.00    +0.016 C 
ATOM      5  C   UNL     1      -5.022   3.863   0.406  0.00  0.00    +0.024 C 
ATOM      6  C   UNL     1      -3.805   3.066   0.002  0.00  0.00    +0.090 C 
ATOM      7  C   UNL     1      -6.154   3.166   0.862  0.00  0.00    +0.162 C 
ATOM      8  O   UNL     1      -6.125   1.952   0.915  0.00  0.00    -0.292 OA
ATOM      9  C   UNL     1      -7.400   3.894   1.287  0.00  0.00    +0.088 C 
ATOM     10  C   UNL     1      -7.014   5.284   1.804  0.00  0.00    +0.032 C 
ATOM     11  C   UNL     1      -6.239   6.014   0.705  0.00  0.00    +0.059 C 
ATOM     12  C   UNL     1      -1.429   6.113  -0.138  0.00  0.00    +0.061 C 
ATOM     13  H   UNL     1      -4.003   6.914  -0.466  0.00  0.00    +0.152 HD
ENDROOT
BRANCH   6  14
ATOM     14  C   UNL     1      -4.028   2.470  -1.364  0.00  0.00    -0.035 A 
ATOM     15  C   UNL     1      -4.237   3.297  -2.452  0.00  0.00    +0.007 A 
ATOM     16  C   UNL     1      -4.436   2.752  -3.706  0.00  0.00    +0.038 A 
ATOM     17  C   UNL     1      -4.438   1.377  -3.871  0.00  0.00    +0.123 A 
ATOM     18  C   UNL     1      -4.234   0.550  -2.779  0.00  0.00    +0.038 A 
ATOM     19  C   UNL     1      -4.029   1.097  -1.527  0.00  0.00    +0.007 A 
ATOM     20  F   UNL     1      -4.638   0.843  -5.095  0.00  0.00    -0.205 F 
ENDBRANCH   6  14
BRANCH  10  21
ATOM     21  C   UNL     1      -8.259   6.060   2.147  0.00  0.00    -0.040 A 
ATOM     22  C   UNL     1      -9.199   6.324   1.169  0.00  0.00    +0.008 A 
ATOM     23  C   UNL     1     -10.345   7.031   1.480  0.00  0.00    +0.049 A 
ATOM     24  C   UNL     1     -10.549   7.487   2.772  0.00  0.00    +0.161 A 
ATOM     25  C   UNL     1      -9.600   7.226   3.756  0.00  0.00    +0.162 A 
ATOM     26  C   UNL     1      -8.456   6.512   3.439  0.00  0.00    +0.053 A 
BRANCH  25  27
ATOM     27  O   UNL     1      -9.796   7.670   5.027  0.00  0.00    -0.491 OA
ATOM     28  C   UNL     1      -8.780   7.365   5.984  0.00  0.00    +0.277 C 
ENDBRANCH  25  27
BRANCH  24  29
ATOM     29  O   UNL     1     -11.674   8.187   3.079  0.00  0.00    -0.491 OA
ATOM     30  C   UNL     1     -12.604   8.417   2.018  0.00  0.00    +0.277 C 
ENDBRANCH  24  29
ENDBRANCH  10  21
BRANCH   1  32
ATOM     31  N   UNL     1      -0.535   3.335  -1.121  0.00  0.00    -0.282 N 
ATOM     32  C   UNL     1      -1.301   3.332  -0.011  0.00  0.00    +0.247 C 
ATOM     33  O   UNL     1      -0.890   2.810   1.010  0.00  0.00    -0.270 OA
ATOM     34  H   UNL     1      -0.877   3.863  -2.023  0.00  0.00    +0.155 HD
BRANCH  31  39
ATOM     35  C   UNL     1       4.457   0.642  -1.143  0.00  0.00    +0.044 C 
ATOM     36  C   UNL     1       3.129   1.356  -1.137  0.00  0.00    -0.050 A 
ATOM     37  C   UNL     1       2.352   1.377  -2.280  0.00  0.00    +0.005 A 
ATOM     38  C   UNL     1       1.135   2.031  -2.277  0.00  0.00    +0.023 A 
ATOM     39  C   UNL     1       0.693   2.667  -1.125  0.00  0.00    +0.034 A 
ATOM     40  C   UNL     1       1.476   2.643   0.022  0.00  0.00    +0.023 A 
ATOM     41  C   UNL     1       2.692   1.988   0.013  0.00  0.00    +0.005 A 
ENDBRANCH  31  39
ENDBRANCH   1  32
TORSDOF 6
