REMARK  Name = ZINC39771754
REMARK  12 active torsions:
REMARK  status: ('A' for Active; 'I' for Inactive)
REMARK    1  A    between atoms: C_1  and  C_2
REMARK    2  A    between atoms: C_2  and  O_3
REMARK    3  A    between atoms: O_3  and  C_4
REMARK    4  A    between atoms: C_4  and  C_5
REMARK    5  A    between atoms: C_5  and  C_6
REMARK    6  A    between atoms: C_6  and  N_7
REMARK    7  A    between atoms: C_20  and  S_21
REMARK    8  A    between atoms: S_21  and  C_22
REMARK    9  A    between atoms: C_22  and  C_24
REMARK   10  A    between atoms: C_22  and  C_25
REMARK   11  A    between atoms: C_25  and  C_27
REMARK   12  A    between atoms: C_35  and  C_37
REMARK                            x       y       z     vdW  Elec       q    Type
REMARK                         _______ _______ _______ _____ _____    ______ ____
ROOT
ATOM      1  N   UNL     1       2.639  -5.325   3.777  0.00  0.00    -0.277 N 
ATOM      2  C   UNL     1       3.979  -5.469   3.814  0.00  0.00    +0.263 A 
ATOM      3  O   UNL     1       4.631  -5.454   2.787  0.00  0.00    -0.267 OA
ATOM      4  C   UNL     1       4.641  -5.642   5.120  0.00  0.00    +0.064 A 
ATOM      5  C   UNL     1       6.023  -5.794   5.217  0.00  0.00    +0.015 A 
ATOM      6  C   UNL     1       6.605  -5.953   6.457  0.00  0.00    +0.001 A 
ATOM      7  C   UNL     1       5.824  -5.963   7.602  0.00  0.00    +0.002 A 
ATOM      8  C   UNL     1       4.454  -5.814   7.519  0.00  0.00    +0.027 A 
ATOM      9  C   UNL     1       3.852  -5.652   6.280  0.00  0.00    +0.064 A 
ATOM     10  N   UNL     1       2.471  -5.499   6.168  0.00  0.00    -0.256 N 
ATOM     11  C   UNL     1       1.887  -5.335   4.942  0.00  0.00    +0.240 A 
ATOM     12  N   UNL     1       0.592  -5.209   5.129  0.00  0.00    -0.109 NA
ATOM     13  N   UNL     1       0.340  -5.289   6.504  0.00  0.00    -0.120 NA
ATOM     14  C   UNL     1       1.484  -5.471   7.116  0.00  0.00    +0.198 A 
ENDROOT
BRANCH   1  15
ATOM     15  C   UNL     1       1.967  -5.152   2.487  0.00  0.00    +0.130 C 
BRANCH  15  16
ATOM     16  C   UNL     1       1.889  -3.662   2.149  0.00  0.00    +0.050 C 
BRANCH  16  17
ATOM     17  C   UNL     1       1.187  -3.480   0.802  0.00  0.00    +0.161 C 
BRANCH  17  18
ATOM     18  O   UNL     1       1.114  -2.088   0.486  0.00  0.00    -0.380 OA
BRANCH  18  20
ATOM     19  C   UNL     1       0.452  -0.296  -0.993  0.00  0.00    +0.034 C 
ATOM     20  C   UNL     1       0.473  -1.808  -0.760  0.00  0.00    +0.156 C 
ENDBRANCH  18  20
ENDBRANCH  17  18
ENDBRANCH  16  17
ENDBRANCH  15  16
ENDBRANCH   1  15
BRANCH  14  21
ATOM     21  S   UNL     1       1.713  -5.635   8.856  0.00  0.00    -0.075 S 
BRANCH  21  22
ATOM     22  C   UNL     1       0.035  -5.513   9.533  0.00  0.00    +0.122 C 
ATOM     23  C   UNL     1      -0.524  -4.114   9.264  0.00  0.00    +0.028 C 
BRANCH  22  24
ATOM     24  C   UNL     1       0.073  -5.761  11.019  0.00  0.00    +0.175 C 
ATOM     25  O   UNL     1       1.093  -5.549  11.643  0.00  0.00    -0.291 OA
BRANCH  24  26
ATOM     26  C   UNL     1      -1.075  -6.240  11.684  0.00  0.00    +0.027 C 
ATOM     27  C   UNL     1      -2.337  -6.425  11.147  0.00  0.00    +0.006 A 
ATOM     28  C   UNL     1      -2.873  -6.216   9.855  0.00  0.00    +0.010 A 
ATOM     29  C   UNL     1      -4.173  -6.488   9.604  0.00  0.00    +0.001 A 
ATOM     30  C   UNL     1      -5.044  -6.980  10.590  0.00  0.00    +0.002 A 
ATOM     31  C   UNL     1      -4.633  -7.214  11.855  0.00  0.00    +0.026 A 
ATOM     32  C   UNL     1      -3.230  -6.945  12.212  0.00  0.00    +0.043 A 
ATOM     33  N   UNL     1      -2.577  -7.076  13.332  0.00  0.00    -0.377 N 
ATOM     34  C   UNL     1      -1.184  -6.665  13.132  0.00  0.00    +0.111 C 
ATOM     35  C   UNL     1      -0.241  -7.837  13.409  0.00  0.00    +0.035 C 
ATOM     36  H   UNL     1      -2.953  -7.399  14.166  0.00  0.00    +0.160 HD
ENDBRANCH  24  26
ENDBRANCH  22  24
ENDBRANCH  21  22
ENDBRANCH  14  21
TORSDOF 9
