REMARK  Name = ZINC28058521
REMARK  6 active torsions:
REMARK  status: ('A' for Active; 'I' for Inactive)
REMARK    1  A    between atoms: C_1  and  O_2
REMARK    2  A    between atoms: O_2  and  C_3
REMARK    3  A    between atoms: C_6  and  C_11
REMARK    4  A    between atoms: C_7  and  O_9
REMARK    5  A    between atoms: O_9  and  C_10
REMARK    6  A    between atoms: C_22  and  C_24
REMARK                            x       y       z     vdW  Elec       q    Type
REMARK                         _______ _______ _______ _____ _____    ______ ____
ROOT
ATOM      1  C   UNL     1       3.375   0.934  -0.033  0.00  0.00    +0.177 C 
ATOM      2  C   UNL     1       3.886   2.323  -0.329  0.00  0.00    +0.026 C 
ATOM      3  C   UNL     1       3.094   3.397  -0.299  0.00  0.00    +0.050 C 
ATOM      4  C   UNL     1       3.692   4.723  -0.584  0.00  0.00    +0.038 A 
ATOM      5  C   UNL     1       2.903   5.823  -0.895  0.00  0.00    +0.013 A 
ATOM      6  C   UNL     1       3.503   7.041  -1.150  0.00  0.00    +0.001 A 
ATOM      7  C   UNL     1       4.881   7.166  -1.096  0.00  0.00    +0.004 A 
ATOM      8  C   UNL     1       5.674   6.075  -0.787  0.00  0.00    +0.046 A 
ATOM      9  C   UNL     1       5.086   4.850  -0.531  0.00  0.00    +0.131 A 
ATOM     10  O   UNL     1       5.829   3.756  -0.227  0.00  0.00    -0.479 OA
ATOM     11  C   UNL     1       5.345   2.494  -0.685  0.00  0.00    +0.234 C 
ATOM     12  N   UNL     1       1.726   3.309  -0.015  0.00  0.00    -0.282 N 
ATOM     13  C   UNL     1       1.155   2.048  -0.020  0.00  0.00    +0.240 A 
ATOM     14  N   UNL     1       1.919   0.925  -0.035  0.00  0.00    -0.201 N 
ATOM     15  N   UNL     1       1.018  -0.139  -0.048  0.00  0.00    -0.042 NA
ATOM     16  N   UNL     1      -0.167   0.382  -0.036  0.00  0.00    -0.021 NA
ATOM     17  N   UNL     1      -0.091   1.669  -0.019  0.00  0.00    -0.092 NA
ATOM     18  H   UNL     1       1.150   4.221   0.200  0.00  0.00    +0.155 HD
ENDROOT
BRANCH   1  22
ATOM     19  C   UNL     1       4.794  -0.309   3.805  0.00  0.00    +0.124 A 
ATOM     20  C   UNL     1       3.990   0.816   3.690  0.00  0.00    +0.046 A 
ATOM     21  C   UNL     1       3.533   1.216   2.449  0.00  0.00    +0.013 A 
ATOM     22  C   UNL     1       3.876   0.496   1.319  0.00  0.00    +0.023 A 
ATOM     23  C   UNL     1       4.675  -0.633   1.431  0.00  0.00    +0.129 A 
ATOM     24  C   UNL     1       5.139  -1.033   2.674  0.00  0.00    +0.091 A 
BRANCH  19  26
ATOM     25  C   UNL     1       4.849   0.091   6.148  0.00  0.00    +0.277 C 
ATOM     26  O   UNL     1       5.244  -0.701   5.027  0.00  0.00    -0.495 OA
ENDBRANCH  19  26
BRANCH  23  27
ATOM     27  O   UNL     1       5.006  -1.343   0.320  0.00  0.00    -0.495 OA
ATOM     28  C   UNL     1       5.832  -2.494   0.509  0.00  0.00    +0.277 C 
ENDBRANCH  23  27
ENDBRANCH   1  22
BRANCH  11  29
ATOM     29  C   UNL     1       5.505   2.415  -2.181  0.00  0.00    -0.003 A 
ATOM     30  C   UNL     1       6.025   1.273  -2.762  0.00  0.00    +0.007 A 
ATOM     31  C   UNL     1       6.168   1.199  -4.135  0.00  0.00    +0.000 A 
ATOM     32  C   UNL     1       5.798   2.270  -4.927  0.00  0.00    +0.000 A 
ATOM     33  C   UNL     1       5.282   3.413  -4.346  0.00  0.00    +0.000 A 
ATOM     34  C   UNL     1       5.136   3.486  -2.973  0.00  0.00    +0.007 A 
ENDBRANCH  11  29
TORSDOF 4
