REMARK  Name = ZINC12372729
REMARK  11 active torsions:
REMARK  status: ('A' for Active; 'I' for Inactive)
REMARK    1  A    between atoms: C_1  and  C_2
REMARK    2  A    between atoms: C_2  and  C_3
REMARK    3  A    between atoms: C_2  and  N_4
REMARK    4  A    between atoms: C_5  and  C_7
REMARK    5  A    between atoms: C_12  and  N_66
REMARK    6  A    between atoms: C_17  and  C_18
REMARK    7  A    between atoms: C_17  and  N_68
REMARK    8  A    between atoms: C_21  and  C_24
REMARK    9  A    between atoms: C_25  and  C_26
REMARK   10  A    between atoms: C_26  and  C_27
REMARK   11  A    between atoms: C_27  and  O_28
REMARK                            x       y       z     vdW  Elec       q    Type
REMARK                         _______ _______ _______ _____ _____    ______ ____
ROOT
ATOM      1  C   UNL     1       1.420   2.051  -0.001  0.00  0.00    -0.072 C 
ATOM      2  C   UNL     1      -0.019   1.526   0.010  0.00  0.00    -0.034 C 
ATOM      3  C   UNL     1       0.002  -0.004   0.002  0.00  0.00    -0.080 C 
ATOM      4  C   UNL     1       2.103  -0.026  -1.205  0.00  0.00    -0.080 C 
ATOM      5  C   UNL     1       2.145   1.503  -1.232  0.00  0.00    -0.034 C 
ATOM      6  N   UNL     1       0.693  -0.468  -1.220  0.00  0.00    +0.382 N 
ATOM      7  H   UNL     1       0.226  -0.063  -2.040  0.00  0.00    -0.081 HD
ENDROOT
BRANCH   1  13
ATOM      8  C   UNL     1       1.822   6.208   0.915  0.00  0.00    +0.071 C 
ATOM      9  C   UNL     1       2.729   5.579  -0.146  0.00  0.00    -0.006 C 
ATOM     10  C   UNL     1       2.766   4.062   0.056  0.00  0.00    -0.078 C 
ATOM     11  C   UNL     1       0.529   4.074   0.988  0.00  0.00    -0.078 C 
ATOM     12  C   UNL     1       0.425   5.591   0.813  0.00  0.00    -0.006 C 
ATOM     13  N   UNL     1       1.395   3.526  -0.078  0.00  0.00    +0.382 N 
ATOM     14  H   UNL     1       1.016   3.806  -0.991  0.00  0.00    -0.081 HD
BRANCH   8  16
ATOM     15  N   UNL     1       0.985   8.460   1.504  0.00  0.00    -0.313 N 
ATOM     16  C   UNL     1       1.734   7.695   0.685  0.00  0.00    +0.216 C 
ATOM     17  O   UNL     1       2.336   8.203  -0.237  0.00  0.00    -0.276 OA
ATOM     18  H   UNL     1       0.503   8.055   2.241  0.00  0.00    +0.149 HD
BRANCH  15  20
ATOM     19  C   UNL     1      -0.193  10.198   0.248  0.00  0.00    +0.027 C 
ATOM     20  C   UNL     1       0.899   9.906   1.280  0.00  0.00    +0.067 C 
ATOM     21  C   UNL     1       0.558  10.607   2.596  0.00  0.00    +0.027 C 
ENDBRANCH  15  20
ENDBRANCH   8  16
ENDBRANCH   1  13
BRANCH   6  22
ATOM     22  C   UNL     1       0.626  -1.941  -1.309  0.00  0.00    -0.043 C 
BRANCH  22  23
ATOM     23  C   UNL     1       1.139  -2.369  -2.660  0.00  0.00    -0.064 A 
ATOM     24  C   UNL     1       0.264  -2.475  -3.727  0.00  0.00    +0.003 A 
ATOM     25  C   UNL     1       0.728  -2.861  -4.967  0.00  0.00    +0.017 A 
ATOM     26  C   UNL     1       2.081  -3.156  -5.142  0.00  0.00    +0.025 A 
ATOM     27  C   UNL     1       2.957  -3.054  -4.061  0.00  0.00    +0.017 A 
ATOM     28  C   UNL     1       2.481  -2.661  -2.826  0.00  0.00    +0.003 A 
BRANCH  26  29
ATOM     29  C   UNL     1       2.568  -3.563  -6.426  0.00  0.00    -0.066 C 
ATOM     30  C   UNL     1       2.968  -3.896  -7.478  0.00  0.00    -0.095 C 
BRANCH  30  31
ATOM     31  C   UNL     1       3.469  -4.314  -8.798  0.00  0.00    +0.117 C 
BRANCH  31  32
ATOM     32  C   UNL     1       2.310  -4.344  -9.797  0.00  0.00    +0.168 C 
BRANCH  32  33
ATOM     33  O   UNL     1       2.796  -4.750 -11.078  0.00  0.00    -0.394 OA
ATOM     34  H   UNL     1       2.115  -4.791 -11.762  0.00  0.00    +0.209 HD
ENDBRANCH  32  33
ENDBRANCH  31  32
ENDBRANCH  30  31
ENDBRANCH  26  29
ENDBRANCH  22  23
ENDBRANCH   6  22
TORSDOF 9
