REMARK  Name = ZINC44221981
REMARK  4 active torsions:
REMARK  status: ('A' for Active; 'I' for Inactive)
REMARK    1  A    between atoms: C_1  and  C_2
REMARK    2  A    between atoms: C_2  and  C_13
REMARK    3  A    between atoms: C_3  and  C_4
REMARK    4  A    between atoms: C_9  and  O_10
REMARK                            x       y       z     vdW  Elec       q    Type
REMARK                         _______ _______ _______ _____ _____    ______ ____
ROOT
ATOM      1  C   UNL     1       0.114   0.082   2.417  0.00  0.00    +0.019 A 
ATOM      2  C   UNL     1      -0.119   1.463   2.446  0.00  0.00    +0.026 A 
ATOM      3  C   UNL     1      -0.113   2.135   3.648  0.00  0.00    +0.015 A 
ATOM      4  C   UNL     1       0.123   1.451   4.831  0.00  0.00    +0.032 A 
ATOM      5  C   UNL     1       0.354   0.089   4.818  0.00  0.00    +0.056 A 
ATOM      6  C   UNL     1       0.346  -0.607   3.619  0.00  0.00    +0.137 A 
ATOM      7  I   UNL     1       0.710  -0.928   6.615  0.00  0.00    -0.040 I 
ATOM      8  I   UNL     1      -0.462   4.200   3.690  0.00  0.00    -0.044 I 
ENDROOT
BRANCH   1  11
ATOM      9  C   UNL     1      -1.891   0.668   0.485  0.00  0.00    +0.051 C 
ATOM     10  C   UNL     1      -0.794  -0.321   0.184  0.00  0.00    +0.038 C 
ATOM     11  C   UNL     1       0.109  -0.641   1.140  0.00  0.00    +0.022 C 
BRANCH  10  12
ATOM     12  C   UNL     1      -0.708  -0.913  -1.097  0.00  0.00    +0.382 C 
ATOM     13  O   UNL     1       0.184  -1.716  -1.341  0.00  0.00    -0.241 OA
ATOM     14  O   UNL     1      -1.525  -0.623  -1.962  0.00  0.00    -0.241 OA
ENDBRANCH  10  12
ENDBRANCH   1  11
BRANCH   6  15
ATOM     15  O   UNL     1       0.568  -1.945   3.605  0.00  0.00    -0.505 OA
ATOM     16  H   UNL     1       1.499  -2.189   3.516  0.00  0.00    +0.292 HD
ENDBRANCH   6  15
TORSDOF 3
