REMARK  Name = ZINC20541899
REMARK  3 active torsions:
REMARK  status: ('A' for Active; 'I' for Inactive)
REMARK    1  A    between atoms: C_7  and  C_10
REMARK    2  A    between atoms: C_10  and  C_11
REMARK    3  A    between atoms: C_20  and  N_22
REMARK                            x       y       z     vdW  Elec       q    Type
REMARK                         _______ _______ _______ _____ _____    ______ ____
ROOT
ATOM      1  C   UNL     1       2.779   4.999   0.003  0.00  0.00    +0.226 C 
ATOM      2  O   UNL     1       3.941   5.349  -0.005  0.00  0.00    -0.275 OA
ATOM      3  N   UNL     1       2.471   3.687  -0.001  0.00  0.00    -0.271 N 
ATOM      4  C   UNL     1       3.447   2.594  -0.016  0.00  0.00    +0.118 C 
ATOM      5  C   UNL     1       2.610   1.305  -0.015  0.00  0.00    +0.056 C 
ATOM      6  C   UNL     1       1.175   1.782   0.000  0.00  0.00    -0.023 A 
ATOM      7  C   UNL     1       1.170   3.167   0.008  0.00  0.00    +0.040 A 
ATOM      8  C   UNL     1      -0.051   3.844   0.023  0.00  0.00    +0.025 A 
ATOM      9  C   UNL     1      -1.237   3.141   0.031  0.00  0.00    +0.024 A 
ATOM     10  C   UNL     1      -1.225   1.753   0.017  0.00  0.00    +0.025 A 
ATOM     11  C   UNL     1      -0.013   1.076   0.008  0.00  0.00    +0.028 A 
ENDROOT
BRANCH  10  12
ATOM     12  N   UNL     1      -2.428   1.039   0.019  0.00  0.00    -0.358 N 
ATOM     13  H   UNL     1      -2.416  -0.061   0.008  0.00  0.00    +0.142 HD
ATOM     14  H   UNL     1      -3.387   1.578   0.032  0.00  0.00    +0.142 HD
ENDBRANCH  10  12
BRANCH   1  15
ATOM     15  C   UNL     1       1.681   6.031   0.019  0.00  0.00    +0.155 C 
BRANCH  15  22
ATOM     16  C   UNL     1       2.934   8.963  -3.407  0.00  0.00    +0.001 A 
ATOM     17  C   UNL     1       3.464  10.156  -2.937  0.00  0.00    +0.004 A 
ATOM     18  C   UNL     1       3.580  10.387  -1.583  0.00  0.00    +0.049 A 
ATOM     19  C   UNL     1       3.164   9.417  -0.679  0.00  0.00    +0.168 A 
ATOM     20  C   UNL     1       2.628   8.211  -1.159  0.00  0.00    +0.045 A 
ATOM     21  C   UNL     1       2.518   7.997  -2.535  0.00  0.00    +0.013 A 
ATOM     22  C   UNL     1       2.289   7.410   0.021  0.00  0.00    +0.100 A 
ATOM     23  N   UNL     1       2.602   8.110   1.068  0.00  0.00    -0.082 NA
ATOM     24  O   UNL     1       3.149   9.350   0.667  0.00  0.00    -0.354 OA
ENDBRANCH  15  22
ENDBRANCH   1  15
TORSDOF 3
