REMARK  Name = ZINC27544641
REMARK  7 active torsions:
REMARK  status: ('A' for Active; 'I' for Inactive)
REMARK    1  A    between atoms: C_1  and  C_2
REMARK    2  A    between atoms: C_2  and  C_4
REMARK    3  A    between atoms: C_2  and  N_14
REMARK    4  A    between atoms: C_15  and  C_17
REMARK    5  A    between atoms: C_17  and  N_18
REMARK    6  A    between atoms: N_21  and  C_24
REMARK    7  A    between atoms: C_24  and  C_25
REMARK                            x       y       z     vdW  Elec       q    Type
REMARK                         _______ _______ _______ _____ _____    ______ ____
ROOT
ATOM      1  C   UNL     1      -0.476   2.701   3.625  0.00  0.00    +0.019 C 
ENDROOT
BRANCH   1   2
ATOM      2  N   UNL     1       0.564   2.836   4.654  0.00  0.00    +0.387 N 
ATOM      3  C   UNL     1       1.115   1.524   5.021  0.00  0.00    -0.063 C 
ATOM      4  C   UNL     1       2.247   1.714   6.033  0.00  0.00    +0.066 C 
ATOM      5  N   UNL     1       1.729   2.414   7.217  0.00  0.00    -0.298 NA
ATOM      6  C   UNL     1       1.178   3.726   6.850  0.00  0.00    +0.066 C 
ATOM      7  C   UNL     1       0.046   3.536   5.837  0.00  0.00    -0.063 C 
ATOM      8  H   UNL     1       1.380   3.441   4.231  0.00  0.00    -0.081 HD
BRANCH   5   9
ATOM      9  C   UNL     1       2.769   2.549   8.246  0.00  0.00    +0.180 C 
BRANCH   9  10
ATOM     10  C   UNL     1       3.135   1.185   8.772  0.00  0.00    +0.230 C 
ATOM     11  O   UNL     1       2.584   0.198   8.333  0.00  0.00    -0.274 OA
ATOM     12  N   UNL     1       4.075   1.062   9.730  0.00  0.00    -0.300 N 
ATOM     13  C   UNL     1       4.717   2.258  10.228  0.00  0.00    +0.108 C 
ATOM     14  C   UNL     1       5.963   2.580   9.375  0.00  0.00    +0.019 C 
ATOM     15  C   UNL     1       7.029   1.602   9.641  0.00  0.00    +0.002 C 
ATOM     16  C   UNL     1       6.673   0.167   9.266  0.00  0.00    +0.002 C 
ATOM     17  C   UNL     1       5.927  -0.478  10.408  0.00  0.00    +0.019 C 
ATOM     18  C   UNL     1       4.410  -0.288  10.223  0.00  0.00    +0.108 C 
ENDBRANCH   9  10
ENDBRANCH   5   9
ENDBRANCH   1   2
BRANCH   1  20
ATOM     19  N   UNL     1      -0.623   2.007   1.255  0.00  0.00    -0.310 N 
ATOM     20  C   UNL     1       0.146   2.206   2.344  0.00  0.00    +0.197 C 
ATOM     21  O   UNL     1       1.338   1.988   2.294  0.00  0.00    -0.278 OA
ATOM     22  H   UNL     1      -1.704   2.205   1.301  0.00  0.00    +0.149 HD
BRANCH  19  24
ATOM     23  C   UNL     1       0.021  -0.004   0.021  0.00  0.00    +0.033 C 
ATOM     24  C   UNL     1      -0.019   1.526   0.010  0.00  0.00    +0.101 C 
BRANCH  24  25
ATOM     25  C   UNL     1      -0.839   1.999  -1.162  0.00  0.00    -0.020 A 
ATOM     26  C   UNL     1      -2.169   2.248  -1.010  0.00  0.00    +0.006 A 
ATOM     27  C   UNL     1      -2.943   2.686  -2.082  0.00  0.00    +0.001 A 
ATOM     28  C   UNL     1      -2.393   2.878  -3.312  0.00  0.00    +0.008 A 
ATOM     29  C   UNL     1      -1.024   2.631  -3.507  0.00  0.00    -0.018 A 
ATOM     30  C   UNL     1      -0.235   2.190  -2.416  0.00  0.00    -0.013 A 
ATOM     31  C   UNL     1       1.136   1.949  -2.609  0.00  0.00    +0.009 A 
ATOM     32  C   UNL     1       1.688   2.146  -3.838  0.00  0.00    +0.001 A 
ATOM     33  C   UNL     1       0.912   2.584  -4.910  0.00  0.00    +0.001 A 
ATOM     34  C   UNL     1      -0.420   2.818  -4.763  0.00  0.00    +0.008 A 
ENDBRANCH  24  25
ENDBRANCH  19  24
ENDBRANCH   1  20
TORSDOF 6
