REMARK  Name = ZINC34829772
REMARK  11 active torsions:
REMARK  status: ('A' for Active; 'I' for Inactive)
REMARK    1  A    between atoms: C_1  and  C_2
REMARK    2  A    between atoms: C_2  and  C_3
REMARK    3  A    between atoms: C_3  and  C_4
REMARK    4  A    between atoms: C_4  and  C_5
REMARK    5  A    between atoms: C_5  and  C_6
REMARK    6  A    between atoms: C_6  and  C_7
REMARK    7  A    between atoms: C_14  and  C_16
REMARK    8  A    between atoms: C_17  and  C_19
REMARK    9  A    between atoms: C_19  and  N_20
REMARK   10  A    between atoms: C_28  and  C_30
REMARK   11  A    between atoms: C_33  and  C_36
REMARK                            x       y       z     vdW  Elec       q    Type
REMARK                         _______ _______ _______ _____ _____    ______ ____
ROOT
ATOM      1  C   UNL     1      -4.210 -10.784  -1.115  0.00  0.00    +0.020 C 
ENDROOT
BRANCH   1  11
ATOM      2  C   UNL     1      -4.268  -4.670  -0.306  0.00  0.00    +0.216 C 
ATOM      3  O   UNL     1      -5.197  -3.892  -0.270  0.00  0.00    -0.276 OA
ATOM      4  N   UNL     1      -4.491  -5.992  -0.171  0.00  0.00    -0.296 N 
ATOM      5  C   UNL     1      -3.390  -6.955  -0.321  0.00  0.00    +0.127 C 
ATOM      6  C   UNL     1      -3.778  -7.981  -1.393  0.00  0.00    +0.126 C 
ATOM      7  N   UNL     1      -5.126  -8.486  -1.094  0.00  0.00    -0.300 N 
ATOM      8  C   UNL     1      -6.226  -7.523  -0.945  0.00  0.00    +0.130 C 
ATOM      9  C   UNL     1      -5.837  -6.497   0.133  0.00  0.00    +0.090 C 
ATOM     10  C   UNL     1      -6.834  -5.337   0.125  0.00  0.00    +0.029 C 
ATOM     11  C   UNL     1      -5.348  -9.808  -0.959  0.00  0.00    +0.199 C 
ATOM     12  O   UNL     1      -6.465 -10.213  -0.712  0.00  0.00    -0.278 OA
BRANCH   2  13
ATOM     13  C   UNL     1      -2.864  -4.159  -0.502  0.00  0.00    +0.096 C 
BRANCH  13  14
ATOM     14  C   UNL     1      -2.890  -2.634  -0.627  0.00  0.00    +0.009 C 
BRANCH  14  15
ATOM     15  C   UNL     1      -1.464  -2.114  -0.826  0.00  0.00    +0.000 C 
BRANCH  15  16
ATOM     16  C   UNL     1      -1.490  -0.590  -0.950  0.00  0.00    -0.000 C 
BRANCH  16  18
ATOM     17  C   UNL     1      -0.090   1.455  -1.274  0.00  0.00    +0.004 C 
ATOM     18  C   UNL     1      -0.065  -0.070  -1.149  0.00  0.00    -0.003 C 
ENDBRANCH  16  18
ENDBRANCH  15  16
ENDBRANCH  14  15
ENDBRANCH  13  14
ENDBRANCH   2  13
ENDBRANCH   1  11
BRANCH   1  19
ATOM     19  N   UNL     1      -4.708 -12.152  -0.923  0.00  0.00    +0.393 N 
ATOM     20  C   UNL     1      -5.678 -12.467  -1.981  0.00  0.00    -0.072 C 
ATOM     21  C   UNL     1      -6.436 -13.749  -1.597  0.00  0.00    +0.024 C 
ATOM     22  C   UNL     1      -5.423 -14.756  -1.158  0.00  0.00    -0.010 A 
ATOM     23  C   UNL     1      -4.115 -14.511  -0.860  0.00  0.00    -0.047 A 
ATOM     24  C   UNL     1      -3.350 -15.609  -0.475  0.00  0.00    +0.010 A 
ATOM     25  C   UNL     1      -3.913 -16.838  -0.411  0.00  0.00    +0.045 A 
ATOM     26  S   UNL     1      -5.598 -16.498  -0.902  0.00  0.00    -0.101 S 
ATOM     27  C   UNL     1      -3.578 -13.087  -0.957  0.00  0.00    -0.005 C 
ATOM     28  H   UNL     1      -5.165 -12.216  -0.026  0.00  0.00    -0.080 HD
BRANCH  27  29
ATOM     29  C   UNL     1      -2.660 -12.813   0.206  0.00  0.00    -0.057 A 
ATOM     30  C   UNL     1      -3.189 -12.511   1.447  0.00  0.00    +0.002 A 
ATOM     31  C   UNL     1      -2.347 -12.259   2.514  0.00  0.00    +0.003 A 
ATOM     32  C   UNL     1      -0.976 -12.310   2.341  0.00  0.00    -0.050 A 
ATOM     33  C   UNL     1      -0.448 -12.613   1.100  0.00  0.00    +0.003 A 
ATOM     34  C   UNL     1      -1.289 -12.869   0.034  0.00  0.00    +0.002 A 
ATOM     35  C   UNL     1      -0.059 -12.035   3.504  0.00  0.00    +0.044 C 
ENDBRANCH  27  29
ENDBRANCH   1  19
TORSDOF 8
