REMARK  Name = ZINC20744464
REMARK  4 active torsions:
REMARK  status: ('A' for Active; 'I' for Inactive)
REMARK    1  A    between atoms: C_1  and  C_2
REMARK    2  A    between atoms: C_8  and  C_12
REMARK    3  A    between atoms: C_12  and  C_14
REMARK    4  A    between atoms: C_12  and  N_17
REMARK                            x       y       z     vdW  Elec       q    Type
REMARK                         _______ _______ _______ _____ _____    ______ ____
ROOT
ATOM      1  C   UNL     1      -1.760   4.206   0.040  0.00  0.00    +0.080 C 
ENDROOT
BRANCH   1   9
ATOM      2  C   UNL     1       3.617   2.236   0.171  0.00  0.00    +0.044 C 
ATOM      3  C   UNL     1       2.205   1.710   0.201  0.00  0.00    -0.050 A 
ATOM      4  C   UNL     1       1.980   0.343   0.285  0.00  0.00    +0.005 A 
ATOM      5  C   UNL     1       0.698  -0.158   0.313  0.00  0.00    +0.026 A 
ATOM      6  C   UNL     1      -0.386   0.713   0.257  0.00  0.00    +0.047 A 
ATOM      7  C   UNL     1      -0.153   2.098   0.173  0.00  0.00    +0.002 A 
ATOM      8  C   UNL     1       1.156   2.584   0.145  0.00  0.00    +0.013 A 
ATOM      9  C   UNL     1      -1.474   2.729   0.131  0.00  0.00    -0.025 A 
ATOM     10  C   UNL     1      -2.382   1.742   0.184  0.00  0.00    +0.086 A 
ATOM     11  N   UNL     1      -1.750   0.531   0.266  0.00  0.00    -0.360 N 
ATOM     12  H   UNL     1      -2.169  -0.484   0.331  0.00  0.00    +0.165 HD
ENDBRANCH   1   9
BRANCH   1  13
ATOM     13  N   UNL     1      -3.070   4.413  -0.592  0.00  0.00    +0.394 N 
ATOM     14  C   UNL     1      -3.101   3.832  -1.944  0.00  0.00    -0.072 C 
ATOM     15  C   UNL     1      -4.557   3.746  -2.401  0.00  0.00    +0.017 C 
ATOM     16  C   UNL     1      -5.237   5.076  -2.204  0.00  0.00    -0.048 A 
ATOM     17  C   UNL     1      -6.431   5.314  -2.869  0.00  0.00    +0.004 A 
ATOM     18  C   UNL     1      -7.091   6.516  -2.709  0.00  0.00    +0.000 A 
ATOM     19  C   UNL     1      -6.559   7.488  -1.882  0.00  0.00    +0.000 A 
ATOM     20  C   UNL     1      -5.370   7.253  -1.222  0.00  0.00    +0.002 A 
ATOM     21  C   UNL     1      -4.705   6.046  -1.382  0.00  0.00    -0.061 A 
ATOM     22  C   UNL     1      -3.408   5.839  -0.644  0.00  0.00    -0.041 C 
ATOM     23  H   UNL     1      -3.823   3.902   0.026  0.00  0.00    -0.080 HD
ENDBRANCH   1  13
BRANCH   1  24
ATOM     24  C   UNL     1      -1.770   4.802   1.424  0.00  0.00    +0.347 C 
ATOM     25  O   UNL     1      -2.806   4.875   2.042  0.00  0.00    -0.248 OA
ATOM     26  O   UNL     1      -0.629   5.251   1.970  0.00  0.00    -0.248 OA
ENDBRANCH   1  24
TORSDOF 3
