REMARK  Name = ZINC52902056
REMARK  3 active torsions:
REMARK  status: ('A' for Active; 'I' for Inactive)
REMARK    1  A    between atoms: C_3  and  C_6
REMARK    2  A    between atoms: C_7  and  C_12
REMARK    3  A    between atoms: C_10  and  N_11
REMARK                            x       y       z     vdW  Elec       q    Type
REMARK                         _______ _______ _______ _____ _____    ______ ____
ROOT
ATOM      1  C   UNL     1       3.720   1.886  -0.063  0.00  0.00    +0.077 A 
ATOM      2  C   UNL     1       4.751   1.571  -1.056  0.00  0.00    +0.124 A 
ATOM      3  N   UNL     1       5.865   2.131  -0.648  0.00  0.00    -0.075 NA
ATOM      4  O   UNL     1       5.620   2.803   0.571  0.00  0.00    -0.339 OA
ATOM      5  C   UNL     1       4.330   2.655   0.910  0.00  0.00    +0.224 A 
ENDROOT
BRANCH   2   6
ATOM      6  C   UNL     1       4.568   0.770  -2.291  0.00  0.00    +0.008 A 
ATOM      7  C   UNL     1       3.425   0.939  -3.070  0.00  0.00    +0.014 A 
ATOM      8  C   UNL     1       3.256   0.193  -4.218  0.00  0.00    +0.050 A 
ATOM      9  C   UNL     1       4.221  -0.726  -4.601  0.00  0.00    +0.166 A 
ATOM     10  C   UNL     1       5.367  -0.898  -3.826  0.00  0.00    +0.167 A 
ATOM     11  C   UNL     1       5.543  -0.148  -2.677  0.00  0.00    +0.059 A 
ATOM     12  O   UNL     1       6.151  -1.849  -4.413  0.00  0.00    -0.453 OA
ATOM     13  C   UNL     1       5.287  -2.548  -5.328  0.00  0.00    +0.466 C 
ATOM     14  O   UNL     1       4.290  -1.569  -5.673  0.00  0.00    -0.453 OA
ENDBRANCH   2   6
BRANCH   1  17
ATOM     15  C   UNL     1      -0.052   1.616  -0.238  0.00  0.00    +0.008 A 
ATOM     16  C   UNL     1       1.179   2.238  -0.233  0.00  0.00    +0.016 A 
ATOM     17  C   UNL     1       2.304   1.468  -0.098  0.00  0.00    +0.026 A 
ATOM     18  S   UNL     1       1.612  -0.174   0.025  0.00  0.00    -0.096 S 
ATOM     19  C   UNL     1      -0.113   0.268  -0.110  0.00  0.00    +0.046 A 
ENDBRANCH   1  17
BRANCH   5  20
ATOM     20  N   UNL     1       3.722   3.175   2.034  0.00  0.00    -0.327 N 
ATOM     21  H   UNL     1       2.779   3.010   2.196  0.00  0.00    +0.145 HD
ATOM     22  H   UNL     1       4.236   3.705   2.663  0.00  0.00    +0.145 HD
ENDBRANCH   5  20
TORSDOF 3
