REMARK  Name = ZINC21214349
REMARK  2 active torsions:
REMARK  status: ('A' for Active; 'I' for Inactive)
REMARK    1  A    between atoms: C_1  and  C_2
REMARK    2  A    between atoms: C_7  and  C_8
REMARK                            x       y       z     vdW  Elec       q    Type
REMARK                         _______ _______ _______ _____ _____    ______ ____
ROOT
ATOM      1  C   UNL     1      -0.018   1.503   0.010  0.00  0.00    +0.047 C 
ATOM      2  C   UNL     1       0.002  -0.004   0.002  0.00  0.00    -0.010 A 
ATOM      3  C   UNL     1       0.008  -0.834  -1.125  0.00  0.00    +0.042 A 
ATOM      4  C   UNL     1       0.026  -2.156  -0.678  0.00  0.00    +0.027 A 
ATOM      5  N   UNL     1       0.034  -2.137   0.655  0.00  0.00    -0.354 N 
ATOM      6  H   UNL     1       0.048  -2.921   1.227  0.00  0.00    +0.166 HD
ATOM      7  C   UNL     1       0.024  -0.827   1.094  0.00  0.00    +0.106 A 
ATOM      8  C   UNL     1       0.031  -3.337  -1.615  0.00  0.00    +0.054 C 
ATOM      9  C   UNL     1      -0.488  -2.895  -2.987  0.00  0.00    +0.014 C 
ATOM     10  C   UNL     1       0.287  -1.673  -3.491  0.00  0.00    +0.080 C 
ATOM     11  C   UNL     1       0.002  -0.505  -2.559  0.00  0.00    +0.165 C 
ATOM     12  O   UNL     1      -0.214   0.616  -2.968  0.00  0.00    -0.292 OA
ENDROOT
BRANCH   7  13
ATOM     13  C   UNL     1       0.032  -0.392   2.496  0.00  0.00    +0.266 C 
ATOM     14  O   UNL     1       0.019   0.795   2.765  0.00  0.00    -0.268 OA
ATOM     15  N   UNL     1       0.055  -1.307   3.485  0.00  0.00    -0.258 N 
ATOM     16  C   UNL     1       0.062  -0.895   4.812  0.00  0.00    +0.188 A 
ATOM     17  N   UNL     1       0.045   0.328   5.327  0.00  0.00    -0.126 NA
ATOM     18  N   UNL     1       0.055   0.525   6.572  0.00  0.00    -0.148 NA
ATOM     19  C   UNL     1       0.084  -0.466   7.440  0.00  0.00    +0.183 A 
ATOM     20  S   UNL     1       0.090  -1.862   6.319  0.00  0.00    -0.039 S 
ATOM     21  H   UNL     1       0.065  -2.252   3.271  0.00  0.00    +0.157 HD
ENDBRANCH   7  13
TORSDOF 1
