REMARK  Name = ZINC48365474
REMARK  6 active torsions:
REMARK  status: ('A' for Active; 'I' for Inactive)
REMARK    1  A    between atoms: C_4  and  N_25
REMARK    2  A    between atoms: C_5  and  C_7
REMARK    3  A    between atoms: C_7  and  N_8
REMARK    4  A    between atoms: N_11  and  C_12
REMARK    5  A    between atoms: C_16  and  C_18
REMARK    6  A    between atoms: C_19  and  C_20
REMARK                            x       y       z     vdW  Elec       q    Type
REMARK                         _______ _______ _______ _____ _____    ______ ____
ROOT
ATOM      1  N   UNL     1       1.496  -2.678   1.334  0.00  0.00    -0.295 N 
ATOM      2  C   UNL     1       1.551  -4.004   1.569  0.00  0.00    +0.304 C 
ATOM      3  O   UNL     1       1.383  -4.791   0.658  0.00  0.00    -0.252 OA
ATOM      4  N   UNL     1       1.793  -4.457   2.815  0.00  0.00    -0.269 N 
ATOM      5  H   UNL     1       1.630  -2.050   2.061  0.00  0.00    +0.151 HD
ATOM      6  H   UNL     1       1.993  -3.832   3.529  0.00  0.00    +0.156 HD
ENDROOT
BRANCH   4   7
ATOM      7  C   UNL     1       1.755  -5.832   3.080  0.00  0.00    +0.036 A 
ATOM      8  C   UNL     1       1.276  -6.291   4.301  0.00  0.00    +0.023 A 
ATOM      9  C   UNL     1       1.235  -7.647   4.568  0.00  0.00    +0.003 A 
ATOM     10  C   UNL     1       1.670  -8.554   3.625  0.00  0.00    +0.017 A 
ATOM     11  C   UNL     1       2.154  -8.103   2.393  0.00  0.00    +0.027 A 
ATOM     12  C   UNL     1       2.190  -6.733   2.122  0.00  0.00    +0.040 A 
BRANCH  11  13
ATOM     13  C   UNL     1       2.607  -9.042   1.411  0.00  0.00    -0.060 C 
ATOM     14  C   UNL     1       2.978  -9.812   0.606  0.00  0.00    -0.054 C 
BRANCH  14  15
ATOM     15  C   UNL     1       3.430 -10.751  -0.376  0.00  0.00    +0.062 A 
ATOM     16  C   UNL     1       3.467 -12.134  -0.310  0.00  0.00    +0.024 A 
ATOM     17  C   UNL     1       3.951 -12.826  -1.396  0.00  0.00    +0.009 A 
ATOM     18  C   UNL     1       4.374 -12.139  -2.489  0.00  0.00    +0.046 A 
ATOM     19  S   UNL     1       4.087 -10.444  -2.008  0.00  0.00    -0.088 S 
ENDBRANCH  14  15
ENDBRANCH  11  13
ENDBRANCH   4   7
BRANCH   1  20
ATOM     20  C   UNL     1       1.232  -2.185  -0.021  0.00  0.00    +0.143 C 
BRANCH  20  25
ATOM     21  C   UNL     1       0.011   1.387   0.010  0.00  0.00    +0.000 A 
ATOM     22  C   UNL     1       1.203   2.086  -0.003  0.00  0.00    +0.002 A 
ATOM     23  C   UNL     1       2.405   1.403  -0.022  0.00  0.00    +0.033 A 
ATOM     24  C   UNL     1       2.414   0.021  -0.028  0.00  0.00    +0.131 A 
ATOM     25  C   UNL     1       1.222  -0.678  -0.014  0.00  0.00    -0.000 A 
ATOM     26  C   UNL     1       0.020   0.004   0.004  0.00  0.00    +0.007 A 
BRANCH  24  27
ATOM     27  N   UNL     1       3.701  -0.710  -0.050  0.00  0.00    +0.057 N 
ATOM     28  O   UNL     1       4.744  -0.099  -0.062  0.00  0.00    -0.126 OA
ATOM     29  O   UNL     1       3.709  -1.919  -0.054  0.00  0.00    -0.126 OA
ENDBRANCH  24  27
ENDBRANCH  20  25
ENDBRANCH   1  20
TORSDOF 6
