REMARK  Name = ZINC03167757
REMARK  9 active torsions:
REMARK  status: ('A' for Active; 'I' for Inactive)
REMARK    1  A    between atoms: C_1  and  C_2
REMARK    2  A    between atoms: C_2  and  N_3
REMARK    3  A    between atoms: N_3  and  C_4
REMARK    4  A    between atoms: N_3  and  C_11
REMARK    5  A    between atoms: C_4  and  C_5
REMARK    6  A    between atoms: C_14  and  C_17
REMARK    7  A    between atoms: C_29  and  S_32
REMARK    8  A    between atoms: S_32  and  C_33
REMARK    9  A    between atoms: C_33  and  C_34
REMARK                            x       y       z     vdW  Elec       q    Type
REMARK                         _______ _______ _______ _____ _____    ______ ____
ROOT
ATOM      1  C   UNL     1       0.002  -0.004   0.002  0.00  0.00    +0.294 C 
ATOM      2  N   UNL     1       1.144   0.738   0.526  0.00  0.00    -0.305 N 
ATOM      3  C   UNL     1       2.259   0.025   0.977  0.00  0.00    +0.039 A 
ATOM      4  C   UNL     1       3.461   0.062   0.295  0.00  0.00    +0.024 A 
ATOM      5  C   UNL     1       4.538  -0.672   0.757  0.00  0.00    +0.002 A 
ATOM      6  C   UNL     1       4.421  -1.446   1.899  0.00  0.00    +0.001 A 
ATOM      7  C   UNL     1       3.229  -1.487   2.596  0.00  0.00    +0.012 A 
ATOM      8  C   UNL     1       2.141  -0.748   2.147  0.00  0.00    +0.028 A 
ATOM      9  C   UNL     1       0.853  -0.747   2.872  0.00  0.00    +0.156 A 
ATOM     10  C   UNL     1      -0.351  -0.935   2.156  0.00  0.00    +0.248 A 
ATOM     11  N   UNL     1      -1.494  -0.921   2.822  0.00  0.00    -0.184 NA
ATOM     12  C   UNL     1      -1.478  -0.734   4.138  0.00  0.00    +0.212 A 
ATOM     13  N   UNL     1      -0.336  -0.563   4.792  0.00  0.00    -0.122 NA
ATOM     14  N   UNL     1       0.800  -0.568   4.183  0.00  0.00    -0.141 NA
ATOM     15  O   UNL     1      -0.318  -1.127   0.817  0.00  0.00    -0.449 OA
ATOM     16  H   UNL     1       1.131   1.708   0.558  0.00  0.00    +0.150 HD
ENDROOT
BRANCH   1  20
ATOM     17  C   UNL     1       0.918  -1.363  -3.945  0.00  0.00    +0.030 A 
ATOM     18  C   UNL     1       0.209  -2.180  -3.075  0.00  0.00    +0.023 A 
ATOM     19  C   UNL     1      -0.086  -1.738  -1.800  0.00  0.00    +0.011 A 
ATOM     20  C   UNL     1       0.325  -0.483  -1.390  0.00  0.00    +0.011 A 
ATOM     21  C   UNL     1       1.027   0.336  -2.256  0.00  0.00    +0.011 A 
ATOM     22  C   UNL     1       1.329  -0.102  -3.530  0.00  0.00    +0.023 A 
BRANCH  17  23
ATOM     23  N   UNL     1       1.218  -1.807  -5.235  0.00  0.00    -0.326 N 
BRANCH  23  25
ATOM     24  C   UNL     1      -0.605  -3.037  -6.305  0.00  0.00    +0.024 C 
ATOM     25  C   UNL     1       0.784  -3.136  -5.671  0.00  0.00    +0.102 C 
ENDBRANCH  23  25
BRANCH  23  26
ATOM     26  C   UNL     1       1.966  -0.943  -6.152  0.00  0.00    +0.140 C 
BRANCH  26  27
ATOM     27  C   UNL     1       3.443  -1.200  -5.992  0.00  0.00    -0.030 A 
ATOM     28  C   UNL     1       4.177  -0.467  -5.079  0.00  0.00    +0.005 A 
ATOM     29  C   UNL     1       5.530  -0.707  -4.928  0.00  0.00    +0.000 A 
ATOM     30  C   UNL     1       6.151  -1.672  -5.700  0.00  0.00    +0.000 A 
ATOM     31  C   UNL     1       5.418  -2.401  -6.617  0.00  0.00    +0.000 A 
ATOM     32  C   UNL     1       4.063  -2.166  -6.763  0.00  0.00    +0.005 A 
ENDBRANCH  26  27
ENDBRANCH  23  26
ENDBRANCH  17  23
ENDBRANCH   1  20
BRANCH  12  33
ATOM     33  S   UNL     1      -2.998  -0.713   5.029  0.00  0.00    -0.085 S 
BRANCH  33  34
ATOM     34  C   UNL     1      -2.375  -0.434   6.706  0.00  0.00    +0.074 C 
ATOM     35  C   UNL     1      -3.551  -0.377   7.684  0.00  0.00    +0.016 C 
ENDBRANCH  33  34
ENDBRANCH  12  33
TORSDOF 7
