REMARK  Name = ZINC20297048
REMARK  4 active torsions:
REMARK  status: ('A' for Active; 'I' for Inactive)
REMARK    1  A    between atoms: C_4  and  O_11
REMARK    2  A    between atoms: C_5  and  C_7
REMARK    3  A    between atoms: N_8  and  O_9
REMARK    4  A    between atoms: O_11  and  C_12
REMARK                            x       y       z     vdW  Elec       q    Type
REMARK                         _______ _______ _______ _____ _____    ______ ____
ROOT
ATOM      1  C   UNL     1      -3.674  -0.814  -0.246  0.00  0.00    +0.001 A 
ATOM      2  C   UNL     1      -3.652  -2.183  -0.041  0.00  0.00    +0.004 A 
ATOM      3  C   UNL     1      -2.450  -2.858   0.037  0.00  0.00    +0.047 A 
ATOM      4  C   UNL     1      -1.255  -2.167  -0.095  0.00  0.00    +0.139 A 
ATOM      5  C   UNL     1      -1.274  -0.782  -0.298  0.00  0.00    +0.060 A 
ATOM      6  C   UNL     1      -2.494  -0.112  -0.375  0.00  0.00    +0.015 A 
ENDROOT
BRANCH   5   7
ATOM      7  C   UNL     1      -0.005  -0.034  -0.435  0.00  0.00    +0.166 C 
ATOM      8  N   UNL     1       1.132  -0.663  -0.363  0.00  0.00    -0.071 NA
ATOM      9  N   UNL     1      -0.027   1.335  -0.641  0.00  0.00    -0.340 N 
ATOM     10  H   UNL     1       0.916   1.891  -0.744  0.00  0.00    +0.144 HD
ATOM     11  H   UNL     1      -0.989   1.867  -0.703  0.00  0.00    +0.144 HD
BRANCH   8  12
ATOM     12  O   UNL     1       2.347   0.053  -0.495  0.00  0.00    -0.408 OA
ATOM     13  H   UNL     1       3.308  -0.478  -0.433  0.00  0.00    +0.328 HD
ENDBRANCH   8  12
ENDBRANCH   5   7
BRANCH   4  14
ATOM     14  O   UNL     1      -0.073  -2.830  -0.024  0.00  0.00    -0.453 OA
BRANCH  14  15
ATOM     15  C   UNL     1      -0.106  -4.184   0.068  0.00  0.00    +0.154 A 
ATOM     16  C   UNL     1      -0.058  -4.797   1.300  0.00  0.00    +0.048 A 
ATOM     17  C   UNL     1      -0.091  -6.184   1.409  0.00  0.00    +0.004 A 
ATOM     18  C   UNL     1      -0.172  -6.972   0.301  0.00  0.00    +0.010 A 
ATOM     19  C   UNL     1      -0.223  -6.384  -0.973  0.00  0.00    +0.004 A 
ATOM     20  C   UNL     1      -0.195  -4.974  -1.097  0.00  0.00    +0.113 A 
ATOM     21  N   UNL     1      -0.249  -4.411  -2.308  0.00  0.00    -0.251 NA
ATOM     22  C   UNL     1      -0.333  -5.139  -3.395  0.00  0.00    +0.111 A 
ATOM     23  C   UNL     1      -0.370  -6.531  -3.344  0.00  0.00    +0.020 A 
ATOM     24  C   UNL     1      -0.307  -7.170  -2.138  0.00  0.00    +0.011 A 
ENDBRANCH  14  15
ENDBRANCH   4  14
TORSDOF 4
