REMARK  Name = ZINC02415994
REMARK  11 active torsions:
REMARK  status: ('A' for Active; 'I' for Inactive)
REMARK    1  A    between atoms: C_1  and  C_2
REMARK    2  A    between atoms: C_2  and  C_3
REMARK    3  A    between atoms: C_2  and  C_4
REMARK    4  A    between atoms: C_4  and  C_5
REMARK    5  A    between atoms: C_11  and  S_17
REMARK    6  A    between atoms: C_13  and  S_15
REMARK    7  A    between atoms: S_15  and  C_16
REMARK    8  A    between atoms: S_17  and  C_18
REMARK    9  A    between atoms: C_18  and  C_19
REMARK   10  A    between atoms: N_21  and  C_22
REMARK   11  A    between atoms: C_22  and  C_23
REMARK                            x       y       z     vdW  Elec       q    Type
REMARK                         _______ _______ _______ _____ _____    ______ ____
ROOT
ATOM      1  C   UNL     1       0.002  -0.004   0.002  0.00  0.00    +0.046 A 
ATOM      2  C   UNL     1       1.064  -0.682   0.586  0.00  0.00    -0.022 A 
ATOM      3  C   UNL     1       1.082  -2.058   0.584  0.00  0.00    -0.031 A 
ATOM      4  C   UNL     1       0.021  -2.764  -0.024  0.00  0.00    +0.037 A 
ATOM      5  C   UNL     1      -0.144  -4.225  -0.137  0.00  0.00    +0.093 A 
ATOM      6  C   UNL     1      -1.299  -4.662  -0.792  0.00  0.00    +0.072 A 
ATOM      7  C   UNL     1      -1.561  -6.017  -0.957  0.00  0.00    +0.116 A 
ATOM      8  N   UNL     1      -0.683  -6.896  -0.474  0.00  0.00    -0.214 NA
ATOM      9  C   UNL     1       0.410  -6.468   0.146  0.00  0.00    +0.190 A 
ATOM     10  N   UNL     1       0.686  -5.193   0.317  0.00  0.00    -0.221 NA
ATOM     11  S   UNL     1      -2.146  -3.174  -1.250  0.00  0.00    -0.064 S 
ATOM     12  C   UNL     1      -1.004  -1.984  -0.592  0.00  0.00    +0.111 A 
ATOM     13  N   UNL     1      -0.986  -0.668  -0.565  0.00  0.00    -0.244 NA
ATOM     14  C   UNL     1       2.324  -2.564   1.279  0.00  0.00    +0.036 C 
ATOM     15  C   UNL     1       2.846  -1.360   2.092  0.00  0.00    +0.009 C 
ATOM     16  C   UNL     1       2.295  -0.158   1.295  0.00  0.00    +0.037 C 
ENDROOT
BRANCH   9  17
ATOM     17  S   UNL     1       1.544  -7.664   0.769  0.00  0.00    -0.089 S 
ATOM     18  C   UNL     1       0.698  -9.187   0.274  0.00  0.00    +0.093 C 
ENDBRANCH   9  17
BRANCH   1  19
ATOM     19  C   UNL     1      -0.018   1.503   0.010  0.00  0.00    +0.058 C 
BRANCH  19  21
ATOM     20  C   UNL     1       0.073   1.595   2.505  0.00  0.00    +0.007 C 
ATOM     21  C   UNL     1      -0.735   1.996   1.269  0.00  0.00    -0.011 C 
ATOM     22  C   UNL     1      -0.866   3.520   1.217  0.00  0.00    +0.007 C 
ENDBRANCH  19  21
ENDBRANCH   1  19
BRANCH   7  23
ATOM     23  S   UNL     1      -3.019  -6.560  -1.783  0.00  0.00    -0.095 S 
BRANCH  23  24
ATOM     24  C   UNL     1      -2.792  -8.352  -1.677  0.00  0.00    +0.171 C 
BRANCH  24  25
ATOM     25  C   UNL     1      -3.954  -9.046  -2.339  0.00  0.00    +0.224 C 
ATOM     26  O   UNL     1      -4.849  -8.393  -2.833  0.00  0.00    -0.275 OA
ATOM     27  N   UNL     1      -4.000 -10.393  -2.381  0.00  0.00    -0.308 N 
ATOM     28  H   UNL     1      -3.285 -10.915  -1.985  0.00  0.00    +0.149 HD
BRANCH  27  29
ATOM     29  C   UNL     1      -5.130 -11.067  -3.024  0.00  0.00    +0.178 C 
BRANCH  29  30
ATOM     30  C   UNL     1      -4.941 -12.560  -2.936  0.00  0.00    +0.122 A 
ATOM     31  C   UNL     1      -5.376 -13.350  -1.939  0.00  0.00    +0.046 A 
ATOM     32  C   UNL     1      -4.983 -14.670  -2.260  0.00  0.00    +0.041 A 
ATOM     33  C   UNL     1      -4.331 -14.607  -3.435  0.00  0.00    +0.195 A 
ATOM     34  O   UNL     1      -4.313 -13.327  -3.842  0.00  0.00    -0.466 OA
ENDBRANCH  29  30
ENDBRANCH  27  29
ENDBRANCH  24  25
ENDBRANCH  23  24
ENDBRANCH   7  23
TORSDOF 8
