REMARK  Name = ZINC01379934
REMARK  9 active torsions:
REMARK  status: ('A' for Active; 'I' for Inactive)
REMARK    1  A    between atoms: C_1  and  N_2
REMARK    2  A    between atoms: N_2  and  C_3
REMARK    3  A    between atoms: N_2  and  C_4
REMARK    4  A    between atoms: C_7  and  C_10
REMARK    5  A    between atoms: C_10  and  C_12
REMARK    6  A    between atoms: C_10  and  N_20
REMARK    7  A    between atoms: N_14  and  C_15
REMARK    8  A    between atoms: N_20  and  C_21
REMARK    9  A    between atoms: C_30  and  C_32
REMARK                            x       y       z     vdW  Elec       q    Type
REMARK                         _______ _______ _______ _____ _____    ______ ____
ROOT
ATOM      1  C   UNL     1       2.651   0.508   0.042  0.00  0.00    +0.198 C 
ENDROOT
BRANCH   1   5
ATOM      2  C   UNL     1       3.183  -2.000   3.461  0.00  0.00    +0.029 A 
ATOM      3  C   UNL     1       4.283  -1.405   2.857  0.00  0.00    +0.023 A 
ATOM      4  C   UNL     1       4.108  -0.595   1.752  0.00  0.00    +0.008 A 
ATOM      5  C   UNL     1       2.839  -0.376   1.248  0.00  0.00    -0.018 A 
ATOM      6  C   UNL     1       1.741  -0.963   1.851  0.00  0.00    +0.008 A 
ATOM      7  C   UNL     1       1.910  -1.778   2.952  0.00  0.00    +0.023 A 
BRANCH   2   9
ATOM      8  C   UNL     1       4.681  -2.951   5.192  0.00  0.00    +0.129 C 
ATOM      9  N   UNL     1       3.357  -2.820   4.579  0.00  0.00    -0.336 N 
ATOM     10  C   UNL     1       2.216  -3.549   5.138  0.00  0.00    +0.129 C 
ENDBRANCH   2   9
ENDBRANCH   1   5
BRANCH   1  11
ATOM     11  C   UNL     1       2.058  -0.298  -1.085  0.00  0.00    +0.239 C 
ATOM     12  O   UNL     1       0.987   0.018  -1.558  0.00  0.00    -0.273 OA
ATOM     13  N   UNL     1       2.717  -1.369  -1.567  0.00  0.00    -0.311 N 
ATOM     14  H   UNL     1       3.574  -1.622  -1.188  0.00  0.00    +0.149 HD
BRANCH  13  15
ATOM     15  C   UNL     1       2.141  -2.153  -2.662  0.00  0.00    +0.073 C 
ATOM     16  C   UNL     1       1.215  -3.249  -2.097  0.00  0.00    +0.022 C 
ATOM     17  C   UNL     1       1.448  -4.463  -3.031  0.00  0.00    +0.002 C 
ATOM     18  C   UNL     1       2.969  -4.387  -3.316  0.00  0.00    +0.002 C 
ATOM     19  C   UNL     1       3.256  -2.876  -3.438  0.00  0.00    +0.022 C 
ENDBRANCH  13  15
ENDBRANCH   1  11
BRANCH   1  20
ATOM     20  N   UNL     1       1.749   1.611   0.381  0.00  0.00    -0.249 N 
ATOM     21  C   UNL     1       1.553   2.616  -0.495  0.00  0.00    +0.287 C 
ATOM     22  O   UNL     1       0.727   3.478  -0.259  0.00  0.00    -0.266 OA
BRANCH  20  23
ATOM     23  C   UNL     1       1.089   1.622   1.617  0.00  0.00    +0.042 A 
ATOM     24  C   UNL     1       1.810   1.819   2.787  0.00  0.00    +0.027 A 
ATOM     25  C   UNL     1       1.161   1.830   4.006  0.00  0.00    +0.051 A 
ATOM     26  C   UNL     1      -0.211   1.643   4.065  0.00  0.00    +0.166 A 
ATOM     27  C   UNL     1      -0.937   1.445   2.893  0.00  0.00    +0.168 A 
ATOM     28  C   UNL     1      -0.286   1.440   1.671  0.00  0.00    +0.073 A 
ATOM     29  O   UNL     1      -2.254   1.289   3.217  0.00  0.00    -0.453 OA
ATOM     30  C   UNL     1      -2.384   1.800   4.556  0.00  0.00    +0.466 C 
ATOM     31  O   UNL     1      -1.074   1.611   5.123  0.00  0.00    -0.453 OA
ENDBRANCH  20  23
BRANCH  21  32
ATOM     32  C   UNL     1       2.332   2.668  -1.737  0.00  0.00    +0.190 A 
ATOM     33  C   UNL     1       2.271   3.651  -2.682  0.00  0.00    +0.054 A 
ATOM     34  C   UNL     1       3.179   3.298  -3.692  0.00  0.00    +0.042 A 
ATOM     35  C   UNL     1       3.748   2.129  -3.323  0.00  0.00    +0.196 A 
ATOM     36  O   UNL     1       3.239   1.755  -2.142  0.00  0.00    -0.458 OA
ENDBRANCH  21  32
ENDBRANCH   1  20
TORSDOF 7
