REMARK  Name = ZINC35890815
REMARK  11 active torsions:
REMARK  status: ('A' for Active; 'I' for Inactive)
REMARK    1  A    between atoms: C_5  and  O_7
REMARK    2  A    between atoms: O_7  and  C_8
REMARK    3  A    between atoms: C_8  and  C_10
REMARK    4  A    between atoms: C_8  and  C_29
REMARK    5  A    between atoms: C_10  and  N_11
REMARK    6  A    between atoms: N_11  and  C_12
REMARK    7  A    between atoms: N_11  and  C_22
REMARK    8  A    between atoms: C_12  and  C_13
REMARK    9  A    between atoms: C_22  and  C_23
REMARK   10  A    between atoms: N_31  and  C_32
REMARK   11  A    between atoms: C_32  and  C_33
REMARK                            x       y       z     vdW  Elec       q    Type
REMARK                         _______ _______ _______ _____ _____    ______ ____
ROOT
ATOM      1  C   UNL     1      -0.198  -2.182  -0.321  0.00  0.00    +0.242 C 
ENDROOT
BRANCH   1   2
ATOM      2  C   UNL     1      -1.014  -2.198   0.946  0.00  0.00    +0.252 C 
ATOM      3  O   UNL     1      -0.484  -1.962   2.011  0.00  0.00    -0.272 OA
ATOM      4  N   UNL     1      -2.332  -2.475   0.896  0.00  0.00    -0.305 N 
ATOM      5  H   UNL     1      -2.756  -2.664   0.044  0.00  0.00    +0.149 HD
BRANCH   4   6
ATOM      6  C   UNL     1      -3.124  -2.492   2.128  0.00  0.00    +0.178 C 
BRANCH   6   7
ATOM      7  C   UNL     1      -4.557  -2.825   1.799  0.00  0.00    +0.122 A 
ATOM      8  C   UNL     1      -5.087  -4.061   1.759  0.00  0.00    +0.046 A 
ATOM      9  C   UNL     1      -6.450  -3.911   1.412  0.00  0.00    +0.041 A 
ATOM     10  C   UNL     1      -6.670  -2.592   1.261  0.00  0.00    +0.195 A 
ATOM     11  O   UNL     1      -5.521  -1.940   1.502  0.00  0.00    -0.466 OA
ENDBRANCH   6   7
ENDBRANCH   4   6
ENDBRANCH   1   2
BRANCH   1  12
ATOM     12  O   UNL     1       1.132  -1.752  -0.026  0.00  0.00    -0.479 OA
BRANCH  12  17
ATOM     13  C   UNL     1       0.527   1.834  -0.135  0.00  0.00    +0.004 A 
ATOM     14  C   UNL     1       1.790   2.318   0.152  0.00  0.00    +0.003 A 
ATOM     15  C   UNL     1       2.835   1.441   0.379  0.00  0.00    +0.042 A 
ATOM     16  C   UNL     1       2.618   0.076   0.320  0.00  0.00    +0.165 A 
ATOM     17  C   UNL     1       1.349  -0.411   0.033  0.00  0.00    +0.157 A 
ATOM     18  C   UNL     1       0.305   0.472  -0.195  0.00  0.00    +0.048 A 
ATOM     19  F   UNL     1       3.638  -0.781   0.542  0.00  0.00    -0.202 F 
ENDBRANCH  12  17
ENDBRANCH   1  12
BRANCH   1  20
ATOM     20  C   UNL     1      -0.159  -3.589  -0.921  0.00  0.00    -0.023 C 
BRANCH  20  21
ATOM     21  N   UNL     1       0.469  -3.538  -2.248  0.00  0.00    +0.387 N 
ATOM     22  H   UNL     1       0.021  -2.827  -2.805  0.00  0.00    -0.081 HD
BRANCH  21  23
ATOM     23  C   UNL     1       0.323  -4.842  -2.908  0.00  0.00    -0.043 C 
BRANCH  23  24
ATOM     24  C   UNL     1      -1.132  -5.093  -3.209  0.00  0.00    -0.060 A 
ATOM     25  C   UNL     1      -1.897  -5.843  -2.336  0.00  0.00    +0.005 A 
ATOM     26  C   UNL     1      -3.233  -6.076  -2.607  0.00  0.00    +0.050 A 
ATOM     27  C   UNL     1      -3.808  -5.557  -3.755  0.00  0.00    +0.166 A 
ATOM     28  C   UNL     1      -3.037  -4.801  -4.635  0.00  0.00    +0.166 A 
ATOM     29  C   UNL     1      -1.700  -4.567  -4.354  0.00  0.00    +0.051 A 
ATOM     30  O   UNL     1      -3.824  -4.408  -5.678  0.00  0.00    -0.453 OA
ATOM     31  C   UNL     1      -4.976  -5.270  -5.636  0.00  0.00    +0.466 C 
ATOM     32  O   UNL     1      -5.078  -5.637  -4.248  0.00  0.00    -0.453 OA
ENDBRANCH  23  24
ENDBRANCH  21  23
BRANCH  21  33
ATOM     33  C   UNL     1       1.896  -3.220  -2.102  0.00  0.00    -0.046 C 
BRANCH  33  34
ATOM     34  C   UNL     1       2.539  -3.117  -3.486  0.00  0.00    +0.102 C 
ATOM     35  C   UNL     1       4.041  -2.787  -3.343  0.00  0.00    +0.032 C 
ATOM     36  C   UNL     1       4.271  -1.787  -4.509  0.00  0.00    +0.030 C 
ATOM     37  C   UNL     1       2.910  -1.047  -4.535  0.00  0.00    +0.160 C 
ATOM     38  O   UNL     1       1.929  -2.053  -4.227  0.00  0.00    -0.378 OA
ENDBRANCH  33  34
ENDBRANCH  21  33
ENDBRANCH  20  21
ENDBRANCH   1  20
TORSDOF 11
