REMARK  Name = ZINC35191071
REMARK  7 active torsions:
REMARK  status: ('A' for Active; 'I' for Inactive)
REMARK    1  A    between atoms: C_4  and  O_23
REMARK    2  A    between atoms: C_5  and  C_7
REMARK    3  A    between atoms: C_8  and  N_16
REMARK    4  A    between atoms: N_16  and  C_17
REMARK    5  A    between atoms: O_23  and  S_24
REMARK    6  A    between atoms: S_24  and  C_27
REMARK    7  A    between atoms: C_31  and  C_33
REMARK                            x       y       z     vdW  Elec       q    Type
REMARK                         _______ _______ _______ _____ _____    ______ ____
ROOT
ATOM      1  C   UNL     1       1.985   1.885   1.366  0.00  0.00    +0.001 A 
ATOM      2  C   UNL     1       2.388   2.401   0.147  0.00  0.00    +0.004 A 
ATOM      3  C   UNL     1       2.674   1.555  -0.909  0.00  0.00    +0.049 A 
ATOM      4  C   UNL     1       2.557   0.184  -0.750  0.00  0.00    +0.166 A 
ATOM      5  C   UNL     1       2.150  -0.341   0.481  0.00  0.00    +0.048 A 
ATOM      6  C   UNL     1       1.865   0.521   1.538  0.00  0.00    +0.014 A 
ENDROOT
BRANCH   5   7
ATOM      7  C   UNL     1       2.022  -1.806   0.659  0.00  0.00    +0.115 A 
ATOM      8  C   UNL     1       0.948  -2.462   1.222  0.00  0.00    +0.131 A 
ATOM      9  N   UNL     1       1.240  -3.798   1.191  0.00  0.00    -0.288 N 
ATOM     10  C   UNL     1       0.547  -4.903   1.608  0.00  0.00    +0.094 A 
ATOM     11  C   UNL     1       1.070  -6.137   1.459  0.00  0.00    +0.018 A 
ATOM     12  C   UNL     1       2.336  -6.306   0.871  0.00  0.00    +0.005 A 
ATOM     13  C   UNL     1       3.037  -5.219   0.452  0.00  0.00    +0.047 A 
ATOM     14  C   UNL     1       2.481  -3.932   0.612  0.00  0.00    +0.140 A 
ATOM     15  N   UNL     1       2.930  -2.729   0.295  0.00  0.00    -0.226 NA
BRANCH   8  16
ATOM     16  N   UNL     1      -0.214  -1.876   1.727  0.00  0.00    -0.326 N 
ATOM     17  H   UNL     1      -0.361  -0.923   1.625  0.00  0.00    +0.148 HD
BRANCH  16  18
ATOM     18  C   UNL     1      -1.212  -2.701   2.413  0.00  0.00    +0.072 C 
ATOM     19  C   UNL     1      -2.148  -3.332   1.380  0.00  0.00    +0.022 C 
ATOM     20  C   UNL     1      -3.191  -4.194   2.096  0.00  0.00    +0.002 C 
ATOM     21  C   UNL     1      -4.003  -3.320   3.054  0.00  0.00    +0.000 C 
ATOM     22  C   UNL     1      -3.067  -2.689   4.087  0.00  0.00    +0.002 C 
ATOM     23  C   UNL     1      -2.025  -1.828   3.371  0.00  0.00    +0.022 C 
ENDBRANCH  16  18
ENDBRANCH   8  16
ENDBRANCH   5   7
BRANCH   4  24
ATOM     24  O   UNL     1       2.836  -0.648  -1.788  0.00  0.00    -0.342 OA
BRANCH  24  25
ATOM     25  S   UNL     1       1.673  -0.853  -2.748  0.00  0.00    +0.151 S 
ATOM     26  O   UNL     1       2.056  -1.897  -3.632  0.00  0.00    -0.131 OA
ATOM     27  O   UNL     1       0.498  -0.922  -1.952  0.00  0.00    -0.131 OA
BRANCH  25  28
ATOM     28  C   UNL     1       1.538   0.609  -3.722  0.00  0.00    +0.129 A 
ATOM     29  C   UNL     1       0.634   1.594  -3.369  0.00  0.00    +0.030 A 
ATOM     30  C   UNL     1       0.528   2.740  -4.133  0.00  0.00    +0.003 A 
ATOM     31  C   UNL     1       1.325   2.902  -5.251  0.00  0.00    +0.012 A 
ATOM     32  C   UNL     1       2.229   1.918  -5.603  0.00  0.00    +0.057 A 
ATOM     33  C   UNL     1       2.339   0.773  -4.836  0.00  0.00    +0.043 A 
BRANCH  32  34
ATOM     34  C   UNL     1       3.098   2.095  -6.822  0.00  0.00    +0.417 C 
ATOM     35  F   UNL     1       2.901   3.374  -7.354  0.00  0.00    -0.166 F 
ATOM     36  F   UNL     1       4.441   1.940  -6.463  0.00  0.00    -0.166 F 
ATOM     37  F   UNL     1       2.758   1.134  -7.780  0.00  0.00    -0.166 F 
ENDBRANCH  32  34
ENDBRANCH  25  28
ENDBRANCH  24  25
ENDBRANCH   4  24
TORSDOF 7
