REMARK  Name = ZINC06077639
REMARK  13 active torsions:
REMARK  status: ('A' for Active; 'I' for Inactive)
REMARK    1  A    between atoms: C_1  and  C_2
REMARK    2  A    between atoms: C_2  and  C_3
REMARK    3  A    between atoms: C_3  and  C_4
REMARK    4  A    between atoms: C_3  and  C_5
REMARK    5  A    between atoms: C_3  and  N_6
REMARK    6  A    between atoms: C_7  and  C_11
REMARK    7  A    between atoms: C_11  and  C_13
REMARK    8  A    between atoms: C_11  and  N_77
REMARK    9  A    between atoms: C_16  and  C_26
REMARK   10  A    between atoms: C_18  and  C_25
REMARK   11  A    between atoms: N_29  and  C_32
REMARK   12  A    between atoms: C_34  and  C_39
REMARK   13  A    between atoms: C_37  and  C_38
REMARK                            x       y       z     vdW  Elec       q    Type
REMARK                         _______ _______ _______ _____ _____    ______ ____
ROOT
ATOM      1  C   UNL     1       5.101   4.522  -0.237  0.00  0.00    +0.039 C 
ENDROOT
BRANCH   1   2
ATOM      2  C   UNL     1       3.791   3.792  -0.086  0.00  0.00    +0.011 A 
ATOM      3  C   UNL     1       3.759   2.439  -0.157  0.00  0.00    +0.018 A 
ATOM      4  C   UNL     1       2.471   1.760  -0.005  0.00  0.00    +0.002 A 
ATOM      5  C   UNL     1       2.375   0.366  -0.070  0.00  0.00    -0.041 A 
ATOM      6  C   UNL     1       1.158  -0.236   0.075  0.00  0.00    +0.007 A 
ATOM      7  C   UNL     1       0.015   0.522   0.287  0.00  0.00    -0.048 A 
ATOM      8  C   UNL     1       0.085   1.897   0.355  0.00  0.00    +0.029 A 
ATOM      9  C   UNL     1       1.314   2.533   0.209  0.00  0.00    +0.050 A 
ATOM     10  N   UNL     1       1.414   3.906   0.272  0.00  0.00    -0.322 N 
ATOM     11  H   UNL     1       0.591   4.454   0.425  0.00  0.00    +0.169 HD
ATOM     12  C   UNL     1       2.602   4.521   0.132  0.00  0.00    +0.251 A 
ATOM     13  O   UNL     1       2.653   5.737   0.193  0.00  0.00    -0.268 OA
ATOM     14  C   UNL     1      -1.317  -0.164   0.445  0.00  0.00    +0.044 C 
ATOM     15  C   UNL     1       3.610  -0.467  -0.299  0.00  0.00    +0.044 C 
ENDBRANCH   1   2
BRANCH   1  21
ATOM     16  C   UNL     1       6.504   6.237   0.739  0.00  0.00    -0.058 C 
ATOM     17  C   UNL     1       6.638   7.196   1.925  0.00  0.00    +0.086 C 
ATOM     18  N   UNL     1       6.722   6.421   3.171  0.00  0.00    -0.333 N 
ATOM     19  C   UNL     1       5.524   5.587   3.351  0.00  0.00    +0.086 C 
ATOM     20  C   UNL     1       5.390   4.629   2.165  0.00  0.00    -0.058 C 
ATOM     21  N   UNL     1       5.285   5.421   0.922  0.00  0.00    +0.391 N 
ATOM     22  H   UNL     1       4.473   6.046   0.992  0.00  0.00    -0.080 HD
BRANCH  18  23
ATOM     23  C   UNL     1       6.917   7.260   4.270  0.00  0.00    +0.033 A 
ATOM     24  C   UNL     1       5.986   8.246   4.567  0.00  0.00    +0.026 A 
ATOM     25  C   UNL     1       6.182   9.074   5.655  0.00  0.00    -0.049 A 
ATOM     26  C   UNL     1       7.304   8.921   6.449  0.00  0.00    +0.004 A 
ATOM     27  C   UNL     1       8.233   7.940   6.156  0.00  0.00    +0.005 A 
ATOM     28  C   UNL     1       8.041   7.106   5.072  0.00  0.00    -0.029 A 
ATOM     29  C   UNL     1       9.051   6.033   4.757  0.00  0.00    +0.045 C 
ATOM     30  C   UNL     1       5.172  10.144   5.979  0.00  0.00    +0.044 C 
ENDBRANCH  18  23
ENDBRANCH   1  21
BRANCH   1  32
ATOM     31  N   UNL     1       5.802   5.134  -2.612  0.00  0.00    -0.225 N 
ATOM     32  C   UNL     1       5.074   5.345  -1.499  0.00  0.00    +0.143 A 
ATOM     33  N   UNL     1       4.334   6.402  -1.728  0.00  0.00    -0.115 NA
ATOM     34  N   UNL     1       4.599   6.824  -2.917  0.00  0.00    -0.023 NA
ATOM     35  N   UNL     1       5.483   6.058  -3.454  0.00  0.00    -0.043 NA
BRANCH  31  36
ATOM     36  C   UNL     1       6.773   4.059  -2.825  0.00  0.00    +0.061 C 
ATOM     37  C   UNL     1       7.912   4.191  -1.812  0.00  0.00    +0.036 C 
ATOM     38  C   UNL     1       6.083   2.705  -2.644  0.00  0.00    +0.036 C 
BRANCH  36  40
ATOM     39  C   UNL     1       8.353   3.034  -4.467  0.00  0.00    +0.006 C 
ATOM     40  C   UNL     1       7.339   4.157  -4.244  0.00  0.00    +0.026 C 
ENDBRANCH  36  40
ENDBRANCH  31  36
ENDBRANCH   1  32
TORSDOF 6
