REMARK  Name = ZINC20617542
REMARK  8 active torsions:
REMARK  status: ('A' for Active; 'I' for Inactive)
REMARK    1  A    between atoms: C_1  and  C_2
REMARK    2  A    between atoms: C_2  and  C_3
REMARK    3  A    between atoms: C_6  and  N_9
REMARK    4  A    between atoms: C_11  and  C_23
REMARK    5  A    between atoms: C_14  and  C_21
REMARK    6  A    between atoms: C_17  and  C_20
REMARK    7  A    between atoms: C_21  and  O_22
REMARK    8  A    between atoms: N_25  and  C_26
REMARK                            x       y       z     vdW  Elec       q    Type
REMARK                         _______ _______ _______ _____ _____    ______ ____
ROOT
ATOM      1  N   UNL     1       1.206   3.431   0.034  0.00  0.00    -0.325 N 
ATOM      2  C   UNL     1       2.334   4.100   0.132  0.00  0.00    +0.212 A 
ATOM      3  C   UNL     1       2.336   5.573   0.239  0.00  0.00    +0.098 A 
ATOM      4  C   UNL     1       3.409   6.155   0.882  0.00  0.00    +0.030 A 
ATOM      5  C   UNL     1       4.454   5.263   1.389  0.00  0.00    +0.027 A 
ATOM      6  C   UNL     1       5.443   5.713   2.272  0.00  0.00    +0.007 A 
ATOM      7  C   UNL     1       6.392   4.813   2.711  0.00  0.00    +0.117 A 
ATOM      8  N   UNL     1       6.375   3.554   2.314  0.00  0.00    -0.256 NA
ATOM      9  C   UNL     1       5.467   3.083   1.484  0.00  0.00    +0.081 A 
ATOM     10  C   UNL     1       4.472   3.914   0.988  0.00  0.00    +0.159 A 
ATOM     11  O   UNL     1       3.529   3.455   0.132  0.00  0.00    -0.437 OA
ATOM     12  C   UNL     1       5.507   1.634   1.073  0.00  0.00    +0.069 C 
ATOM     13  H   UNL     1       0.252   3.972  -0.048  0.00  0.00    +0.169 HD
ENDROOT
BRANCH   1  17
ATOM     14  C   UNL     1       1.245  -0.706   0.035  0.00  0.00    -0.047 A 
ATOM     15  C   UNL     1       1.240  -0.017   1.235  0.00  0.00    +0.005 A 
ATOM     16  C   UNL     1       1.227   1.362   1.242  0.00  0.00    +0.026 A 
ATOM     17  C   UNL     1       1.219   2.064   0.034  0.00  0.00    +0.042 A 
ATOM     18  C   UNL     1       1.225   1.362  -1.174  0.00  0.00    +0.026 A 
ATOM     19  C   UNL     1       1.238  -0.017  -1.166  0.00  0.00    +0.005 A 
BRANCH  14  21
ATOM     20  C   UNL     1      -0.178  -2.736   0.036  0.00  0.00    +0.009 C 
ATOM     21  C   UNL     1       1.260  -2.212   0.035  0.00  0.00    +0.032 C 
ENDBRANCH  14  21
ENDBRANCH   1  17
BRANCH   3  22
ATOM     22  C   UNL     1       1.237   6.384  -0.315  0.00  0.00    +0.253 C 
ATOM     23  O   UNL     1       1.264   7.595  -0.213  0.00  0.00    -0.270 OA
ATOM     24  N   UNL     1       0.202   5.783  -0.934  0.00  0.00    -0.281 N 
ATOM     25  H   UNL     1       0.140   4.685  -0.962  0.00  0.00    +0.155 HD
BRANCH  24  26
ATOM     26  C   UNL     1      -0.791   6.553  -1.540  0.00  0.00    +0.041 A 
ATOM     27  C   UNL     1      -1.172   7.757  -0.987  0.00  0.00    +0.024 A 
ATOM     28  C   UNL     1      -2.157   8.535  -1.586  0.00  0.00    +0.002 A 
ATOM     29  C   UNL     1      -2.780   8.126  -2.726  0.00  0.00    +0.008 A 
ATOM     30  C   UNL     1      -2.425   6.903  -3.319  0.00  0.00    -0.016 A 
ATOM     31  C   UNL     1      -1.419   6.104  -2.721  0.00  0.00    +0.003 A 
ATOM     32  C   UNL     1      -1.065   4.882  -3.315  0.00  0.00    +0.010 A 
ATOM     33  C   UNL     1      -1.693   4.480  -4.455  0.00  0.00    +0.001 A 
ATOM     34  C   UNL     1      -2.683   5.265  -5.043  0.00  0.00    +0.001 A 
ATOM     35  C   UNL     1      -3.051   6.455  -4.495  0.00  0.00    +0.008 A 
ENDBRANCH  24  26
ENDBRANCH   3  22
BRANCH   6  36
ATOM     36  C   UNL     1       5.471   7.148   2.732  0.00  0.00    +0.193 C 
BRANCH  36  37
ATOM     37  O   UNL     1       6.573   7.342   3.620  0.00  0.00    -0.390 OA
ATOM     38  H   UNL     1       6.756   8.333   4.061  0.00  0.00    +0.210 HD
ENDBRANCH  36  37
ENDBRANCH   6  36
TORSDOF 6
