REMARK  Name = ZINC15227582
REMARK  13 active torsions:
REMARK  status: ('A' for Active; 'I' for Inactive)
REMARK    1  A    between atoms: C_1  and  C_2
REMARK    2  A    between atoms: C_2  and  C_4
REMARK    3  A    between atoms: C_2  and  N_19
REMARK    4  A    between atoms: N_6  and  N_7
REMARK    5  A    between atoms: C_8  and  C_9
REMARK    6  A    between atoms: C_12  and  O_15
REMARK    7  A    between atoms: O_15  and  C_16
REMARK    8  A    between atoms: C_16  and  C_17
REMARK    9  A    between atoms: N_19  and  C_20
REMARK   10  A    between atoms: N_19  and  S_33
REMARK   11  A    between atoms: C_23  and  O_26
REMARK   12  A    between atoms: O_26  and  C_27
REMARK   13  A    between atoms: S_33  and  C_36
REMARK                            x       y       z     vdW  Elec       q    Type
REMARK                         _______ _______ _______ _____ _____    ______ ____
ROOT
ATOM      1  C   UNL     1       0.350   1.180  -0.307  0.00  0.00    +0.040 C 
ATOM      2  C   UNL     1       0.002  -0.309  -0.357  0.00  0.00    +0.182 C 
ENDROOT
BRANCH   2   3
ATOM      3  C   UNL     1       0.675  -0.943  -1.547  0.00  0.00    +0.254 C 
ATOM      4  O   UNL     1       0.013  -1.530  -2.376  0.00  0.00    -0.272 OA
ATOM      5  N   UNL     1       2.013  -0.858  -1.689  0.00  0.00    -0.205 N 
ATOM      6  H   UNL     1       2.542  -0.388  -1.026  0.00  0.00    +0.177 HD
BRANCH   5   7
ATOM      7  N   UNL     1       2.638  -1.447  -2.795  0.00  0.00    -0.188 NA
ATOM      8  C   UNL     1       3.926  -1.365  -2.933  0.00  0.00    +0.138 C 
BRANCH   8   9
ATOM      9  C   UNL     1       4.585  -1.985  -4.096  0.00  0.00    -0.005 A 
ATOM     10  C   UNL     1       3.825  -2.667  -5.050  0.00  0.00    +0.013 A 
ATOM     11  C   UNL     1       4.444  -3.242  -6.139  0.00  0.00    +0.046 A 
ATOM     12  C   UNL     1       5.823  -3.152  -6.284  0.00  0.00    +0.122 A 
ATOM     13  C   UNL     1       6.583  -2.479  -5.336  0.00  0.00    +0.046 A 
ATOM     14  C   UNL     1       5.971  -1.898  -4.246  0.00  0.00    +0.013 A 
BRANCH  12  15
ATOM     15  O   UNL     1       6.430  -3.725  -7.356  0.00  0.00    -0.477 OA
BRANCH  15  16
ATOM     16  C   UNL     1       5.589  -4.401  -8.293  0.00  0.00    +0.346 C 
BRANCH  16  17
ATOM     17  C   UNL     1       6.412  -4.955  -9.380  0.00  0.00    +0.104 C 
ATOM     18  N   UNL     1       7.047  -5.382 -10.219  0.00  0.00    -0.193 NA
ENDBRANCH  16  17
ENDBRANCH  15  16
ENDBRANCH  12  15
ENDBRANCH   8   9
ENDBRANCH   5   7
ENDBRANCH   2   3
BRANCH   2  19
ATOM     19  N   UNL     1      -1.450  -0.467  -0.475  0.00  0.00    -0.196 N 
BRANCH  19  20
ATOM     20  C   UNL     1      -2.147   0.204  -1.486  0.00  0.00    +0.052 A 
ATOM     21  C   UNL     1      -3.500   0.477  -1.333  0.00  0.00    +0.028 A 
ATOM     22  C   UNL     1      -4.186   1.144  -2.329  0.00  0.00    +0.048 A 
ATOM     23  C   UNL     1      -3.526   1.533  -3.486  0.00  0.00    +0.129 A 
ATOM     24  C   UNL     1      -2.175   1.257  -3.641  0.00  0.00    +0.048 A 
ATOM     25  C   UNL     1      -1.487   0.594  -2.644  0.00  0.00    +0.028 A 
BRANCH  23  26
ATOM     26  O   UNL     1      -4.203   2.186  -4.468  0.00  0.00    -0.456 OA
BRANCH  26  27
ATOM     27  C   UNL     1      -4.473   3.505  -4.288  0.00  0.00    +0.128 A 
ATOM     28  C   UNL     1      -3.998   4.165  -3.163  0.00  0.00    +0.046 A 
ATOM     29  C   UNL     1      -4.269   5.508  -2.986  0.00  0.00    +0.004 A 
ATOM     30  C   UNL     1      -5.022   6.192  -3.922  0.00  0.00    +0.000 A 
ATOM     31  C   UNL     1      -5.502   5.536  -5.040  0.00  0.00    +0.004 A 
ATOM     32  C   UNL     1      -5.229   4.194  -5.226  0.00  0.00    +0.046 A 
ENDBRANCH  26  27
ENDBRANCH  23  26
ENDBRANCH  19  20
BRANCH  19  33
ATOM     33  S   UNL     1      -2.266  -1.441   0.587  0.00  0.00    +0.043 S 
ATOM     34  O   UNL     1      -3.351  -1.967  -0.164  0.00  0.00    -0.155 OA
ATOM     35  O   UNL     1      -1.272  -2.303   1.125  0.00  0.00    -0.155 OA
ATOM     36  C   UNL     1      -2.881  -0.317   1.871  0.00  0.00    +0.218 C 
ENDBRANCH  19  33
ENDBRANCH   2  19
TORSDOF 11
