REMARK  Name = ZINC15226430
REMARK  6 active torsions:
REMARK  status: ('A' for Active; 'I' for Inactive)
REMARK    1  A    between atoms: C_1  and  C_2
REMARK    2  A    between atoms: N_6  and  C_31
REMARK    3  A    between atoms: N_15  and  C_18
REMARK    4  A    between atoms: C_18  and  N_67
REMARK    5  A    between atoms: C_21  and  C_24
REMARK    6  A    between atoms: C_24  and  C_25
REMARK                            x       y       z     vdW  Elec       q    Type
REMARK                         _______ _______ _______ _____ _____    ______ ____
ROOT
ATOM      1  C   UNL     1       4.230   6.508   7.094  0.00  0.00    +0.029 C 
ATOM      2  C   UNL     1       4.021   5.566   5.906  0.00  0.00    +0.132 C 
ATOM      3  C   UNL     1       2.547   5.453   5.546  0.00  0.00    +0.234 C 
ATOM      4  O   UNL     1       1.704   5.255   6.396  0.00  0.00    -0.274 OA
ATOM      5  N   UNL     1       2.216   5.579   4.262  0.00  0.00    -0.243 N 
ATOM      6  C   UNL     1       3.271   5.830   3.285  0.00  0.00    +0.193 C 
ATOM      7  S   UNL     1       4.692   6.297   4.348  0.00  0.00    -0.108 S 
ATOM      8  C   UNL     1       2.942   6.924   2.318  0.00  0.00    +0.017 A 
ATOM      9  C   UNL     1       2.568   8.242   2.458  0.00  0.00    +0.009 A 
ATOM     10  C   UNL     1       2.340   9.020   1.337  0.00  0.00    +0.000 A 
ATOM     11  C   UNL     1       2.477   8.469   0.076  0.00  0.00    +0.002 A 
ATOM     12  C   UNL     1       2.847   7.148  -0.070  0.00  0.00    +0.024 A 
ATOM     13  C   UNL     1       3.087   6.359   1.052  0.00  0.00    +0.041 A 
ATOM     14  N   UNL     1       3.468   5.019   1.162  0.00  0.00    -0.285 N 
ATOM     15  C   UNL     1       3.602   4.632   2.447  0.00  0.00    +0.257 C 
ATOM     16  O   UNL     1       3.926   3.533   2.845  0.00  0.00    -0.272 OA
ENDROOT
BRANCH   5  17
ATOM     17  C   UNL     1       0.880   5.474   3.856  0.00  0.00    +0.039 A 
ATOM     18  C   UNL     1       0.392   4.264   3.380  0.00  0.00    +0.026 A 
ATOM     19  C   UNL     1      -0.928   4.161   2.986  0.00  0.00    +0.040 A 
ATOM     20  C   UNL     1      -1.761   5.266   3.054  0.00  0.00    +0.124 A 
ATOM     21  C   UNL     1      -1.274   6.474   3.523  0.00  0.00    +0.040 A 
ATOM     22  C   UNL     1       0.044   6.580   3.923  0.00  0.00    +0.026 A 
ATOM     23  F   UNL     1      -3.050   5.164   2.662  0.00  0.00    -0.205 F 
ENDBRANCH   5  17
BRANCH  14  24
ATOM     24  C   UNL     1       3.700   4.139   0.014  0.00  0.00    +0.038 C 
BRANCH  24  30
ATOM     25  C   UNL     1       1.588   4.340  -1.153  0.00  0.00    -0.076 C 
ATOM     26  C   UNL     1       0.237   3.660  -1.385  0.00  0.00    -0.015 C 
ATOM     27  C   UNL     1       0.459   2.328  -2.107  0.00  0.00    -0.010 C 
ATOM     28  C   UNL     1       1.394   1.452  -1.270  0.00  0.00    -0.015 C 
ATOM     29  C   UNL     1       2.712   2.196  -1.040  0.00  0.00    -0.076 C 
ATOM     30  N   UNL     1       2.432   3.457  -0.320  0.00  0.00    +0.390 N 
ATOM     31  H   UNL     1       1.931   3.240   0.549  0.00  0.00    -0.080 HD
BRANCH  27  32
ATOM     32  C   UNL     1      -0.883   1.615  -2.289  0.00  0.00    +0.038 C 
BRANCH  32  33
ATOM     33  C   UNL     1      -0.681   0.365  -3.106  0.00  0.00    -0.047 A 
ATOM     34  C   UNL     1      -0.790   0.415  -4.483  0.00  0.00    +0.003 A 
ATOM     35  C   UNL     1      -0.601  -0.731  -5.233  0.00  0.00    +0.000 A 
ATOM     36  C   UNL     1      -0.312  -1.928  -4.605  0.00  0.00    +0.000 A 
ATOM     37  C   UNL     1      -0.208  -1.978  -3.227  0.00  0.00    +0.000 A 
ATOM     38  C   UNL     1      -0.393  -0.832  -2.478  0.00  0.00    +0.003 A 
ENDBRANCH  32  33
ENDBRANCH  27  32
ENDBRANCH  24  30
ENDBRANCH  14  24
TORSDOF 5
