REMARK  Name = ZINC06196757
REMARK  14 active torsions:
REMARK  status: ('A' for Active; 'I' for Inactive)
REMARK    1  A    between atoms: C_1  and  C_2
REMARK    2  A    between atoms: C_2  and  O_3
REMARK    3  A    between atoms: O_3  and  C_4
REMARK    4  A    between atoms: C_11  and  C_16
REMARK    5  A    between atoms: C_16  and  C_18
REMARK    6  A    between atoms: C_16  and  N_67
REMARK    7  A    between atoms: N_22  and  C_23
REMARK    8  A    between atoms: C_23  and  C_24
REMARK    9  A    between atoms: C_23  and  C_25
REMARK   10  A    between atoms: C_23  and  C_26
REMARK   11  A    between atoms: C_27  and  C_28
REMARK   12  A    between atoms: C_27  and  N_67
REMARK   13  A    between atoms: C_33  and  C_34
REMARK   14  A    between atoms: C_33  and  N_67
REMARK                            x       y       z     vdW  Elec       q    Type
REMARK                         _______ _______ _______ _____ _____    ______ ____
ROOT
ATOM      1  C   UNL     1       2.381   1.090  -0.395  0.00  0.00    +0.040 C 
ENDROOT
BRANCH   1   9
ATOM      2  C   UNL     1      -3.729   0.940  -1.432  0.00  0.00    +0.121 A 
ATOM      3  C   UNL     1      -3.926   2.318  -1.368  0.00  0.00    +0.047 A 
ATOM      4  C   UNL     1      -2.870   3.167  -1.117  0.00  0.00    +0.030 A 
ATOM      5  C   UNL     1      -1.590   2.651  -0.941  0.00  0.00    +0.049 A 
ATOM      6  C   UNL     1      -1.387   1.260  -1.010  0.00  0.00    +0.002 A 
ATOM      7  C   UNL     1      -2.468   0.407  -1.255  0.00  0.00    +0.055 A 
ATOM      8  C   UNL     1      -0.035   0.730  -0.819  0.00  0.00    +0.017 A 
ATOM      9  C   UNL     1       0.977   1.603  -0.591  0.00  0.00    +0.011 A 
ATOM     10  C   UNL     1       0.721   2.989  -0.536  0.00  0.00    +0.251 A 
ATOM     11  O   UNL     1       1.646   3.756  -0.330  0.00  0.00    -0.268 OA
ATOM     12  N   UNL     1      -0.517   3.485  -0.705  0.00  0.00    -0.322 N 
ATOM     13  H   UNL     1      -0.662   4.474  -0.659  0.00  0.00    +0.169 HD
BRANCH   2  14
ATOM     14  O   UNL     1      -4.785   0.117  -1.670  0.00  0.00    -0.492 OA
BRANCH  14  16
ATOM     15  C   UNL     1      -7.118  -0.344  -2.100  0.00  0.00    +0.048 C 
ATOM     16  C   UNL     1      -6.062   0.733  -1.844  0.00  0.00    +0.225 C 
ENDBRANCH  14  16
ENDBRANCH   2  14
ENDBRANCH   1   9
BRANCH   1  17
ATOM     17  C   UNL     1       3.253   1.571  -1.526  0.00  0.00    +0.143 A 
ATOM     18  N   UNL     1       3.627   2.806  -1.755  0.00  0.00    -0.115 NA
ATOM     19  N   UNL     1       4.366   2.808  -2.811  0.00  0.00    -0.023 NA
ATOM     20  N   UNL     1       4.472   1.607  -3.261  0.00  0.00    -0.043 NA
ATOM     21  N   UNL     1       3.805   0.814  -2.492  0.00  0.00    -0.225 N 
BRANCH  21  22
ATOM     22  C   UNL     1       3.670  -0.637  -2.646  0.00  0.00    +0.059 C 
ATOM     23  C   UNL     1       2.189  -1.001  -2.765  0.00  0.00    +0.036 C 
ATOM     24  C   UNL     1       4.409  -1.087  -3.907  0.00  0.00    +0.036 C 
ATOM     25  C   UNL     1       4.271  -1.337  -1.425  0.00  0.00    +0.036 C 
ENDBRANCH  21  22
ENDBRANCH   1  17
BRANCH   1  26
ATOM     26  N   UNL     1       2.912   1.619   0.879  0.00  0.00    +0.397 N 
ATOM     27  H   UNL     1       2.942   2.644   0.827  0.00  0.00    -0.079 HD
BRANCH  26  28
ATOM     28  C   UNL     1       2.033   1.220   1.998  0.00  0.00    -0.001 C 
BRANCH  28  29
ATOM     29  C   UNL     1       1.851  -0.276   2.019  0.00  0.00    +0.089 A 
ATOM     30  C   UNL     1       2.672  -1.160   2.612  0.00  0.00    +0.042 A 
ATOM     31  C   UNL     1       2.125  -2.444   2.385  0.00  0.00    +0.041 A 
ATOM     32  C   UNL     1       1.001  -2.267   1.667  0.00  0.00    +0.195 A 
ATOM     33  O   UNL     1       0.837  -0.951   1.453  0.00  0.00    -0.470 OA
ENDBRANCH  28  29
ENDBRANCH  26  28
BRANCH  26  34
ATOM     34  C   UNL     1       4.281   1.110   1.105  0.00  0.00    -0.034 C 
BRANCH  34  35
ATOM     35  C   UNL     1       4.932   1.935   2.186  0.00  0.00    -0.027 A 
ATOM     36  C   UNL     1       5.030   1.679   3.513  0.00  0.00    +0.009 A 
ATOM     37  C   UNL     1       5.680   2.589   4.325  0.00  0.00    +0.008 A 
ATOM     38  C   UNL     1       6.200   3.711   3.770  0.00  0.00    +0.045 A 
ATOM     39  S   UNL     1       5.780   3.500   2.048  0.00  0.00    -0.103 S 
ENDBRANCH  34  35
ENDBRANCH  26  34
ENDBRANCH   1  26
TORSDOF 10
