REMARK  Name = ZINC54624419
REMARK  10 active torsions:
REMARK  status: ('A' for Active; 'I' for Inactive)
REMARK    1  A    between atoms: C_1  and  C_2
REMARK    2  A    between atoms: C_2  and  C_3
REMARK    3  A    between atoms: C_2  and  O_4
REMARK    4  A    between atoms: O_4  and  C_5
REMARK    5  A    between atoms: C_9  and  C_11
REMARK    6  A    between atoms: C_16  and  C_20
REMARK    7  A    between atoms: C_16  and  C_21
REMARK    8  A    between atoms: C_26  and  S_28
REMARK    9  A    between atoms: S_28  and  C_29
REMARK   10  A    between atoms: C_29  and  C_30
REMARK                            x       y       z     vdW  Elec       q    Type
REMARK                         _______ _______ _______ _____ _____    ______ ____
ROOT
ATOM      1  C   UNL     1      -4.404  -4.127  -1.111  0.00  0.00    +0.176 C 
ATOM      2  C   UNL     1      -4.784  -4.415  -2.546  0.00  0.00    +0.041 C 
ATOM      3  C   UNL     1      -4.820  -5.671  -3.041  0.00  0.00    +0.020 C 
ATOM      4  C   UNL     1      -5.187  -5.926  -4.484  0.00  0.00    +0.058 C 
ATOM      5  C   UNL     1      -6.173  -4.857  -4.961  0.00  0.00    -0.023 C 
ATOM      6  C   UNL     1      -5.514  -3.484  -4.793  0.00  0.00    +0.086 C 
ATOM      7  C   UNL     1      -5.105  -3.311  -3.357  0.00  0.00    +0.164 C 
ATOM      8  O   UNL     1      -5.050  -2.192  -2.885  0.00  0.00    -0.292 OA
ATOM      9  C   UNL     1      -7.450  -4.923  -4.121  0.00  0.00    +0.011 C 
ATOM     10  C   UNL     1      -6.512  -5.089  -6.435  0.00  0.00    +0.011 C 
ATOM     11  N   UNL     1      -4.533  -6.765  -2.262  0.00  0.00    -0.287 N 
ATOM     12  C   UNL     1      -4.488  -6.593  -0.888  0.00  0.00    +0.219 A 
ATOM     13  N   UNL     1      -4.431  -5.359  -0.333  0.00  0.00    -0.220 N 
ATOM     14  N   UNL     1      -4.406  -5.548   1.048  0.00  0.00    -0.141 NA
ATOM     15  C   UNL     1      -4.441  -6.847   1.254  0.00  0.00    +0.211 A 
ATOM     16  N   UNL     1      -4.491  -7.473   0.076  0.00  0.00    -0.187 NA
ATOM     17  H   UNL     1      -4.366  -7.633  -2.662  0.00  0.00    +0.155 HD
ENDROOT
BRANCH   1  22
ATOM     18  C   UNL     1      -1.538  -1.739  -0.505  0.00  0.00    +0.121 A 
ATOM     19  C   UNL     1      -0.465  -2.469  -0.997  0.00  0.00    +0.045 A 
ATOM     20  C   UNL     1      -0.671  -3.729  -1.522  0.00  0.00    +0.004 A 
ATOM     21  C   UNL     1      -1.945  -4.265  -1.558  0.00  0.00    +0.006 A 
ATOM     22  C   UNL     1      -3.016  -3.541  -1.069  0.00  0.00    -0.015 A 
ATOM     23  C   UNL     1      -2.815  -2.281  -0.538  0.00  0.00    +0.051 A 
BRANCH  18  24
ATOM     24  O   UNL     1      -1.339  -0.499   0.012  0.00  0.00    -0.489 OA
BRANCH  24  26
ATOM     25  C   UNL     1      -1.982   1.167   1.641  0.00  0.00    +0.051 C 
ATOM     26  C   UNL     1      -2.466   0.143   0.612  0.00  0.00    +0.167 C 
ATOM     27  C   UNL     1      -3.283   0.854  -0.469  0.00  0.00    +0.051 C 
ENDBRANCH  24  26
ENDBRANCH  18  24
ENDBRANCH   1  22
BRANCH  15  28
ATOM     28  S   UNL     1      -4.427  -7.634   2.830  0.00  0.00    -0.080 S 
BRANCH  28  29
ATOM     29  C   UNL     1      -4.492  -9.404   2.437  0.00  0.00    +0.114 C 
BRANCH  29  30
ATOM     30  C   UNL     1      -4.486 -10.203   3.715  0.00  0.00    -0.019 A 
ATOM     31  C   UNL     1      -3.287 -10.601   4.275  0.00  0.00    +0.006 A 
ATOM     32  C   UNL     1      -3.281 -11.334   5.447  0.00  0.00    +0.000 A 
ATOM     33  C   UNL     1      -4.474 -11.668   6.061  0.00  0.00    +0.001 A 
ATOM     34  C   UNL     1      -5.674 -11.270   5.502  0.00  0.00    +0.020 A 
ATOM     35  C   UNL     1      -5.680 -10.532   4.331  0.00  0.00    +0.045 A 
ATOM     36 CL   UNL     1      -7.186 -10.025   3.632  0.00  0.00    -0.083 Cl
ENDBRANCH  29  30
ENDBRANCH  28  29
ENDBRANCH  15  28
TORSDOF 6
