REMARK  Name = ZINC39276653
REMARK  5 active torsions:
REMARK  status: ('A' for Active; 'I' for Inactive)
REMARK    1  A    between atoms: C_1  and  C_2
REMARK    2  A    between atoms: N_16  and  N_17
REMARK    3  A    between atoms: C_18  and  C_19
REMARK    4  A    between atoms: C_24  and  O_25
REMARK    5  A    between atoms: O_25  and  C_26
REMARK                            x       y       z     vdW  Elec       q    Type
REMARK                         _______ _______ _______ _____ _____    ______ ____
ROOT
ATOM      1  C   UNL     1      -3.346   2.361  -0.509  0.00  0.00    +0.046 C 
ATOM      2  C   UNL     1      -3.924   0.976  -0.644  0.00  0.00    -0.027 A 
ATOM      3  C   UNL     1      -4.721   0.667  -1.692  0.00  0.00    +0.005 A 
ATOM      4  C   UNL     1      -5.272  -0.612  -1.848  0.00  0.00    +0.001 A 
ATOM      5  C   UNL     1      -5.069  -1.603  -0.951  0.00  0.00    +0.012 A 
ATOM      6  C   UNL     1      -4.277  -1.381   0.198  0.00  0.00    +0.025 A 
ATOM      7  C   UNL     1      -3.990  -2.122   1.317  0.00  0.00    +0.115 C 
ATOM      8  C   UNL     1      -2.868  -1.369   2.022  0.00  0.00    +0.253 C 
ATOM      9  N   UNL     1      -2.877  -0.036   1.434  0.00  0.00    -0.358 N 
ATOM     10  C   UNL     1      -3.623  -0.055   0.356  0.00  0.00    +0.049 A 
ATOM     11  N   UNL     1      -3.195  -1.398   3.449  0.00  0.00    -0.220 NA
ATOM     12  C   UNL     1      -3.910  -2.399   3.899  0.00  0.00    +0.227 C 
ATOM     13  N   UNL     1      -4.415  -3.378   3.110  0.00  0.00    -0.247 N 
ATOM     14  N   UNL     1      -4.490  -3.248   1.827  0.00  0.00    -0.171 NA
ATOM     15  N   UNL     1      -4.166  -2.459   5.254  0.00  0.00    -0.206 N 
ATOM     16  H   UNL     1      -4.762  -3.138   5.606  0.00  0.00    +0.177 HD
ATOM     17  H   UNL     1      -4.737  -4.195   3.523  0.00  0.00    +0.192 HD
ATOM     18  H   UNL     1      -2.404   0.737   1.780  0.00  0.00    +0.162 HD
ENDROOT
BRANCH  15  19
ATOM     19  N   UNL     1      -3.564  -1.538   6.122  0.00  0.00    -0.187 NA
ATOM     20  C   UNL     1      -3.694  -1.675   7.406  0.00  0.00    +0.142 C 
BRANCH  20  21
ATOM     21  C   UNL     1      -3.997  -2.999   7.979  0.00  0.00    +0.038 A 
ATOM     22  C   UNL     1      -3.744  -4.158   7.241  0.00  0.00    +0.028 A 
ATOM     23  C   UNL     1      -4.029  -5.394   7.782  0.00  0.00    +0.020 A 
ATOM     24  C   UNL     1      -4.567  -5.491   9.055  0.00  0.00    +0.034 A 
ATOM     25  C   UNL     1      -4.822  -4.351   9.796  0.00  0.00    +0.061 A 
ATOM     26  C   UNL     1      -4.535  -3.102   9.268  0.00  0.00    +0.143 A 
ATOM     27 BR   UNL     1      -5.556  -4.497  11.532  0.00  0.00    -0.046 Br
ATOM     28 BR   UNL     1      -3.687  -6.962   6.782  0.00  0.00    -0.050 Br
BRANCH  26  29
ATOM     29  O   UNL     1      -4.780  -1.982   9.997  0.00  0.00    -0.493 OA
ATOM     30  C   UNL     1      -6.028  -1.322   9.772  0.00  0.00    +0.277 C 
ENDBRANCH  26  29
ENDBRANCH  20  21
ENDBRANCH  15  19
TORSDOF 3
