REMARK  Name = ZINC39231298
REMARK  9 active torsions:
REMARK  status: ('A' for Active; 'I' for Inactive)
REMARK    1  A    between atoms: C_1  and  C_2
REMARK    2  A    between atoms: C_2  and  C_3
REMARK    3  A    between atoms: C_2  and  C_4
REMARK    4  A    between atoms: C_9  and  N_10
REMARK    5  A    between atoms: C_11  and  C_13
REMARK    6  A    between atoms: C_17  and  C_19
REMARK    7  A    between atoms: N_32  and  C_35
REMARK    8  A    between atoms: C_35  and  C_36
REMARK    9  A    between atoms: C_35  and  C_37
REMARK                            x       y       z     vdW  Elec       q    Type
REMARK                         _______ _______ _______ _____ _____    ______ ____
ROOT
ATOM      1  C   UNL     1      -0.580  -3.958  -7.754  0.00  0.00    -0.017 A 
ATOM      2  C   UNL     1      -1.936  -4.264  -7.891  0.00  0.00    +0.012 A 
ATOM      3  C   UNL     1      -2.404  -4.878  -9.033  0.00  0.00    +0.047 A 
ATOM      4  C   UNL     1      -1.529  -5.198 -10.064  0.00  0.00    +0.132 A 
ATOM      5  C   UNL     1      -0.165  -4.888  -9.933  0.00  0.00    +0.060 A 
ATOM      6  C   UNL     1       0.307  -4.265  -8.779  0.00  0.00    +0.023 A 
ATOM      7  C   UNL     1       0.754  -5.220 -11.036  0.00  0.00    +0.170 C 
ATOM      8  O   UNL     1       1.889  -4.793 -11.072  0.00  0.00    -0.292 OA
ATOM      9  C   UNL     1       0.207  -6.126 -12.126  0.00  0.00    +0.127 C 
ATOM     10  C   UNL     1      -1.242  -5.691 -12.387  0.00  0.00    +0.114 C 
ATOM     11  O   UNL     1      -1.996  -5.804 -11.181  0.00  0.00    -0.485 OA
ATOM     12  C   UNL     1      -1.255  -4.239 -12.869  0.00  0.00    +0.030 C 
ATOM     13  C   UNL     1      -2.690  -3.835 -13.214  0.00  0.00    -0.075 C 
ATOM     14  N   UNL     1      -3.207  -4.710 -14.273  0.00  0.00    +0.381 N 
ATOM     15  C   UNL     1      -3.267  -6.095 -13.790  0.00  0.00    -0.075 C 
ATOM     16  C   UNL     1      -1.854  -6.587 -13.466  0.00  0.00    +0.030 C 
ATOM     17  H   UNL     1      -2.598  -4.661 -15.076  0.00  0.00    -0.081 HD
ENDROOT
BRANCH   1  22
ATOM     18  C   UNL     1      -0.508  -2.373  -4.335  0.00  0.00    +0.038 A 
ATOM     19  C   UNL     1       0.849  -2.067  -4.212  0.00  0.00    +0.013 A 
ATOM     20  C   UNL     1       1.724  -2.375  -5.234  0.00  0.00    +0.001 A 
ATOM     21  C   UNL     1       1.264  -2.988  -6.383  0.00  0.00    +0.008 A 
ATOM     22  C   UNL     1      -0.089  -3.300  -6.518  0.00  0.00    -0.017 A 
ATOM     23  C   UNL     1      -0.976  -2.997  -5.490  0.00  0.00    +0.021 A 
BRANCH  18  25
ATOM     24  N   UNL     1      -0.991  -1.440  -2.124  0.00  0.00    -0.281 N 
ATOM     25  C   UNL     1      -1.445  -2.043  -3.240  0.00  0.00    +0.248 C 
ATOM     26  O   UNL     1      -2.625  -2.315  -3.347  0.00  0.00    -0.270 OA
ATOM     27  H   UNL     1      -0.061  -1.171  -2.062  0.00  0.00    +0.155 HD
BRANCH  24  33
ATOM     28  C   UNL     1      -1.363  -1.101   0.238  0.00  0.00    -0.024 A 
ATOM     29  C   UNL     1      -2.224  -0.860   1.291  0.00  0.00    +0.006 A 
ATOM     30  C   UNL     1      -3.580  -0.725   1.060  0.00  0.00    +0.000 A 
ATOM     31  C   UNL     1      -4.080  -0.831  -0.225  0.00  0.00    +0.002 A 
ATOM     32  C   UNL     1      -3.225  -1.072  -1.282  0.00  0.00    +0.023 A 
ATOM     33  C   UNL     1      -1.861  -1.202  -1.055  0.00  0.00    +0.037 A 
BRANCH  28  35
ATOM     34  C   UNL     1       0.678   0.077   1.011  0.00  0.00    +0.012 C 
ATOM     35  C   UNL     1       0.115  -1.247   0.491  0.00  0.00    +0.015 C 
ATOM     36  C   UNL     1       0.349  -2.345   1.531  0.00  0.00    +0.012 C 
ENDBRANCH  28  35
ENDBRANCH  24  33
ENDBRANCH  18  25
ENDBRANCH   1  22
BRANCH  14  37
ATOM     37  C   UNL     1      -4.555  -4.269 -14.656  0.00  0.00    -0.075 C 
ATOM     38  C   UNL     1      -4.493  -2.829 -15.169  0.00  0.00    -0.014 C 
ATOM     39  C   UNL     1      -5.095  -5.181 -15.760  0.00  0.00    -0.014 C 
ENDBRANCH  14  37
TORSDOF 5
