REMARK  Name = ZINC09442524
REMARK  10 active torsions:
REMARK  status: ('A' for Active; 'I' for Inactive)
REMARK    1  A    between atoms: C_1  and  N_51
REMARK    2  A    between atoms: C_2  and  N_51
REMARK    3  A    between atoms: C_3  and  C_5
REMARK    4  A    between atoms: C_3  and  C_27
REMARK    5  A    between atoms: C_3  and  N_51
REMARK    6  A    between atoms: C_5  and  N_6
REMARK    7  A    between atoms: C_7  and  C_9
REMARK    8  A    between atoms: C_14  and  C_15
REMARK    9  A    between atoms: C_15  and  C_17
REMARK   10  A    between atoms: C_21  and  N_23
REMARK                            x       y       z     vdW  Elec       q    Type
REMARK                         _______ _______ _______ _____ _____    ______ ____
ROOT
ATOM      1  C   UNL     1       0.425   0.401   0.570  0.00  0.00    +0.047 A 
ATOM      2  C   UNL     1       1.569   1.192   0.518  0.00  0.00    +0.014 A 
ATOM      3  C   UNL     1       1.456   2.564   0.399  0.00  0.00    +0.001 A 
ATOM      4  C   UNL     1       0.209   3.161   0.331  0.00  0.00    +0.001 A 
ATOM      5  C   UNL     1      -0.938   2.392   0.380  0.00  0.00    +0.012 A 
ATOM      6  C   UNL     1      -0.843   1.007   0.494  0.00  0.00    +0.034 A 
ENDROOT
BRANCH   1   8
ATOM      7  N   UNL     1       1.754  -1.655   0.654  0.00  0.00    -0.312 N 
ATOM      8  C   UNL     1       0.541  -1.069   0.697  0.00  0.00    +0.245 C 
ATOM      9  O   UNL     1      -0.457  -1.747   0.841  0.00  0.00    -0.270 OA
ATOM     10  H   UNL     1       2.550  -1.114   0.540  0.00  0.00    +0.149 HD
BRANCH   7  11
ATOM     11  C   UNL     1       1.869  -3.110   0.780  0.00  0.00    +0.097 C 
BRANCH  11  12
ATOM     12  C   UNL     1       3.347  -3.503   0.825  0.00  0.00    +0.016 C 
BRANCH  12  13
ATOM     13  C   UNL     1       3.465  -4.989   1.044  0.00  0.00    +0.093 A 
ATOM     14  C   UNL     1       3.849  -5.892   0.124  0.00  0.00    +0.043 A 
ATOM     15  C   UNL     1       3.821  -7.157   0.755  0.00  0.00    +0.041 A 
ATOM     16  C   UNL     1       3.413  -6.953   2.021  0.00  0.00    +0.195 A 
ATOM     17  O   UNL     1       3.199  -5.638   2.190  0.00  0.00    -0.469 OA
ENDBRANCH  12  13
BRANCH  12  20
ATOM     18  C   UNL     1       3.433  -3.172   3.222  0.00  0.00    -0.096 C 
ATOM     19  C   UNL     1       5.460  -3.024   1.906  0.00  0.00    -0.096 C 
ATOM     20  N   UNL     1       4.005  -2.763   1.922  0.00  0.00    +0.384 N 
ATOM     21  H   UNL     1       3.845  -1.758   1.789  0.00  0.00    -0.082 HD
ENDBRANCH  12  20
ENDBRANCH  11  12
ENDBRANCH   7  11
ENDBRANCH   1   8
BRANCH   6  22
ATOM     22  C   UNL     1      -2.067   0.179   0.541  0.00  0.00    +0.194 C 
ATOM     23  O   UNL     1      -2.721   0.118   1.564  0.00  0.00    -0.287 OA
BRANCH  22  24
ATOM     24  C   UNL     1      -2.496  -0.573  -0.655  0.00  0.00    +0.025 A 
ATOM     25  C   UNL     1      -1.708  -0.566  -1.809  0.00  0.00    +0.013 A 
ATOM     26  C   UNL     1      -2.110  -1.275  -2.920  0.00  0.00    +0.023 A 
ATOM     27  C   UNL     1      -3.300  -1.985  -2.898  0.00  0.00    +0.071 A 
ATOM     28  C   UNL     1      -4.089  -1.992  -1.760  0.00  0.00    +0.145 A 
ATOM     29  C   UNL     1      -3.695  -1.291  -0.640  0.00  0.00    +0.046 A 
ATOM     30 CL   UNL     1      -3.804  -2.869  -4.305  0.00  0.00    -0.081 Cl
BRANCH  28  31
ATOM     31  N   UNL     1      -5.358  -2.753  -1.745  0.00  0.00    +0.058 N 
ATOM     32  O   UNL     1      -6.053  -2.761  -0.745  0.00  0.00    -0.126 OA
ATOM     33  O   UNL     1      -5.708  -3.373  -2.734  0.00  0.00    -0.126 OA
ENDBRANCH  28  31
ENDBRANCH  22  24
ENDBRANCH   6  22
TORSDOF 8
