REMARK  Name = ZINC09712415
REMARK  4 active torsions:
REMARK  status: ('A' for Active; 'I' for Inactive)
REMARK    1  A    between atoms: C_3  and  C_6
REMARK    2  A    between atoms: C_15  and  C_16
REMARK    3  A    between atoms: C_15  and  N_52
REMARK    4  A    between atoms: N_21  and  C_22
REMARK                            x       y       z     vdW  Elec       q    Type
REMARK                         _______ _______ _______ _____ _____    ______ ____
ROOT
ATOM      1  C   UNL     1       4.832  -4.006   0.226  0.00  0.00    +0.204 C 
ATOM      2  O   UNL     1       3.790  -4.627   0.235  0.00  0.00    -0.277 OA
ATOM      3  N   UNL     1       4.814  -2.662   0.133  0.00  0.00    -0.241 N 
ATOM      4  C   UNL     1       3.639  -2.008   0.049  0.00  0.00    +0.310 C 
ATOM      5  O   UNL     1       2.595  -2.630   0.058  0.00  0.00    -0.252 OA
ATOM      6  N   UNL     1       3.622  -0.663  -0.045  0.00  0.00    -0.269 N 
ATOM      7  H   UNL     1       5.647  -2.166   0.125  0.00  0.00    +0.159 HD
ATOM      8  H   UNL     1       4.454  -0.172  -0.130  0.00  0.00    +0.156 HD
ENDROOT
BRANCH   6   9
ATOM      9  C   UNL     1       2.401   0.025  -0.019  0.00  0.00    +0.038 A 
ATOM     10  C   UNL     1       1.346  -0.460   0.741  0.00  0.00    +0.027 A 
ATOM     11  C   UNL     1       0.142   0.218   0.766  0.00  0.00    +0.051 A 
ATOM     12  C   UNL     1      -0.016   1.384   0.032  0.00  0.00    +0.162 A 
ATOM     13  C   UNL     1       1.040   1.874  -0.728  0.00  0.00    +0.164 A 
ATOM     14  C   UNL     1       2.247   1.192  -0.754  0.00  0.00    +0.072 A 
ATOM     15  O   UNL     1       0.906   3.021  -1.448  0.00  0.00    -0.485 OA
ATOM     16  C   UNL     1      -0.429   3.474  -1.696  0.00  0.00    +0.270 C 
ATOM     17  C   UNL     1      -1.215   3.396  -0.380  0.00  0.00    +0.270 C 
ATOM     18  O   UNL     1      -1.212   2.034   0.062  0.00  0.00    -0.485 OA
ENDBRANCH   6   9
BRANCH   1  19
ATOM     19  C   UNL     1       6.146  -4.738   0.320  0.00  0.00    +0.020 C 
BRANCH  19  28
ATOM     20  C   UNL     1       7.144  -6.943   0.266  0.00  0.00    +0.002 C 
ATOM     21  C   UNL     1       6.827  -8.430   0.393  0.00  0.00    -0.046 A 
ATOM     22  C   UNL     1       7.671  -9.445  -0.051  0.00  0.00    +0.010 A 
ATOM     23  C   UNL     1       7.309 -10.741   0.100  0.00  0.00    +0.045 A 
ATOM     24  S   UNL     1       5.718 -10.589   0.898  0.00  0.00    -0.101 S 
ATOM     25  C   UNL     1       5.656  -8.821   0.970  0.00  0.00    -0.010 A 
ATOM     26  C   UNL     1       4.593  -7.929   1.524  0.00  0.00    +0.024 C 
ATOM     27  C   UNL     1       5.188  -6.517   1.656  0.00  0.00    -0.072 C 
ATOM     28  N   UNL     1       5.875  -6.188   0.383  0.00  0.00    +0.393 N 
ATOM     29  H   UNL     1       5.263  -6.447  -0.400  0.00  0.00    -0.080 HD
BRANCH  20  32
ATOM     30  C   UNL     1       9.382  -6.240  -2.735  0.00  0.00    +0.008 A 
ATOM     31  C   UNL     1       9.053  -6.485  -1.415  0.00  0.00    +0.010 A 
ATOM     32  C   UNL     1       7.751  -6.665  -1.085  0.00  0.00    -0.019 A 
ATOM     33  S   UNL     1       6.942  -6.496  -2.667  0.00  0.00    -0.103 S 
ATOM     34  C   UNL     1       8.393  -6.187  -3.660  0.00  0.00    +0.045 A 
ENDBRANCH  20  32
ENDBRANCH  19  28
ENDBRANCH   1  19
TORSDOF 4
