REMARK  Name = ZINC61687340
REMARK  8 active torsions:
REMARK  status: ('A' for Active; 'I' for Inactive)
REMARK    1  A    between atoms: C_1  and  C_2
REMARK    2  A    between atoms: C_5  and  N_19
REMARK    3  A    between atoms: C_7  and  C_8
REMARK    4  A    between atoms: C_10  and  C_18
REMARK    5  A    between atoms: C_11  and  C_15
REMARK    6  A    between atoms: C_12  and  N_14
REMARK    7  A    between atoms: C_15  and  C_16
REMARK    8  A    between atoms: C_15  and  C_17
REMARK                            x       y       z     vdW  Elec       q    Type
REMARK                         _______ _______ _______ _____ _____    ______ ____
ROOT
ATOM      1  C   UNL     1       0.232   0.139   2.331  0.00  0.00    +0.162 A 
ATOM      2  N   UNL     1       0.521  -0.421   3.498  0.00  0.00    -0.232 NA
ATOM      3  C   UNL     1       0.608   0.308   4.600  0.00  0.00    +0.047 A 
ATOM      4  C   UNL     1       0.392   1.671   4.528  0.00  0.00    +0.016 A 
ATOM      5  C   UNL     1       0.089   2.233   3.285  0.00  0.00    +0.124 A 
ATOM      6  N   UNL     1       0.023   1.444   2.219  0.00  0.00    -0.213 NA
ATOM      7  C   UNL     1       0.937  -0.343   5.919  0.00  0.00    +0.066 C 
ENDROOT
BRANCH   1  14
ATOM      8  C   UNL     1      -2.025   0.414   0.542  0.00  0.00    +0.044 C 
ATOM      9  C   UNL     1      -0.938  -0.588   0.253  0.00  0.00    -0.040 A 
ATOM     10  C   UNL     1      -1.010  -1.381  -0.875  0.00  0.00    +0.006 A 
ATOM     11  C   UNL     1      -0.013  -2.301  -1.141  0.00  0.00    +0.033 A 
ATOM     12  C   UNL     1       1.062  -2.434  -0.280  0.00  0.00    +0.127 A 
ATOM     13  C   UNL     1       1.145  -1.647   0.850  0.00  0.00    +0.044 A 
ATOM     14  C   UNL     1       0.145  -0.714   1.121  0.00  0.00    +0.024 A 
BRANCH  12  15
ATOM     15  N   UNL     1       2.125  -3.422  -0.572  0.00  0.00    +0.056 N 
ATOM     16  O   UNL     1       2.053  -4.113  -1.562  0.00  0.00    -0.126 OA
ATOM     17  O   UNL     1       3.064  -3.539   0.180  0.00  0.00    -0.126 OA
ENDBRANCH  12  15
ENDBRANCH   1  14
BRANCH   5  18
ATOM     18  N   UNL     1      -0.134   3.595   3.166  0.00  0.00    -0.343 N 
ATOM     19  H   UNL     1      -0.186   4.150   3.960  0.00  0.00    +0.144 HD
ATOM     20  H   UNL     1      -0.239   3.995   2.288  0.00  0.00    +0.144 HD
ENDBRANCH   5  18
BRANCH   4  21
ATOM     21  C   UNL     1       0.482   2.531   5.762  0.00  0.00    +0.018 C 
ATOM     22  C   UNL     1       1.534   3.621   5.548  0.00  0.00    +0.012 C 
ATOM     23  C   UNL     1      -0.877   3.181   6.030  0.00  0.00    +0.012 C 
ENDBRANCH   4  21
TORSDOF 4
