REMARK  Name = ZINC63281806
REMARK  7 active torsions:
REMARK  status: ('A' for Active; 'I' for Inactive)
REMARK    1  A    between atoms: C_4  and  C_7
REMARK    2  A    between atoms: C_13  and  O_19
REMARK    3  A    between atoms: O_19  and  C_20
REMARK    4  A    between atoms: C_20  and  C_21
REMARK    5  A    between atoms: N_23  and  C_24
REMARK    6  A    between atoms: C_24  and  C_25
REMARK    7  A    between atoms: C_25  and  C_26
REMARK                            x       y       z     vdW  Elec       q    Type
REMARK                         _______ _______ _______ _____ _____    ______ ____
ROOT
ATOM      1  O   UNL     1       1.073  -6.474  -0.950  0.00  0.00    -0.483 OA
ENDROOT
BRANCH   1   7
ATOM      2  C   UNL     1       3.711  -0.707  -0.038  0.00  0.00    +0.128 C 
ATOM      3  C   UNL     1       3.817  -1.619   1.193  0.00  0.00    +0.245 C 
ATOM      4  O   UNL     1       2.756  -2.574   1.166  0.00  0.00    -0.490 OA
ATOM      5  C   UNL     1       2.580  -3.318   0.049  0.00  0.00    +0.134 A 
ATOM      6  C   UNL     1       1.911  -4.530   0.122  0.00  0.00    +0.092 A 
ATOM      7  C   UNL     1       1.728  -5.288  -1.026  0.00  0.00    +0.125 A 
ATOM      8  C   UNL     1       2.209  -4.842  -2.254  0.00  0.00    +0.046 A 
ATOM      9  C   UNL     1       2.872  -3.651  -2.342  0.00  0.00    +0.018 A 
ATOM     10  C   UNL     1       3.067  -2.878  -1.194  0.00  0.00    +0.060 A 
ATOM     11  C   UNL     1       3.790  -1.597  -1.265  0.00  0.00    +0.177 C 
ATOM     12  O   UNL     1       4.415  -1.269  -2.252  0.00  0.00    -0.291 OA
BRANCH   2  16
ATOM     13  C   UNL     1      -0.017   1.378   0.010  0.00  0.00    +0.000 A 
ATOM     14  C   UNL     1       1.171   2.086   0.002  0.00  0.00    +0.000 A 
ATOM     15  C   UNL     1       2.377   1.411  -0.013  0.00  0.00    +0.004 A 
ATOM     16  C   UNL     1       2.396   0.029  -0.020  0.00  0.00    -0.034 A 
ATOM     17  C   UNL     1       1.208  -0.679  -0.012  0.00  0.00    +0.004 A 
ATOM     18  C   UNL     1       0.002  -0.004   0.002  0.00  0.00    +0.000 A 
ENDBRANCH   2  16
ENDBRANCH   1   7
BRANCH   1  19
ATOM     19  C   UNL     1       0.916  -7.207  -2.167  0.00  0.00    +0.324 C 
BRANCH  19  20
ATOM     20  C   UNL     1       0.172  -8.487  -1.889  0.00  0.00    +0.251 C 
ATOM     21  O   UNL     1      -0.189  -8.746  -0.761  0.00  0.00    -0.272 OA
ATOM     22  N   UNL     1      -0.093  -9.344  -2.895  0.00  0.00    -0.312 N 
ATOM     23  H   UNL     1       0.195  -9.136  -3.798  0.00  0.00    +0.149 HD
BRANCH  22  24
ATOM     24  C   UNL     1      -0.817 -10.589  -2.626  0.00  0.00    +0.108 C 
BRANCH  24  25
ATOM     25  C   UNL     1      -0.985 -11.373  -3.929  0.00  0.00    +0.052 C 
BRANCH  25  26
ATOM     26  C   UNL     1      -1.730 -12.654  -3.651  0.00  0.00    -0.040 C 
ATOM     27  C   UNL     1      -3.059 -12.866  -3.781  0.00  0.00    +0.000 A 
ATOM     28  C   UNL     1      -4.168 -12.000  -4.202  0.00  0.00    +0.030 A 
ATOM     29  C   UNL     1      -5.422 -12.507  -4.231  0.00  0.00    +0.042 A 
ATOM     30  C   UNL     1      -5.688 -13.836  -3.869  0.00  0.00    +0.022 A 
ATOM     31  C   UNL     1      -4.722 -14.691  -3.471  0.00  0.00    +0.027 A 
ATOM     32  C   UNL     1      -3.367 -14.264  -3.404  0.00  0.00    +0.043 A 
ATOM     33  N   UNL     1      -2.271 -14.892  -3.056  0.00  0.00    -0.380 N 
ATOM     34  C   UNL     1      -1.141 -13.964  -3.178  0.00  0.00    +0.144 C 
ATOM     35 CL   UNL     1      -6.735 -11.487  -4.729  0.00  0.00    -0.084 Cl
ATOM     36  H   UNL     1      -2.215 -15.817  -2.769  0.00  0.00    +0.160 HD
ENDBRANCH  25  26
ENDBRANCH  24  25
ENDBRANCH  22  24
ENDBRANCH  19  20
ENDBRANCH   1  19
TORSDOF 7
