REMARK  Name = ZINC10978095
REMARK  5 active torsions:
REMARK  status: ('A' for Active; 'I' for Inactive)
REMARK    1  A    between atoms: C_1  and  N_2
REMARK    2  A    between atoms: N_2  and  C_3
REMARK    3  A    between atoms: C_6  and  C_11
REMARK    4  A    between atoms: C_11  and  S_12
REMARK    5  A    between atoms: S_12  and  C_13
REMARK                            x       y       z     vdW  Elec       q    Type
REMARK                         _______ _______ _______ _____ _____    ______ ____
ROOT
ATOM      1  C   UNL     1      -4.789  11.452  -0.709  0.00  0.00    +0.132 C 
ATOM      2  N   UNL     1      -4.695   9.995  -0.597  0.00  0.00    -0.306 N 
ATOM      3  C   UNL     1      -5.740   9.245   0.103  0.00  0.00    +0.132 C 
ATOM      4  C   UNL     1      -3.622   9.328  -1.153  0.00  0.00    +0.222 A 
ATOM      5  N   UNL     1      -3.538   8.003  -1.056  0.00  0.00    -0.198 NA
ATOM      6  C   UNL     1      -2.508   7.364  -1.583  0.00  0.00    +0.146 A 
ATOM      7  N   UNL     1      -1.562   8.037  -2.216  0.00  0.00    -0.199 NA
ATOM      8  C   UNL     1      -1.641   9.361  -2.320  0.00  0.00    +0.217 A 
ATOM      9  N   UNL     1      -2.673  10.008  -1.788  0.00  0.00    -0.181 NA
ATOM     10  N   UNL     1      -0.653  10.063  -2.981  0.00  0.00    -0.327 N 
ATOM     11  H   UNL     1       0.100   9.590  -3.369  0.00  0.00    +0.145 HD
ATOM     12  H   UNL     1      -0.712  11.028  -3.057  0.00  0.00    +0.145 HD
ENDROOT
BRANCH   6  13
ATOM     13  C   UNL     1      -2.415   5.865  -1.468  0.00  0.00    +0.146 C 
BRANCH  13  14
ATOM     14  S   UNL     1      -1.514   5.430   0.046  0.00  0.00    -0.146 S 
BRANCH  14  15
ATOM     15  C   UNL     1      -1.490   3.616   0.036  0.00  0.00    +0.018 C 
ATOM     16  C   UNL     1      -0.773   3.123  -1.223  0.00  0.00    +0.021 C 
ATOM     17  C   UNL     1      -0.753   1.593  -1.232  0.00  0.00    -0.009 C 
ATOM     18  C   UNL     1      -0.013   1.086   0.008  0.00  0.00    +0.007 C 
ATOM     19  C   UNL     1      -0.729   1.579   1.267  0.00  0.00    -0.009 C 
ATOM     20  C   UNL     1      -0.750   3.109   1.275  0.00  0.00    +0.021 C 
ATOM     21  C   UNL     1      -2.164   1.050   1.278  0.00  0.00    +0.007 C 
ATOM     22  C   UNL     1      -2.904   1.556   0.038  0.00  0.00    -0.009 C 
ATOM     23  C   UNL     1      -2.188   1.063  -1.221  0.00  0.00    +0.007 C 
ATOM     24  C   UNL     1      -2.925   3.086   0.047  0.00  0.00    +0.021 C 
ENDBRANCH  14  15
ENDBRANCH  13  14
ENDBRANCH   6  13
TORSDOF 3
