REMARK  Name = ZINC36146616
REMARK  12 active torsions:
REMARK  status: ('A' for Active; 'I' for Inactive)
REMARK    1  A    between atoms: C_4  and  O_7
REMARK    2  A    between atoms: O_7  and  C_8
REMARK    3  A    between atoms: C_8  and  C_9
REMARK    4  A    between atoms: C_9  and  C_11
REMARK    5  A    between atoms: C_9  and  O_38
REMARK    6  A    between atoms: C_11  and  N_12
REMARK    7  A    between atoms: N_12  and  C_13
REMARK    8  A    between atoms: N_12  and  C_24
REMARK    9  A    between atoms: C_13  and  C_14
REMARK   10  A    between atoms: C_18  and  C_20
REMARK   11  A    between atoms: C_24  and  C_25
REMARK   12  A    between atoms: C_28  and  C_31
REMARK                            x       y       z     vdW  Elec       q    Type
REMARK                         _______ _______ _______ _____ _____    ______ ____
ROOT
ATOM      1  N   UNL     1       6.234  -4.414  -0.013  0.00  0.00    +0.387 N 
ATOM      2  H   UNL     1       6.660  -4.040   0.821  0.00  0.00    -0.081 HD
ENDROOT
BRANCH   1   3
ATOM      3  C   UNL     1       4.876  -3.874  -0.155  0.00  0.00    -0.043 C 
BRANCH   3   4
ATOM      4  C   UNL     1       4.896  -2.367   0.107  0.00  0.00    +0.135 C 
BRANCH   4   5
ATOM      5  O   UNL     1       5.622  -1.712  -0.935  0.00  0.00    -0.390 OA
ATOM      6  H   UNL     1       5.181  -1.734  -1.796  0.00  0.00    +0.210 HD
ENDBRANCH   4   5
BRANCH   4   7
ATOM      7  C   UNL     1       3.462  -1.835   0.141  0.00  0.00    +0.258 C 
BRANCH   7   8
ATOM      8  O   UNL     1       3.475  -0.452   0.500  0.00  0.00    -0.489 OA
BRANCH   8  12
ATOM      9  C   UNL     1      -0.175   1.457   0.729  0.00  0.00    +0.000 A 
ATOM     10  C   UNL     1       0.988   2.156   0.995  0.00  0.00    +0.004 A 
ATOM     11  C   UNL     1       2.211   1.519   0.919  0.00  0.00    +0.045 A 
ATOM     12  C   UNL     1       2.272   0.177   0.576  0.00  0.00    +0.121 A 
ATOM     13  C   UNL     1       1.104  -0.523   0.309  0.00  0.00    +0.045 A 
ATOM     14  C   UNL     1      -0.117   0.119   0.386  0.00  0.00    +0.004 A 
ENDBRANCH   8  12
ENDBRANCH   7   8
ENDBRANCH   4   7
ENDBRANCH   3   4
ENDBRANCH   1   3
BRANCH   1  15
ATOM     15  C   UNL     1       7.036  -4.036  -1.184  0.00  0.00    -0.043 C 
BRANCH  15  16
ATOM     16  C   UNL     1       6.460  -4.683  -2.418  0.00  0.00    -0.063 A 
ATOM     17  C   UNL     1       6.907  -5.929  -2.817  0.00  0.00    +0.002 A 
ATOM     18  C   UNL     1       6.379  -6.523  -3.948  0.00  0.00    +0.001 A 
ATOM     19  C   UNL     1       5.404  -5.870  -4.680  0.00  0.00    +0.012 A 
ATOM     20  C   UNL     1       4.958  -4.625  -4.281  0.00  0.00    +0.055 A 
ATOM     21  C   UNL     1       5.483  -4.033  -3.147  0.00  0.00    +0.014 A 
BRANCH  20  22
ATOM     22  C   UNL     1       3.896  -3.913  -5.079  0.00  0.00    +0.417 C 
ATOM     23  F   UNL     1       3.523  -4.706  -6.170  0.00  0.00    -0.166 F 
ATOM     24  F   UNL     1       2.780  -3.681  -4.268  0.00  0.00    -0.166 F 
ATOM     25  F   UNL     1       4.399  -2.692  -5.541  0.00  0.00    -0.166 F 
ENDBRANCH  20  22
ENDBRANCH  15  16
ENDBRANCH   1  15
BRANCH   1  26
ATOM     26  C   UNL     1       6.171  -5.879   0.085  0.00  0.00    -0.030 C 
BRANCH  26  27
ATOM     27  C   UNL     1       7.572  -6.432   0.356  0.00  0.00    +0.194 C 
ATOM     28  C   UNL     1       7.553  -7.978   0.419  0.00  0.00    +0.104 C 
ATOM     29  C   UNL     1       8.546  -8.275   1.527  0.00  0.00    +0.091 C 
ATOM     30  N   UNL     1       8.756  -7.184   2.185  0.00  0.00    -0.089 NA
ATOM     31  O   UNL     1       8.013  -6.089   1.686  0.00  0.00    -0.392 OA
BRANCH  29  32
ATOM     32  C   UNL     1       9.165  -9.586   1.805  0.00  0.00    -0.000 A 
ATOM     33  C   UNL     1       8.854 -10.691   1.010  0.00  0.00    +0.012 A 
ATOM     34  C   UNL     1       9.435 -11.913   1.274  0.00  0.00    +0.039 A 
ATOM     35  C   UNL     1      10.326 -12.046   2.328  0.00  0.00    +0.123 A 
ATOM     36  C   UNL     1      10.638 -10.953   3.121  0.00  0.00    +0.039 A 
ATOM     37  C   UNL     1      10.067  -9.725   2.862  0.00  0.00    +0.012 A 
ATOM     38  F   UNL     1      10.892 -13.246   2.583  0.00  0.00    -0.205 F 
ENDBRANCH  29  32
ENDBRANCH  26  27
ENDBRANCH   1  26
TORSDOF 12
