REMARK  Name = ZINC17028593
REMARK  5 active torsions:
REMARK  status: ('A' for Active; 'I' for Inactive)
REMARK    1  A    between atoms: C_1  and  N_2
REMARK    2  A    between atoms: C_10  and  C_13
REMARK    3  A    between atoms: N_15  and  C_16
REMARK    4  A    between atoms: C_19  and  S_21
REMARK    5  A    between atoms: S_21  and  N_24
REMARK                            x       y       z     vdW  Elec       q    Type
REMARK                         _______ _______ _______ _____ _____    ______ ____
ROOT
ATOM      1  C   UNL     1      -3.738   6.012   0.074  0.00  0.00    +0.289 C 
ATOM      2  O   UNL     1      -4.139   6.563  -0.934  0.00  0.00    -0.265 OA
ATOM      3  N   UNL     1      -4.447   6.101   1.217  0.00  0.00    -0.181 NA
ENDROOT
BRANCH   1  13
ATOM      4  C   UNL     1       1.226   5.990  -0.023  0.00  0.00    +0.152 C 
ATOM      5  N   UNL     1      -0.042   5.256  -0.001  0.00  0.00    -0.310 N 
ATOM      6  C   UNL     1      -0.020   3.877  -0.007  0.00  0.00    +0.055 A 
ATOM      7  C   UNL     1       1.194   3.195  -0.033  0.00  0.00    +0.026 A 
ATOM      8  C   UNL     1       1.208   1.817  -0.039  0.00  0.00    +0.002 A 
ATOM      9  C   UNL     1       0.021   1.097  -0.018  0.00  0.00    +0.001 A 
ATOM     10  C   UNL     1      -1.182   1.744   0.002  0.00  0.00    +0.014 A 
ATOM     11  C   UNL     1      -1.220   3.143   0.014  0.00  0.00    +0.046 A 
ATOM     12  C   UNL     1      -2.502   3.854   0.041  0.00  0.00    +0.206 A 
ATOM     13  C   UNL     1      -2.483   5.251   0.046  0.00  0.00    +0.153 A 
ATOM     14  C   UNL     1      -1.196   5.945   0.025  0.00  0.00    +0.268 A 
ATOM     15  O   UNL     1      -1.169   7.162   0.029  0.00  0.00    -0.267 OA
ATOM     16  O   UNL     1      -3.669   3.177   0.060  0.00  0.00    -0.286 OA
ENDBRANCH   1  13
BRANCH   3  17
ATOM     17  C   UNL     1      -5.686   6.731   1.219  0.00  0.00    +0.220 A 
ATOM     18  N   UNL     1      -6.353   7.304   0.227  0.00  0.00    -0.120 NA
ATOM     19  N   UNL     1      -7.483   7.836   0.406  0.00  0.00    -0.119 NA
ATOM     20  C   UNL     1      -8.072   7.855   1.585  0.00  0.00    +0.256 A 
ATOM     21  S   UNL     1      -6.843   6.992   2.560  0.00  0.00    -0.006 S 
BRANCH  20  22
ATOM     22  S   UNL     1      -9.627   8.532   2.063  0.00  0.00    +0.081 S 
ATOM     23  O   UNL     1      -9.546   8.790   3.458  0.00  0.00    -0.151 OA
ATOM     24  O   UNL     1      -9.937   9.546   1.117  0.00  0.00    -0.151 OA
BRANCH  22  25
ATOM     25  N   UNL     1     -10.760   7.340   1.868  0.00  0.00    -0.202 NA
ATOM     26  H   UNL     1     -11.749   7.724   2.157  0.00  0.00    +0.144 HD
ATOM     27  H   UNL     1     -10.500   6.480   2.503  0.00  0.00    +0.144 HD
ENDBRANCH  22  25
ENDBRANCH  20  22
ENDBRANCH   3  17
TORSDOF 4
