REMARK  Name = ZINC63624992
REMARK  6 active torsions:
REMARK  status: ('A' for Active; 'I' for Inactive)
REMARK    1  A    between atoms: C_1  and  C_2
REMARK    2  A    between atoms: C_5  and  C_8
REMARK    3  A    between atoms: N_22  and  S_23
REMARK    4  A    between atoms: S_23  and  C_26
REMARK    5  A    between atoms: C_29  and  O_33
REMARK    6  A    between atoms: O_33  and  C_34
REMARK                            x       y       z     vdW  Elec       q    Type
REMARK                         _______ _______ _______ _____ _____    ______ ____
ROOT
ATOM      1  C   UNL     1      -0.104  -4.884   0.114  0.00  0.00    +0.136 C 
ATOM      2  C   UNL     1       1.320  -5.421   0.299  0.00  0.00    +0.129 C 
ATOM      3  C   UNL     1       1.185  -6.797   0.940  0.00  0.00    -0.035 C 
ATOM      4  C   UNL     1       1.819  -7.646   0.141  0.00  0.00    -0.001 A 
ATOM      5  C   UNL     1       2.088  -9.088   0.261  0.00  0.00    +0.010 A 
ATOM      6  C   UNL     1       2.769  -9.658  -0.768  0.00  0.00    +0.001 A 
ATOM      7  C   UNL     1       3.204  -8.947  -1.891  0.00  0.00    +0.002 A 
ATOM      8  C   UNL     1       3.003  -7.619  -2.082  0.00  0.00    +0.026 A 
ATOM      9  C   UNL     1       2.302  -6.908  -1.065  0.00  0.00    +0.043 A 
ATOM     10  N   UNL     1       1.996  -5.625  -0.983  0.00  0.00    -0.376 N 
ATOM     11  C   UNL     1       0.388  -7.029   2.200  0.00  0.00    +0.050 C 
ATOM     12  C   UNL     1      -0.993  -6.386   1.976  0.00  0.00    +0.114 C 
ATOM     13  N   UNL     1      -0.821  -5.054   1.387  0.00  0.00    -0.167 NA
ATOM     14  H   UNL     1       2.175  -4.939  -1.645  0.00  0.00    +0.160 HD
ENDROOT
BRANCH   1  19
ATOM     15  C   UNL     1       0.090   0.718  -1.291  0.00  0.00    +0.044 C 
ATOM     16  C   UNL     1       0.039  -0.743  -0.925  0.00  0.00    -0.050 A 
ATOM     17  C   UNL     1       1.065  -1.307  -0.190  0.00  0.00    +0.003 A 
ATOM     18  C   UNL     1       1.019  -2.647   0.147  0.00  0.00    +0.005 A 
ATOM     19  C   UNL     1      -0.054  -3.423  -0.252  0.00  0.00    -0.026 A 
ATOM     20  C   UNL     1      -1.080  -2.858  -0.986  0.00  0.00    +0.005 A 
ATOM     21  C   UNL     1      -1.036  -1.518  -1.319  0.00  0.00    +0.003 A 
ENDBRANCH   1  19
BRANCH  13  22
ATOM     22  S   UNL     1      -1.438  -3.728   2.165  0.00  0.00    +0.062 S 
ATOM     23  O   UNL     1      -1.489  -4.055   3.547  0.00  0.00    -0.153 OA
ATOM     24  O   UNL     1      -0.724  -2.602   1.675  0.00  0.00    -0.153 OA
BRANCH  22  25
ATOM     25  C   UNL     1      -3.106  -3.540   1.629  0.00  0.00    +0.107 A 
ATOM     26  C   UNL     1      -3.413  -2.626   0.638  0.00  0.00    +0.032 A 
ATOM     27  C   UNL     1      -4.720  -2.475   0.217  0.00  0.00    +0.049 A 
ATOM     28  C   UNL     1      -5.725  -3.242   0.788  0.00  0.00    +0.138 A 
ATOM     29  C   UNL     1      -5.414  -4.160   1.782  0.00  0.00    +0.084 A 
ATOM     30  C   UNL     1      -4.104  -4.310   2.197  0.00  0.00    +0.052 A 
ATOM     31 CL   UNL     1      -6.668  -5.121   2.500  0.00  0.00    -0.080 Cl
BRANCH  28  32
ATOM     32  O   UNL     1      -7.012  -3.095   0.375  0.00  0.00    -0.494 OA
ATOM     33  C   UNL     1      -7.258  -2.133  -0.652  0.00  0.00    +0.277 C 
ENDBRANCH  28  32
ENDBRANCH  22  25
ENDBRANCH  13  22
TORSDOF 4
