REMARK  Name = ZINC04880836
REMARK  10 active torsions:
REMARK  status: ('A' for Active; 'I' for Inactive)
REMARK    1  A    between atoms: C_1  and  C_2
REMARK    2  A    between atoms: C_4  and  C_29
REMARK    3  A    between atoms: C_7  and  C_13
REMARK    4  A    between atoms: C_13  and  N_14
REMARK    5  A    between atoms: N_14  and  C_15
REMARK    6  A    between atoms: C_15  and  C_16
REMARK    7  A    between atoms: C_16  and  O_17
REMARK    8  A    between atoms: O_17  and  C_18
REMARK    9  A    between atoms: N_21  and  C_22
REMARK   10  A    between atoms: C_22  and  C_23
REMARK                            x       y       z     vdW  Elec       q    Type
REMARK                         _______ _______ _______ _____ _____    ______ ____
ROOT
ATOM      1  N   UNL     1      -5.559   3.865  -1.266  0.00  0.00    -0.279 N 
ATOM      2  C   UNL     1      -5.242   4.852  -2.127  0.00  0.00    +0.303 C 
ATOM      3  O   UNL     1      -4.445   5.710  -1.801  0.00  0.00    -0.253 OA
ATOM      4  N   UNL     1      -5.809   4.888  -3.349  0.00  0.00    -0.295 N 
ATOM      5  H   UNL     1      -6.445   4.203  -3.609  0.00  0.00    +0.151 HD
ENDROOT
BRANCH   1   6
ATOM      6  C   UNL     1      -4.943   3.825   0.063  0.00  0.00    +0.147 C 
BRANCH   6  13
ATOM      7  C   UNL     1       2.401   0.891  -0.454  0.00  0.00    +0.044 C 
ATOM      8  C   UNL     1       1.106   1.660  -0.379  0.00  0.00    -0.048 A 
ATOM      9  C   UNL     1       1.128   3.050  -0.468  0.00  0.00    +0.007 A 
ATOM     10  C   UNL     1      -0.024   3.772  -0.403  0.00  0.00    -0.041 A 
ATOM     11  C   UNL     1      -1.251   3.108  -0.244  0.00  0.00    +0.004 A 
ATOM     12  C   UNL     1      -2.465   3.819  -0.172  0.00  0.00    +0.018 A 
ATOM     13  C   UNL     1      -3.620   3.108  -0.018  0.00  0.00    +0.007 A 
ATOM     14  C   UNL     1      -3.575   1.716   0.065  0.00  0.00    +0.135 A 
ATOM     15  N   UNL     1      -2.442   1.058  -0.001  0.00  0.00    -0.235 NA
ATOM     16  C   UNL     1      -1.276   1.695  -0.158  0.00  0.00    +0.073 A 
ATOM     17  C   UNL     1      -0.065   0.984  -0.224  0.00  0.00    +0.031 A 
ATOM     18 CL   UNL     1      -5.056   0.832   0.262  0.00  0.00    -0.062 Cl
ATOM     19  C   UNL     1       0.017   5.276  -0.502  0.00  0.00    +0.044 C 
ENDBRANCH   6  13
ENDBRANCH   1   6
BRANCH   1  20
ATOM     20  C   UNL     1      -6.519   2.830  -1.658  0.00  0.00    +0.137 C 
BRANCH  20  21
ATOM     21  C   UNL     1      -7.942   3.328  -1.393  0.00  0.00    +0.178 C 
BRANCH  21  22
ATOM     22  O   UNL     1      -8.221   4.445  -2.240  0.00  0.00    -0.381 OA
ATOM     23  C   UNL     1      -9.531   4.989  -2.071  0.00  0.00    +0.194 C 
ENDBRANCH  21  22
ENDBRANCH  20  21
ENDBRANCH   1  20
BRANCH   4  24
ATOM     24  C   UNL     1      -5.465   5.961  -4.285  0.00  0.00    +0.141 C 
BRANCH  24  25
ATOM     25  C   UNL     1      -6.230   5.771  -5.569  0.00  0.00    -0.030 A 
ATOM     26  C   UNL     1      -5.683   5.023  -6.595  0.00  0.00    +0.005 A 
ATOM     27  C   UNL     1      -6.387   4.846  -7.772  0.00  0.00    +0.000 A 
ATOM     28  C   UNL     1      -7.633   5.425  -7.926  0.00  0.00    +0.000 A 
ATOM     29  C   UNL     1      -8.177   6.178  -6.902  0.00  0.00    +0.000 A 
ATOM     30  C   UNL     1      -7.475   6.351  -5.724  0.00  0.00    +0.005 A 
ENDBRANCH  24  25
ENDBRANCH   4  24
TORSDOF 7
