REMARK  Name = ZINC06193677
REMARK  12 active torsions:
REMARK  status: ('A' for Active; 'I' for Inactive)
REMARK    1  A    between atoms: C_1  and  C_2
REMARK    2  A    between atoms: C_2  and  N_62
REMARK    3  A    between atoms: C_3  and  C_4
REMARK    4  A    between atoms: C_3  and  N_62
REMARK    5  A    between atoms: C_10  and  C_12
REMARK    6  A    between atoms: C_10  and  C_25
REMARK    7  A    between atoms: C_10  and  N_62
REMARK    8  A    between atoms: C_18  and  C_24
REMARK    9  A    between atoms: N_29  and  C_30
REMARK   10  A    between atoms: C_30  and  C_31
REMARK   11  A    between atoms: C_30  and  C_32
REMARK   12  A    between atoms: C_30  and  C_33
REMARK                            x       y       z     vdW  Elec       q    Type
REMARK                         _______ _______ _______ _____ _____    ______ ____
ROOT
ATOM      1  C   UNL     1      -2.027   4.454  -0.502  0.00  0.00    +0.039 C 
ENDROOT
BRANCH   1   2
ATOM      2  C   UNL     1      -0.664   4.685  -1.103  0.00  0.00    +0.011 A 
ATOM      3  C   UNL     1      -0.013   3.664  -1.715  0.00  0.00    +0.017 A 
ATOM      4  C   UNL     1       1.306   3.924  -2.294  0.00  0.00    -0.001 A 
ATOM      5  C   UNL     1       2.022   2.913  -2.943  0.00  0.00    +0.010 A 
ATOM      6  C   UNL     1       3.254   3.186  -3.469  0.00  0.00    +0.001 A 
ATOM      7  C   UNL     1       3.800   4.458  -3.364  0.00  0.00    +0.005 A 
ATOM      8  C   UNL     1       3.112   5.469  -2.729  0.00  0.00    -0.026 A 
ATOM      9  C   UNL     1       1.857   5.215  -2.186  0.00  0.00    +0.052 A 
ATOM     10  N   UNL     1       1.146   6.207  -1.546  0.00  0.00    -0.322 N 
ATOM     11  H   UNL     1       1.539   7.124  -1.470  0.00  0.00    +0.169 HD
ATOM     12  C   UNL     1      -0.067   5.961  -1.022  0.00  0.00    +0.251 A 
ATOM     13  O   UNL     1      -0.667   6.863  -0.462  0.00  0.00    -0.268 OA
ATOM     14  C   UNL     1       3.718   6.845  -2.622  0.00  0.00    +0.046 C 
ENDBRANCH   1   2
BRANCH   1  15
ATOM     15  C   UNL     1      -1.949   4.612   0.994  0.00  0.00    +0.143 A 
ATOM     16  N   UNL     1      -1.701   5.717   1.653  0.00  0.00    -0.115 NA
ATOM     17  N   UNL     1      -1.722   5.444   2.912  0.00  0.00    -0.023 NA
ATOM     18  N   UNL     1      -1.969   4.191   3.073  0.00  0.00    -0.043 NA
ATOM     19  N   UNL     1      -2.115   3.643   1.914  0.00  0.00    -0.225 N 
BRANCH  19  20
ATOM     20  C   UNL     1      -2.408   2.232   1.650  0.00  0.00    +0.059 C 
ATOM     21  C   UNL     1      -1.298   1.635   0.782  0.00  0.00    +0.036 C 
ATOM     22  C   UNL     1      -2.485   1.470   2.974  0.00  0.00    +0.036 C 
ATOM     23  C   UNL     1      -3.746   2.118   0.916  0.00  0.00    +0.036 C 
ENDBRANCH  19  20
ENDBRANCH   1  15
BRANCH   1  24
ATOM     24  N   UNL     1      -2.969   5.458  -1.039  0.00  0.00    +0.392 N 
ATOM     25  H   UNL     1      -2.731   6.379  -0.652  0.00  0.00    -0.080 HD
BRANCH  24  27
ATOM     26  C   UNL     1      -4.563   5.528   0.813  0.00  0.00    -0.017 C 
ATOM     27  C   UNL     1      -4.352   5.114  -0.644  0.00  0.00    -0.080 C 
ENDBRANCH  24  27
BRANCH  24  28
ATOM     28  C   UNL     1      -2.863   5.514  -2.512  0.00  0.00    -0.042 C 
BRANCH  28  29
ATOM     29  C   UNL     1      -3.535   6.772  -2.998  0.00  0.00    -0.064 A 
ATOM     30  C   UNL     1      -4.839   6.727  -3.454  0.00  0.00    +0.002 A 
ATOM     31  C   UNL     1      -5.458   7.882  -3.895  0.00  0.00    +0.000 A 
ATOM     32  C   UNL     1      -4.769   9.080  -3.889  0.00  0.00    +0.000 A 
ATOM     33  C   UNL     1      -3.463   9.124  -3.438  0.00  0.00    +0.000 A 
ATOM     34  C   UNL     1      -2.846   7.971  -2.992  0.00  0.00    +0.002 A 
ENDBRANCH  28  29
ENDBRANCH  24  28
ENDBRANCH   1  24
TORSDOF 7
