REMARK  Name = ZINC02576500
REMARK  1 active torsions:
REMARK  status: ('A' for Active; 'I' for Inactive)
REMARK    1  A    between atoms: C_2  and  C_15
REMARK                            x       y       z     vdW  Elec       q    Type
REMARK                         _______ _______ _______ _____ _____    ______ ____
ROOT
ATOM      1  C   UNL     1      -1.315   1.000   2.096  0.00  0.00    +0.083 A 
ATOM      2  C   UNL     1      -0.722   1.881   1.250  0.00  0.00    +0.073 A 
ATOM      3  C   UNL     1      -0.783   3.263   1.547  0.00  0.00    +0.066 A 
ATOM      4  C   UNL     1      -1.448   3.697   2.714  0.00  0.00    +0.148 A 
ATOM      5  N   UNL     1      -2.030   2.775   3.547  0.00  0.00    -0.307 N 
ATOM      6  H   UNL     1      -2.488   3.071   4.349  0.00  0.00    +0.170 HD
ATOM      7  C   UNL     1      -1.968   1.461   3.257  0.00  0.00    +0.251 A 
ATOM      8  O   UNL     1      -2.491   0.657   4.010  0.00  0.00    -0.268 OA
ATOM      9  N   UNL     1      -1.496   4.997   2.977  0.00  0.00    -0.197 NA
ATOM     10  C   UNL     1      -0.928   5.869   2.158  0.00  0.00    +0.216 A 
ATOM     11  N   UNL     1      -0.293   5.499   1.052  0.00  0.00    -0.202 NA
ATOM     12  C   UNL     1      -0.197   4.225   0.711  0.00  0.00    +0.144 A 
ATOM     13 CL   UNL     1       0.636   3.753  -0.737  0.00  0.00    -0.061 Cl
ATOM     14  N   UNL     1      -0.998   7.213   2.466  0.00  0.00    -0.327 N 
ATOM     15  H   UNL     1      -0.587   7.867   1.878  0.00  0.00    +0.145 HD
ATOM     16  H   UNL     1      -1.457   7.503   3.269  0.00  0.00    +0.145 HD
ENDROOT
BRANCH   2  17
ATOM     17  C   UNL     1      -0.017   1.395   0.010  0.00  0.00    +0.418 C 
ATOM     18  F   UNL     1      -0.097  -0.000  -0.056  0.00  0.00    -0.166 F 
ATOM     19  F   UNL     1       1.326   1.783   0.055  0.00  0.00    -0.166 F 
ATOM     20  F   UNL     1      -0.625   1.950  -1.121  0.00  0.00    -0.166 F 
ENDBRANCH   2  17
TORSDOF 1
