REMARK  Name = ZINC33530360
REMARK  15 active torsions:
REMARK  status: ('A' for Active; 'I' for Inactive)
REMARK    1  A    between atoms: C_1  and  C_2
REMARK    2  A    between atoms: C_2  and  C_3
REMARK    3  A    between atoms: C_3  and  C_4
REMARK    4  A    between atoms: C_4  and  O_5
REMARK    5  A    between atoms: O_5  and  C_6
REMARK    6  A    between atoms: C_9  and  C_15
REMARK    7  A    between atoms: C_11  and  O_12
REMARK    8  A    between atoms: O_12  and  C_13
REMARK    9  A    between atoms: C_13  and  C_14
REMARK   10  A    between atoms: C_17  and  C_27
REMARK   11  A    between atoms: N_21  and  C_22
REMARK   12  A    between atoms: C_22  and  C_23
REMARK   13  A    between atoms: C_23  and  O_24
REMARK   14  A    between atoms: O_24  and  C_25
REMARK   15  A    between atoms: C_27  and  C_29
REMARK                            x       y       z     vdW  Elec       q    Type
REMARK                         _______ _______ _______ _____ _____    ______ ____
ROOT
ATOM      1  C   UNL     1      -1.458   3.396   0.010  0.00  0.00    +0.145 C 
ATOM      2  C   UNL     1      -1.637   4.498  -1.009  0.00  0.00    +0.079 C 
ATOM      3  C   UNL     1      -0.867   4.175  -2.073  0.00  0.00    +0.249 C 
ATOM      4  C   UNL     1      -0.170   2.902  -1.800  0.00  0.00    +0.288 C 
ATOM      5  O   UNL     1       0.598   2.350  -2.563  0.00  0.00    -0.266 OA
ATOM      6  N   UNL     1      -0.515   2.440  -0.584  0.00  0.00    -0.281 N 
ATOM      7  O   UNL     1      -0.750   4.905  -3.207  0.00  0.00    -0.282 OA
ENDROOT
BRANCH   1  11
ATOM      8  C   UNL     1       0.151   4.990   3.638  0.00  0.00    +0.162 A 
ATOM      9  C   UNL     1      -1.016   4.242   3.663  0.00  0.00    +0.050 A 
ATOM     10  C   UNL     1      -1.536   3.733   2.488  0.00  0.00    +0.009 A 
ATOM     11  C   UNL     1      -0.889   3.959   1.287  0.00  0.00    -0.019 A 
ATOM     12  C   UNL     1       0.275   4.704   1.255  0.00  0.00    +0.055 A 
ATOM     13  C   UNL     1       0.799   5.221   2.428  0.00  0.00    +0.162 A 
BRANCH   8  14
ATOM     14  O   UNL     1       0.661   5.497   4.792  0.00  0.00    -0.488 OA
BRANCH  14  15
ATOM     15  C   UNL     1      -0.058   5.219   5.996  0.00  0.00    +0.229 C 
BRANCH  15  16
ATOM     16  C   UNL     1       0.662   5.865   7.181  0.00  0.00    +0.041 C 
BRANCH  16  18
ATOM     17  C   UNL     1       0.613   6.215   9.654  0.00  0.00    +0.004 C 
ATOM     18  C   UNL     1      -0.107   5.568   8.469  0.00  0.00    -0.000 C 
ENDBRANCH  16  18
ENDBRANCH  15  16
ENDBRANCH  14  15
ENDBRANCH   8  14
BRANCH  13  19
ATOM     19  O   UNL     1       1.944   5.955   2.398  0.00  0.00    -0.489 OA
BRANCH  19  20
ATOM     20  C   UNL     1       2.617   6.055   1.142  0.00  0.00    +0.226 C 
ATOM     21  C   UNL     1       3.935   6.809   1.328  0.00  0.00    +0.048 C 
ENDBRANCH  19  20
ENDBRANCH  13  19
ENDBRANCH   1  11
BRANCH   2  22
ATOM     22  C   UNL     1      -2.488   5.686  -0.872  0.00  0.00    +0.230 C 
ATOM     23  O   UNL     1      -2.450   6.562  -1.718  0.00  0.00    -0.283 OA
BRANCH  22  24
ATOM     24  C   UNL     1      -3.387   5.815   0.278  0.00  0.00    +0.175 A 
ATOM     25  C   UNL     1      -4.135   6.927   0.603  0.00  0.00    +0.053 A 
ATOM     26  C   UNL     1      -4.843   6.604   1.770  0.00  0.00    +0.042 A 
ATOM     27  C   UNL     1      -4.501   5.340   2.108  0.00  0.00    +0.196 A 
ATOM     28  O   UNL     1      -3.627   4.869   1.210  0.00  0.00    -0.460 OA
ENDBRANCH  22  24
ENDBRANCH   2  22
BRANCH   6  29
ATOM     29  C   UNL     1      -0.036   1.203   0.037  0.00  0.00    +0.137 C 
BRANCH  29  30
ATOM     30  C   UNL     1      -0.971   0.051  -0.334  0.00  0.00    +0.178 C 
BRANCH  30  31
ATOM     31  O   UNL     1      -0.904  -0.183  -1.742  0.00  0.00    -0.381 OA
ATOM     32  C   UNL     1      -1.745  -1.246  -2.196  0.00  0.00    +0.194 C 
ENDBRANCH  30  31
ENDBRANCH  29  30
ENDBRANCH   6  29
TORSDOF 12
