REMARK  Name = ZINC14994791
REMARK  5 active torsions:
REMARK  status: ('A' for Active; 'I' for Inactive)
REMARK    1  A    between atoms: C_1  and  C_2
REMARK    2  A    between atoms: C_5  and  C_11
REMARK    3  A    between atoms: C_11  and  C_12
REMARK    4  A    between atoms: C_25  and  C_26
REMARK    5  A    between atoms: C_25  and  N_63
REMARK                            x       y       z     vdW  Elec       q    Type
REMARK                         _______ _______ _______ _____ _____    ______ ____
ROOT
ATOM      1  C   UNL     1      -1.428   5.881   0.026  0.00  0.00    +0.218 C 
ATOM      2  O   UNL     1      -1.879   5.445   1.064  0.00  0.00    -0.276 OA
ATOM      3  N   UNL     1      -1.851   7.071  -0.446  0.00  0.00    -0.298 N 
ATOM      4  C   UNL     1      -1.315   7.614  -1.701  0.00  0.00    +0.108 C 
ATOM      5  C   UNL     1      -2.483   7.948  -2.634  0.00  0.00    +0.019 C 
ATOM      6  C   UNL     1      -3.458   8.880  -1.911  0.00  0.00    +0.005 C 
ATOM      7  C   UNL     1      -4.011   8.179  -0.670  0.00  0.00    -0.007 C 
ATOM      8  C   UNL     1      -2.865   7.849   0.282  0.00  0.00    +0.076 C 
ATOM      9  C   UNL     1      -2.214   9.146   0.769  0.00  0.00    +0.004 C 
ATOM     10  C   UNL     1      -3.275  10.020   1.440  0.00  0.00    -0.077 C 
ATOM     11  C   UNL     1      -5.015   9.091   0.035  0.00  0.00    -0.073 C 
ATOM     12  N   UNL     1      -4.330  10.332   0.453  0.00  0.00    +0.383 N 
ATOM     13  H   UNL     1      -3.898  10.768  -0.371  0.00  0.00    -0.081 HD
ENDROOT
BRANCH   1  14
ATOM     14  C   UNL     1      -0.393   5.094  -0.736  0.00  0.00    +0.118 C 
BRANCH  14  18
ATOM     15  C   UNL     1       1.722   1.931   1.438  0.00  0.00    +0.028 C 
ATOM     16  C   UNL     1       1.255   1.700  -0.001  0.00  0.00    +0.071 C 
ATOM     17  C   UNL     1       1.049   3.050  -0.695  0.00  0.00    +0.044 C 
ATOM     18  C   UNL     1      -0.091   3.793   0.010  0.00  0.00    +0.082 C 
ATOM     19  N   UNL     1      -1.284   2.945   0.018  0.00  0.00    -0.323 N 
ATOM     20  C   UNL     1      -1.189   1.607   0.017  0.00  0.00    +0.131 C 
ATOM     21  S   UNL     1      -2.629   0.681   0.033  0.00  0.00    -0.019 S 
ATOM     22  N   UNL     1      -0.011   0.966   0.007  0.00  0.00    -0.324 N 
ATOM     23  H   UNL     1      -2.161   3.359   0.020  0.00  0.00    +0.148 HD
ATOM     24  H   UNL     1       0.002  -0.004   0.002  0.00  0.00    +0.148 HD
ENDBRANCH  14  18
ENDBRANCH   1  14
BRANCH  12  25
ATOM     25  C   UNL     1      -5.307  11.275   1.038  0.00  0.00    -0.036 C 
BRANCH  25  26
ATOM     26  C   UNL     1      -4.565  12.408   1.698  0.00  0.00    -0.026 A 
ATOM     27  C   UNL     1      -4.154  13.562   1.151  0.00  0.00    +0.017 A 
ATOM     28  C   UNL     1      -3.451  14.531   1.977  0.00  0.00    -0.011 A 
ATOM     29  C   UNL     1      -2.938  15.799   1.613  0.00  0.00    +0.009 A 
ATOM     30  C   UNL     1      -2.297  16.578   2.525  0.00  0.00    +0.001 A 
ATOM     31  C   UNL     1      -2.120  16.162   3.838  0.00  0.00    +0.001 A 
ATOM     32  C   UNL     1      -2.605  14.931   4.233  0.00  0.00    +0.015 A 
ATOM     33  C   UNL     1      -3.258  14.133   3.318  0.00  0.00    +0.020 A 
ATOM     34  S   UNL     1      -4.017  12.531   3.390  0.00  0.00    -0.095 S 
ENDBRANCH  25  26
ENDBRANCH  12  25
TORSDOF 4
