REMARK  Name = ZINC43560149
REMARK  6 active torsions:
REMARK  status: ('A' for Active; 'I' for Inactive)
REMARK    1  A    between atoms: C_1  and  C_2
REMARK    2  A    between atoms: C_7  and  C_8
REMARK    3  A    between atoms: C_8  and  C_9
REMARK    4  A    between atoms: C_11  and  C_14
REMARK    5  A    between atoms: C_14  and  N_22
REMARK    6  A    between atoms: C_18  and  C_21
REMARK                            x       y       z     vdW  Elec       q    Type
REMARK                         _______ _______ _______ _____ _____    ______ ____
ROOT
ATOM      1  C   UNL     1      -1.845   0.070   3.714  0.00  0.00    +0.176 A 
ATOM      2  N   UNL     1      -2.738   1.041   3.933  0.00  0.00    -0.197 NA
ATOM      3  C   UNL     1      -3.254   1.438   2.803  0.00  0.00    +0.216 A 
ATOM      4  O   UNL     1      -2.699   0.725   1.815  0.00  0.00    -0.340 OA
ATOM      5  N   UNL     1      -1.776  -0.159   2.434  0.00  0.00    -0.061 NA
ENDROOT
BRANCH   3   6
ATOM      6  C   UNL     1      -4.295   2.515   2.638  0.00  0.00    +0.010 C 
ATOM      7  C   UNL     1      -4.706   2.605   1.167  0.00  0.00    -0.004 C 
ATOM      8  C   UNL     1      -5.285   1.263   0.716  0.00  0.00    -0.001 C 
ATOM      9  C   UNL     1      -6.510   0.923   1.568  0.00  0.00    +0.003 C 
ATOM     10  C   UNL     1      -6.098   0.833   3.039  0.00  0.00    -0.015 C 
ATOM     11  C   UNL     1      -5.519   2.176   3.490  0.00  0.00    -0.001 C 
ATOM     12  C   UNL     1      -5.041  -0.260   3.207  0.00  0.00    +0.007 C 
BRANCH   6  13
ATOM     13  N   UNL     1      -3.739   3.804   3.071  0.00  0.00    +0.388 N 
ATOM     14  H   UNL     1      -2.932   4.028   2.509  0.00  0.00    -0.089 HD
ATOM     15  H   UNL     1      -4.436   4.525   2.960  0.00  0.00    -0.089 HD
ATOM     16  H   UNL     1      -3.468   3.745   4.041  0.00  0.00    -0.089 HD
ENDBRANCH   6  13
ENDBRANCH   3   6
BRANCH   1  17
ATOM     17  C   UNL     1      -1.043  -0.639   4.775  0.00  0.00    +0.115 C 
BRANCH  17  24
ATOM     18  C   UNL     1      -0.970   1.596   6.605  0.00  0.00    +0.044 C 
ATOM     19  C   UNL     1       0.283   1.172   5.883  0.00  0.00    -0.047 A 
ATOM     20  C   UNL     1       1.469   1.848   6.101  0.00  0.00    +0.003 A 
ATOM     21  C   UNL     1       2.619   1.459   5.440  0.00  0.00    +0.000 A 
ATOM     22  C   UNL     1       2.582   0.393   4.560  0.00  0.00    +0.000 A 
ATOM     23  C   UNL     1       1.397  -0.284   4.343  0.00  0.00    +0.004 A 
ATOM     24  C   UNL     1       0.248   0.103   5.008  0.00  0.00    -0.037 A 
ENDBRANCH  17  24
ENDBRANCH   1  17
TORSDOF 4
