REMARK  Name = ZINC40094944
REMARK  13 active torsions:
REMARK  status: ('A' for Active; 'I' for Inactive)
REMARK    1  A    between atoms: C_1  and  C_2
REMARK    2  A    between atoms: C_7  and  C_12
REMARK    3  A    between atoms: C_12  and  C_14
REMARK    4  A    between atoms: N_18  and  C_30
REMARK    5  A    between atoms: C_19  and  C_21
REMARK    6  A    between atoms: C_24  and  O_29
REMARK    7  A    between atoms: C_25  and  O_27
REMARK    8  A    between atoms: O_27  and  C_28
REMARK    9  A    between atoms: C_30  and  C_31
REMARK   10  A    between atoms: C_31  and  O_32
REMARK   11  A    between atoms: O_32  and  C_33
REMARK   12  A    between atoms: C_33  and  C_34
REMARK   13  A    between atoms: C_34  and  O_35
REMARK                            x       y       z     vdW  Elec       q    Type
REMARK                         _______ _______ _______ _____ _____    ______ ____
ROOT
ATOM      1  C   UNL     1      -2.384  -6.239   4.365  0.00  0.00    +0.076 C 
ATOM      2  C   UNL     1      -3.056  -7.387   4.612  0.00  0.00    +0.249 C 
ATOM      3  C   UNL     1      -2.087  -8.465   4.902  0.00  0.00    +0.288 C 
ATOM      4  O   UNL     1      -2.381  -9.615   5.163  0.00  0.00    -0.266 OA
ATOM      5  N   UNL     1      -0.832  -7.985   4.834  0.00  0.00    -0.281 N 
ATOM      6  C   UNL     1      -0.912  -6.561   4.487  0.00  0.00    +0.145 C 
ATOM      7  O   UNL     1      -4.402  -7.526   4.596  0.00  0.00    -0.282 OA
ENDROOT
BRANCH   6   8
ATOM      8  C   UNL     1      -0.214  -6.303   3.177  0.00  0.00    -0.019 A 
ATOM      9  C   UNL     1       0.720  -5.288   3.081  0.00  0.00    +0.009 A 
ATOM     10  C   UNL     1       1.363  -5.048   1.881  0.00  0.00    +0.049 A 
ATOM     11  C   UNL     1       1.071  -5.825   0.771  0.00  0.00    +0.158 A 
ATOM     12  C   UNL     1       0.132  -6.846   0.868  0.00  0.00    +0.162 A 
ATOM     13  C   UNL     1      -0.506  -7.085   2.075  0.00  0.00    +0.055 A 
BRANCH  12  14
ATOM     14  O   UNL     1      -0.158  -7.612  -0.218  0.00  0.00    -0.491 OA
ATOM     15  C   UNL     1      -1.206  -8.572  -0.075  0.00  0.00    +0.277 C 
ENDBRANCH  12  14
BRANCH  11  16
ATOM     16  O   UNL     1       1.703  -5.589  -0.410  0.00  0.00    -0.503 OA
ATOM     17  H   UNL     1       2.482  -6.142  -0.557  0.00  0.00    +0.292 HD
ENDBRANCH  11  16
ENDBRANCH   6   8
BRANCH   1  18
ATOM     18  C   UNL     1      -2.969  -4.936   4.036  0.00  0.00    +0.195 C 
ATOM     19  O   UNL     1      -3.626  -4.803   3.019  0.00  0.00    -0.287 OA
BRANCH  18  25
ATOM     20  C   UNL     1      -3.253   1.801   7.098  0.00  0.00    +0.052 C 
ATOM     21  C   UNL     1      -2.513   0.651   6.412  0.00  0.00    +0.175 C 
ATOM     22  C   UNL     1      -3.388   0.018   5.305  0.00  0.00    +0.083 C 
ATOM     23  C   UNL     1      -3.023  -1.450   5.418  0.00  0.00    -0.002 A 
ATOM     24  C   UNL     1      -3.220  -2.514   4.573  0.00  0.00    +0.019 A 
ATOM     25  C   UNL     1      -2.763  -3.785   4.937  0.00  0.00    +0.023 A 
ATOM     26  C   UNL     1      -2.109  -3.957   6.161  0.00  0.00    +0.015 A 
ATOM     27  C   UNL     1      -1.921  -2.885   7.000  0.00  0.00    +0.046 A 
ATOM     28  C   UNL     1      -2.380  -1.616   6.641  0.00  0.00    +0.124 A 
ATOM     29  O   UNL     1      -2.309  -0.440   7.326  0.00  0.00    -0.488 OA
ENDBRANCH  18  25
ENDBRANCH   1  18
BRANCH   5  30
ATOM     30  C   UNL     1       0.397  -8.749   5.060  0.00  0.00    +0.137 C 
BRANCH  30  31
ATOM     31  C   UNL     1       0.803  -9.456   3.765  0.00  0.00    +0.179 C 
BRANCH  31  32
ATOM     32  O   UNL     1       1.724  -8.635   3.043  0.00  0.00    -0.376 OA
BRANCH  32  33
ATOM     33  C   UNL     1       2.275  -9.261   1.883  0.00  0.00    +0.187 C 
BRANCH  33  34
ATOM     34  C   UNL     1       3.362  -8.365   1.287  0.00  0.00    +0.184 C 
BRANCH  34  35
ATOM     35  O   UNL     1       4.496  -8.350   2.156  0.00  0.00    -0.393 OA
ATOM     36  H   UNL     1       5.254  -7.862   1.805  0.00  0.00    +0.209 HD
ENDBRANCH  34  35
ENDBRANCH  33  34
ENDBRANCH  32  33
ENDBRANCH  31  32
ENDBRANCH  30  31
ENDBRANCH   5  30
TORSDOF 11
