REMARK  Name = ZINC13065285
REMARK  12 active torsions:
REMARK  status: ('A' for Active; 'I' for Inactive)
REMARK    1  A    between atoms: C_1  and  C_2
REMARK    2  A    between atoms: C_2  and  C_3
REMARK    3  A    between atoms: C_3  and  C_5
REMARK    4  A    between atoms: C_3  and  N_72
REMARK    5  A    between atoms: N_9  and  C_10
REMARK    6  A    between atoms: C_10  and  C_11
REMARK    7  A    between atoms: C_11  and  C_12
REMARK    8  A    between atoms: C_18  and  C_19
REMARK    9  A    between atoms: C_18  and  N_72
REMARK   10  A    between atoms: C_22  and  C_32
REMARK   11  A    between atoms: C_25  and  C_31
REMARK   12  A    between atoms: C_33  and  N_72
REMARK                            x       y       z     vdW  Elec       q    Type
REMARK                         _______ _______ _______ _____ _____    ______ ____
ROOT
ATOM      1  N   UNL     1      -0.614   2.218  -1.119  0.00  0.00    +0.391 N 
ATOM      2  H   UNL     1      -1.548   1.843  -0.915  0.00  0.00    -0.080 HD
ENDROOT
BRANCH   1   3
ATOM      3  C   UNL     1      -0.216   1.805  -2.481  0.00  0.00    -0.067 C 
ATOM      4  C   UNL     1       1.254   2.176  -2.766  0.00  0.00    -0.015 C 
ATOM      5  C   UNL     1       1.256   2.599  -4.257  0.00  0.00    -0.002 C 
ATOM      6  C   UNL     1      -0.088   3.356  -4.400  0.00  0.00    -0.002 C 
ATOM      7  C   UNL     1      -1.069   2.555  -3.519  0.00  0.00    -0.015 C 
ENDBRANCH   1   3
BRANCH   1   8
ATOM      8  C   UNL     1       0.344   1.684  -0.128  0.00  0.00    +0.003 C 
BRANCH   8   9
ATOM      9  C   UNL     1       0.772   0.300  -0.545  0.00  0.00    +0.138 A 
ATOM     10  N   UNL     1      -0.004  -0.657  -0.992  0.00  0.00    -0.115 NA
ATOM     11  N   UNL     1       0.733  -1.684  -1.239  0.00  0.00    -0.023 NA
ATOM     12  N   UNL     1       1.960  -1.407  -0.961  0.00  0.00    -0.044 NA
ATOM     13  N   UNL     1       2.025  -0.191  -0.535  0.00  0.00    -0.231 N 
BRANCH  13  14
ATOM     14  C   UNL     1       3.235   0.520  -0.117  0.00  0.00    +0.152 C 
BRANCH  14  15
ATOM     15  C   UNL     1       3.463   0.301   1.381  0.00  0.00    +0.058 C 
BRANCH  15  16
ATOM     16  C   UNL     1       4.708   1.033   1.811  0.00  0.00    -0.046 A 
ATOM     17  C   UNL     1       5.934   0.395   1.772  0.00  0.00    +0.004 A 
ATOM     18  C   UNL     1       7.076   1.068   2.162  0.00  0.00    +0.000 A 
ATOM     19  C   UNL     1       6.992   2.376   2.602  0.00  0.00    +0.000 A 
ATOM     20  C   UNL     1       5.766   3.012   2.646  0.00  0.00    +0.000 A 
ATOM     21  C   UNL     1       4.624   2.341   2.251  0.00  0.00    +0.004 A 
ENDBRANCH  15  16
ENDBRANCH  14  15
ENDBRANCH  13  14
ENDBRANCH   8   9
BRANCH   8  23
ATOM     22  C   UNL     1      -1.483   0.592   1.179  0.00  0.00    +0.002 C 
ATOM     23  C   UNL     1      -0.347   1.616   1.234  0.00  0.00    -0.011 C 
ENDBRANCH   8  23
ENDBRANCH   1   8
BRANCH   1  24
ATOM     24  C   UNL     1      -0.661   3.693  -1.031  0.00  0.00    -0.036 C 
BRANCH  24  25
ATOM     25  C   UNL     1       0.730   4.258  -0.900  0.00  0.00    +0.001 A 
ATOM     26  C   UNL     1       1.348   4.790  -1.984  0.00  0.00    +0.017 A 
ATOM     27  C   UNL     1       2.699   5.330  -1.823  0.00  0.00    +0.002 A 
ATOM     28  C   UNL     1       3.387   5.892  -2.904  0.00  0.00    -0.041 A 
ATOM     29  C   UNL     1       4.647   6.387  -2.722  0.00  0.00    +0.004 A 
ATOM     30  C   UNL     1       5.251   6.339  -1.472  0.00  0.00    +0.005 A 
ATOM     31  C   UNL     1       4.592   5.791  -0.393  0.00  0.00    -0.026 A 
ATOM     32  C   UNL     1       3.308   5.280  -0.555  0.00  0.00    +0.052 A 
ATOM     33  N   UNL     1       2.626   4.726   0.507  0.00  0.00    -0.322 N 
ATOM     34  H   UNL     1       3.046   4.692   1.380  0.00  0.00    +0.169 HD
ATOM     35  C   UNL     1       1.383   4.237   0.351  0.00  0.00    +0.251 A 
ATOM     36  O   UNL     1       0.807   3.759   1.313  0.00  0.00    -0.268 OA
ATOM     37  C   UNL     1       5.259   5.745   0.957  0.00  0.00    +0.046 C 
ATOM     38  C   UNL     1       2.741   5.949  -4.265  0.00  0.00    +0.044 C 
ENDBRANCH  24  25
ENDBRANCH   1  24
TORSDOF 9
