REMARK  Name = ZINC00708866
REMARK  5 active torsions:
REMARK  status: ('A' for Active; 'I' for Inactive)
REMARK    1  A    between atoms: C_4  and  C_7
REMARK    2  A    between atoms: C_7  and  N_8
REMARK    3  A    between atoms: N_11  and  C_14
REMARK    4  A    between atoms: C_14  and  N_15
REMARK    5  A    between atoms: N_25  and  C_30
REMARK                            x       y       z     vdW  Elec       q    Type
REMARK                         _______ _______ _______ _____ _____    ______ ____
ROOT
ATOM      1  N   UNL     1       1.386  -0.393  -0.321  0.00  0.00    -0.255 N 
ATOM      2  C   UNL     1       1.757   0.933  -0.083  0.00  0.00    +0.044 A 
ATOM      3  C   UNL     1       0.987   2.090   0.009  0.00  0.00    +0.024 A 
ATOM      4  C   UNL     1       1.589   3.307   0.254  0.00  0.00    +0.002 A 
ATOM      5  C   UNL     1       2.960   3.389   0.410  0.00  0.00    +0.000 A 
ATOM      6  C   UNL     1       3.733   2.245   0.320  0.00  0.00    +0.009 A 
ATOM      7  C   UNL     1       3.138   1.027   0.077  0.00  0.00    +0.017 A 
ATOM      8  C   UNL     1       3.655  -0.370  -0.074  0.00  0.00    +0.193 C 
ATOM      9  C   UNL     1       2.450  -1.223  -0.332  0.00  0.00    +0.260 C 
ATOM     10  O   UNL     1       2.434  -2.422  -0.515  0.00  0.00    -0.271 OA
ATOM     11  N   UNL     1       4.451  -0.822   1.062  0.00  0.00    -0.243 N 
ATOM     12  C   UNL     1       5.611  -1.434   0.831  0.00  0.00    +0.231 C 
ATOM     13  O   UNL     1       6.313  -1.818   1.742  0.00  0.00    -0.274 OA
ATOM     14  C   UNL     1       6.022  -1.633  -0.621  0.00  0.00    +0.168 C 
ATOM     15  S   UNL     1       4.847  -0.483  -1.464  0.00  0.00    -0.111 S 
ENDROOT
BRANCH  11  16
ATOM     16  C   UNL     1       4.003  -0.615   2.372  0.00  0.00    +0.039 A 
ATOM     17  C   UNL     1       3.112  -1.509   2.952  0.00  0.00    +0.024 A 
ATOM     18  C   UNL     1       2.677  -1.306   4.247  0.00  0.00    +0.017 A 
ATOM     19  C   UNL     1       3.118  -0.207   4.962  0.00  0.00    +0.018 A 
ATOM     20  C   UNL     1       4.001   0.688   4.385  0.00  0.00    +0.017 A 
ATOM     21  C   UNL     1       4.444   0.487   3.093  0.00  0.00    +0.024 A 
ATOM     22 BR   UNL     1       2.513   0.071   6.732  0.00  0.00    -0.050 Br
ENDBRANCH  11  16
BRANCH   1  23
ATOM     23  C   UNL     1       0.005  -0.831  -0.534  0.00  0.00    +0.200 C 
BRANCH  23  27
ATOM     24  N   UNL     1      -1.983  -0.309  -4.225  0.00  0.00    +0.384 N 
ATOM     25  C   UNL     1      -1.636  -1.678  -3.817  0.00  0.00    -0.063 C 
ATOM     26  C   UNL     1      -1.392  -1.710  -2.306  0.00  0.00    +0.067 C 
ATOM     27  N   UNL     1      -0.312  -0.773  -1.967  0.00  0.00    -0.290 NA
ATOM     28  C   UNL     1      -0.659   0.595  -2.376  0.00  0.00    +0.067 C 
ATOM     29  C   UNL     1      -0.903   0.628  -3.886  0.00  0.00    -0.063 C 
ATOM     30  H   UNL     1      -2.883  -0.007  -3.669  0.00  0.00    -0.081 HD
BRANCH  24  31
ATOM     31  C   UNL     1      -2.300  -0.252  -5.658  0.00  0.00    -0.043 C 
BRANCH  31  35
ATOM     32  C   UNL     1      -2.608   3.828  -6.886  0.00  0.00    +0.000 A 
ATOM     33  C   UNL     1      -1.389   3.179  -6.945  0.00  0.00    +0.000 A 
ATOM     34  C   UNL     1      -1.290   1.859  -6.548  0.00  0.00    +0.002 A 
ATOM     35  C   UNL     1      -2.409   1.187  -6.091  0.00  0.00    -0.064 A 
ATOM     36  C   UNL     1      -3.629   1.835  -6.038  0.00  0.00    +0.002 A 
ATOM     37  C   UNL     1      -3.728   3.157  -6.430  0.00  0.00    +0.000 A 
ENDBRANCH  31  35
ENDBRANCH  24  31
ENDBRANCH  23  27
ENDBRANCH   1  23
TORSDOF 5
