REMARK  Name = ZINC49410690
REMARK  7 active torsions:
REMARK  status: ('A' for Active; 'I' for Inactive)
REMARK    1  A    between atoms: C_1  and  C_2
REMARK    2  A    between atoms: C_4  and  C_32
REMARK    3  A    between atoms: C_6  and  N_8
REMARK    4  A    between atoms: C_11  and  C_31
REMARK    5  A    between atoms: N_17  and  C_19
REMARK    6  A    between atoms: C_19  and  C_20
REMARK    7  A    between atoms: N_22  and  C_23
REMARK                            x       y       z     vdW  Elec       q    Type
REMARK                         _______ _______ _______ _____ _____    ______ ____
ROOT
ATOM      1  N   UNL     1       0.096  -2.354   2.755  0.00  0.00    -0.285 N 
ATOM      2  C   UNL     1       0.167  -1.786   4.003  0.00  0.00    +0.210 A 
ATOM      3  N   UNL     1       0.126  -0.480   4.123  0.00  0.00    -0.220 NA
ATOM      4  C   UNL     1       0.190   0.129   5.313  0.00  0.00    +0.045 A 
ATOM      5  C   UNL     1       0.302  -0.593   6.456  0.00  0.00    +0.071 A 
ATOM      6  C   UNL     1       0.349  -2.009   6.365  0.00  0.00    +0.166 A 
ATOM      7  N   UNL     1       0.273  -2.593   5.109  0.00  0.00    -0.214 N 
ATOM      8  C   UNL     1       0.330  -3.929   5.263  0.00  0.00    +0.354 A 
ATOM      9  O   UNL     1       0.294  -4.756   4.370  0.00  0.00    -0.244 OA
ATOM     10  N   UNL     1       0.433  -4.189   6.584  0.00  0.00    -0.203 N 
ATOM     11  N   UNL     1       0.451  -2.959   7.258  0.00  0.00    -0.148 NA
ATOM     12  C   UNL     1       0.139   1.633   5.385  0.00  0.00    +0.066 C 
ATOM     13  H   UNL     1       0.043  -3.318   2.663  0.00  0.00    +0.155 HD
ENDROOT
BRANCH   1  19
ATOM     14  C   UNL     1      -1.414  -1.511  -1.847  0.00  0.00    +0.044 C 
ATOM     15  C   UNL     1      -0.623  -1.109  -0.629  0.00  0.00    -0.048 A 
ATOM     16  C   UNL     1       0.108   0.064  -0.637  0.00  0.00    +0.006 A 
ATOM     17  C   UNL     1       0.835   0.437   0.479  0.00  0.00    -0.048 A 
ATOM     18  C   UNL     1       0.834  -0.362   1.605  0.00  0.00    +0.026 A 
ATOM     19  C   UNL     1       0.100  -1.542   1.616  0.00  0.00    +0.034 A 
ATOM     20  C   UNL     1      -0.633  -1.911   0.496  0.00  0.00    +0.026 A 
ATOM     21  C   UNL     1       1.631   1.717   0.466  0.00  0.00    +0.044 C 
ENDBRANCH   1  19
BRANCH  10  22
ATOM     22  C   UNL     1       0.521  -5.515   7.200  0.00  0.00    +0.244 C 
BRANCH  22  23
ATOM     23  C   UNL     1       1.968  -5.922   7.310  0.00  0.00    +0.239 C 
ATOM     24  O   UNL     1       2.840  -5.178   6.912  0.00  0.00    -0.273 OA
ATOM     25  N   UNL     1       2.294  -7.113   7.849  0.00  0.00    -0.282 N 
ATOM     26  H   UNL     1       1.597  -7.740   8.097  0.00  0.00    +0.155 HD
BRANCH  25  27
ATOM     27  C   UNL     1       3.640  -7.446   8.053  0.00  0.00    +0.069 A 
ATOM     28  C   UNL     1       4.604  -6.448   8.094  0.00  0.00    +0.029 A 
ATOM     29  C   UNL     1       5.930  -6.778   8.295  0.00  0.00    +0.040 A 
ATOM     30  C   UNL     1       6.300  -8.103   8.455  0.00  0.00    +0.126 A 
ATOM     31  C   UNL     1       5.341  -9.101   8.414  0.00  0.00    +0.078 A 
ATOM     32  C   UNL     1       4.011  -8.775   8.219  0.00  0.00    +0.147 A 
ATOM     33  F   UNL     1       3.075  -9.748   8.185  0.00  0.00    -0.203 F 
ATOM     34  F   UNL     1       7.598  -8.422   8.651  0.00  0.00    -0.205 F 
ENDBRANCH  25  27
ENDBRANCH  22  23
ENDBRANCH  10  22
TORSDOF 4
