REMARK  Name = ZINC08429360
REMARK  6 active torsions:
REMARK  status: ('A' for Active; 'I' for Inactive)
REMARK    1  A    between atoms: C_1  and  C_2
REMARK    2  A    between atoms: C_2  and  C_20
REMARK    3  A    between atoms: N_5  and  N_9
REMARK    4  A    between atoms: N_12  and  C_13
REMARK    5  A    between atoms: C_20  and  C_21
REMARK    6  A    between atoms: C_21  and  C_22
REMARK                            x       y       z     vdW  Elec       q    Type
REMARK                         _______ _______ _______ _____ _____    ______ ____
ROOT
ATOM      1  C   UNL     1      -3.083  -3.299  -1.502  0.00  0.00    +0.041 C 
ATOM      2  C   UNL     1      -1.861  -3.927  -0.828  0.00  0.00    +0.112 C 
ATOM      3  C   UNL     1      -0.586  -3.264  -1.311  0.00  0.00    +0.263 C 
ATOM      4  O   UNL     1      -0.162  -3.231  -2.446  0.00  0.00    -0.271 OA
ATOM      5  N   UNL     1      -0.022  -2.718  -0.215  0.00  0.00    -0.136 N 
ATOM      6  C   UNL     1      -0.754  -2.945   0.882  0.00  0.00    +0.326 C 
ATOM      7  O   UNL     1      -0.447  -2.555   1.991  0.00  0.00    -0.251 OA
ATOM      8  N   UNL     1      -1.868  -3.651   0.619  0.00  0.00    -0.284 N 
ATOM      9  H   UNL     1      -2.543  -3.929   1.258  0.00  0.00    +0.151 HD
ENDROOT
BRANCH   5  10
ATOM     10  N   UNL     1       1.183  -2.005  -0.223  0.00  0.00    -0.207 N 
ATOM     11  C   UNL     1       1.173  -0.661  -0.114  0.00  0.00    +0.321 C 
ATOM     12  O   UNL     1       2.220  -0.043  -0.121  0.00  0.00    -0.251 OA
ATOM     13  N   UNL     1       0.002  -0.004   0.002  0.00  0.00    -0.266 N 
ATOM     14  H   UNL     1       2.026  -2.478  -0.307  0.00  0.00    +0.175 HD
ATOM     15  H   UNL     1      -0.827  -0.501   0.090  0.00  0.00    +0.157 HD
BRANCH  13  16
ATOM     16  C   UNL     1      -0.018   1.397  -0.004  0.00  0.00    +0.070 A 
ATOM     17  C   UNL     1       1.005   2.105  -0.618  0.00  0.00    +0.026 A 
ATOM     18  C   UNL     1       0.983   3.486  -0.622  0.00  0.00    +0.002 A 
ATOM     19  C   UNL     1      -0.058   4.165  -0.015  0.00  0.00    +0.003 A 
ATOM     20  C   UNL     1      -1.080   3.464   0.599  0.00  0.00    +0.040 A 
ATOM     21  C   UNL     1      -1.067   2.081   0.602  0.00  0.00    +0.145 A 
ATOM     22  F   UNL     1      -2.068   1.396   1.196  0.00  0.00    -0.204 F 
ENDBRANCH  13  16
ENDBRANCH   5  10
BRANCH   2  23
ATOM     23  C   UNL     1      -1.818  -5.433  -1.093  0.00  0.00    +0.040 C 
BRANCH  23  24
ATOM     24  C   UNL     1      -3.115  -6.076  -0.597  0.00  0.00    +0.038 C 
BRANCH  24  25
ATOM     25  C   UNL     1      -3.072  -7.559  -0.857  0.00  0.00    -0.047 A 
ATOM     26  C   UNL     1      -3.555  -8.066  -2.049  0.00  0.00    +0.003 A 
ATOM     27  C   UNL     1      -3.511  -9.427  -2.290  0.00  0.00    +0.000 A 
ATOM     28  C   UNL     1      -2.994 -10.281  -1.335  0.00  0.00    +0.000 A 
ATOM     29  C   UNL     1      -2.517  -9.775  -0.140  0.00  0.00    +0.000 A 
ATOM     30  C   UNL     1      -2.555  -8.414   0.098  0.00  0.00    +0.003 A 
ENDBRANCH  24  25
ENDBRANCH  23  24
ENDBRANCH   2  23
TORSDOF 5
