REMARK  Name = ZINC12328312
REMARK  12 active torsions:
REMARK  status: ('A' for Active; 'I' for Inactive)
REMARK    1  A    between atoms: C_1  and  C_2
REMARK    2  A    between atoms: C_4  and  C_30
REMARK    3  A    between atoms: N_5  and  C_7
REMARK    4  A    between atoms: C_7  and  C_8
REMARK    5  A    between atoms: C_10  and  C_16
REMARK    6  A    between atoms: C_13  and  O_14
REMARK    7  A    between atoms: O_14  and  C_15
REMARK    8  A    between atoms: C_16  and  N_63
REMARK    9  A    between atoms: C_17  and  C_22
REMARK   10  A    between atoms: C_17  and  N_63
REMARK   11  A    between atoms: C_25  and  O_28
REMARK   12  A    between atoms: O_28  and  C_29
REMARK                            x       y       z     vdW  Elec       q    Type
REMARK                         _______ _______ _______ _____ _____    ______ ____
ROOT
ATOM      1  C   UNL     1       1.380   0.074   6.192  0.00  0.00    -0.046 C 
ENDROOT
BRANCH   1   4
ATOM      2  C   UNL     1      -0.971   1.443   3.575  0.00  0.00    +0.016 A 
ATOM      3  C   UNL     1      -0.430   1.095   4.798  0.00  0.00    +0.010 A 
ATOM      4  C   UNL     1       0.793   0.452   4.857  0.00  0.00    -0.064 A 
ATOM      5  C   UNL     1       1.477   0.155   3.692  0.00  0.00    +0.005 A 
ATOM      6  C   UNL     1       0.938   0.496   2.467  0.00  0.00    +0.046 A 
ATOM      7  C   UNL     1      -0.286   1.147   2.406  0.00  0.00    +0.125 A 
BRANCH   7   8
ATOM      8  O   UNL     1      -0.816   1.488   1.202  0.00  0.00    -0.495 OA
ATOM      9  C   UNL     1      -0.056   1.151   0.039  0.00  0.00    +0.277 C 
ENDBRANCH   7   8
BRANCH   2  10
ATOM     10  C   UNL     1      -2.304   2.143   3.512  0.00  0.00    +0.182 C 
BRANCH  10  15
ATOM     11  C   UNL     1      -5.907  -1.221   4.455  0.00  0.00    +0.067 C 
ATOM     12  C   UNL     1      -4.938  -0.313   3.742  0.00  0.00    +0.060 A 
ATOM     13  C   UNL     1      -4.806  -0.182   2.356  0.00  0.00    +0.047 A 
ATOM     14  C   UNL     1      -3.836   0.731   2.115  0.00  0.00    +0.037 A 
ATOM     15  N   UNL     1      -3.365   1.155   3.307  0.00  0.00    -0.264 N 
ATOM     16  N   UNL     1      -4.075   0.487   4.313  0.00  0.00    -0.176 NA
ATOM     17  C   UNL     1      -3.365   1.190   0.759  0.00  0.00    +0.065 C 
ENDBRANCH  10  15
ENDBRANCH   2  10
ENDBRANCH   1   4
BRANCH   1  18
ATOM     18  N   UNL     1       0.922  -1.281   6.555  0.00  0.00    +0.388 N 
ATOM     19  H   UNL     1       1.162  -1.933   5.799  0.00  0.00    -0.084 HD
ATOM     20  H   UNL     1      -0.096  -1.270   6.688  0.00  0.00    -0.084 HD
BRANCH  18  21
ATOM     21  C   UNL     1       1.572  -1.723   7.803  0.00  0.00    -0.042 C 
ATOM     22  C   UNL     1       0.978  -3.076   8.247  0.00  0.00    -0.008 C 
ATOM     23  C   UNL     1       0.926  -2.979   9.792  0.00  0.00    -0.001 C 
ATOM     24  C   UNL     1       0.523  -1.503  10.029  0.00  0.00    -0.001 C 
ATOM     25  C   UNL     1       1.282  -0.723   8.937  0.00  0.00    -0.008 C 
BRANCH  21  26
ATOM     26  C   UNL     1       3.059  -1.854   7.598  0.00  0.00    -0.058 A 
ATOM     27  C   UNL     1       3.914  -1.793   8.683  0.00  0.00    +0.006 A 
ATOM     28  C   UNL     1       5.277  -1.918   8.497  0.00  0.00    +0.046 A 
ATOM     29  C   UNL     1       5.789  -2.093   7.220  0.00  0.00    +0.120 A 
ATOM     30  C   UNL     1       4.929  -2.149   6.132  0.00  0.00    +0.046 A 
ATOM     31  C   UNL     1       3.567  -2.029   6.324  0.00  0.00    +0.006 A 
BRANCH  29  32
ATOM     32  O   UNL     1       7.130  -2.212   7.034  0.00  0.00    -0.495 OA
ATOM     33  C   UNL     1       7.955  -2.146   8.199  0.00  0.00    +0.277 C 
ENDBRANCH  29  32
ENDBRANCH  21  26
ENDBRANCH  18  21
ENDBRANCH   1  18
TORSDOF 8
