REMARK  Name = ZINC06244886
REMARK  10 active torsions:
REMARK  status: ('A' for Active; 'I' for Inactive)
REMARK    1  A    between atoms: C_1  and  C_2
REMARK    2  A    between atoms: C_5  and  C_41
REMARK    3  A    between atoms: C_9  and  C_14
REMARK    4  A    between atoms: C_14  and  C_16
REMARK    5  A    between atoms: C_14  and  N_75
REMARK    6  A    between atoms: N_20  and  C_21
REMARK    7  A    between atoms: C_27  and  C_28
REMARK    8  A    between atoms: C_27  and  N_75
REMARK    9  A    between atoms: C_34  and  C_35
REMARK   10  A    between atoms: C_34  and  N_75
REMARK                            x       y       z     vdW  Elec       q    Type
REMARK                         _______ _______ _______ _____ _____    ______ ____
ROOT
ATOM      1  C   UNL     1       3.669  -2.084  -1.615  0.00  0.00    +0.040 C 
ENDROOT
BRANCH   1  10
ATOM      2  C   UNL     1       0.571  -3.564  -5.530  0.00  0.00    +0.044 C 
ATOM      3  C   UNL     1      -0.253  -2.701  -4.609  0.00  0.00    -0.041 A 
ATOM      4  C   UNL     1      -1.565  -2.449  -4.895  0.00  0.00    +0.004 A 
ATOM      5  C   UNL     1      -2.332  -1.655  -4.054  0.00  0.00    +0.005 A 
ATOM      6  C   UNL     1      -1.785  -1.105  -2.914  0.00  0.00    -0.026 A 
ATOM      7  C   UNL     1      -0.452  -1.347  -2.602  0.00  0.00    +0.052 A 
ATOM      8  C   UNL     1       0.323  -2.154  -3.458  0.00  0.00    +0.002 A 
ATOM      9  C   UNL     1       1.727  -2.400  -3.123  0.00  0.00    +0.018 A 
ATOM     10  C   UNL     1       2.229  -1.847  -1.991  0.00  0.00    +0.011 A 
ATOM     11  C   UNL     1       1.410  -1.046  -1.167  0.00  0.00    +0.251 A 
ATOM     12  O   UNL     1       1.883  -0.555  -0.157  0.00  0.00    -0.268 OA
ATOM     13  N   UNL     1       0.121  -0.810  -1.469  0.00  0.00    -0.322 N 
ATOM     14  H   UNL     1      -0.414  -0.255  -0.880  0.00  0.00    +0.169 HD
ATOM     15  C   UNL     1      -2.629  -0.243  -2.010  0.00  0.00    +0.046 C 
ENDBRANCH   1  10
BRANCH   1  16
ATOM     16  C   UNL     1       3.730  -2.843  -0.315  0.00  0.00    +0.143 A 
ATOM     17  N   UNL     1       3.292  -2.435   0.851  0.00  0.00    -0.115 NA
ATOM     18  N   UNL     1       3.526  -3.365   1.712  0.00  0.00    -0.023 NA
ATOM     19  N   UNL     1       4.101  -4.356   1.125  0.00  0.00    -0.044 NA
ATOM     20  N   UNL     1       4.240  -4.074  -0.126  0.00  0.00    -0.227 N 
BRANCH  20  21
ATOM     21  C   UNL     1       4.842  -4.933  -1.149  0.00  0.00    +0.111 C 
ATOM     22  C   UNL     1       3.945  -6.149  -1.388  0.00  0.00    +0.027 C 
ATOM     23  C   UNL     1       4.574  -7.045  -2.456  0.00  0.00    +0.002 C 
ATOM     24  C   UNL     1       5.951  -7.513  -1.983  0.00  0.00    +0.000 C 
ATOM     25  C   UNL     1       6.849  -6.297  -1.744  0.00  0.00    +0.002 C 
ATOM     26  C   UNL     1       6.220  -5.401  -0.676  0.00  0.00    +0.027 C 
ENDBRANCH  20  21
ENDBRANCH   1  16
BRANCH   1  27
ATOM     27  N   UNL     1       4.340  -0.779  -1.441  0.00  0.00    +0.395 N 
ATOM     28  H   UNL     1       3.858  -0.252  -0.703  0.00  0.00    -0.079 HD
BRANCH  27  29
ATOM     29  C   UNL     1       5.749  -0.984  -1.042  0.00  0.00    -0.041 C 
BRANCH  29  30
ATOM     30  C   UNL     1       5.816  -1.065   0.461  0.00  0.00    -0.064 A 
ATOM     31  C   UNL     1       5.875  -2.297   1.085  0.00  0.00    +0.002 A 
ATOM     32  C   UNL     1       5.936  -2.370   2.464  0.00  0.00    +0.000 A 
ATOM     33  C   UNL     1       5.938  -1.212   3.219  0.00  0.00    +0.000 A 
ATOM     34  C   UNL     1       5.879   0.020   2.595  0.00  0.00    +0.000 A 
ATOM     35  C   UNL     1       5.818   0.093   1.216  0.00  0.00    +0.002 A 
ENDBRANCH  29  30
ENDBRANCH  27  29
BRANCH  27  36
ATOM     36  C   UNL     1       4.279  -0.007  -2.700  0.00  0.00    -0.040 C 
BRANCH  36  37
ATOM     37  C   UNL     1       3.030   0.838  -2.683  0.00  0.00    -0.046 A 
ATOM     38  C   UNL     1       1.909   0.446  -3.399  0.00  0.00    +0.005 A 
ATOM     39  C   UNL     1       0.782   1.252  -3.351  0.00  0.00    +0.020 A 
ATOM     40  C   UNL     1       0.816   2.415  -2.605  0.00  0.00    +0.111 A 
ATOM     41  N   UNL     1       1.902   2.759  -1.941  0.00  0.00    -0.263 NA
ATOM     42  C   UNL     1       2.991   2.014  -1.960  0.00  0.00    +0.112 A 
ENDBRANCH  36  37
ENDBRANCH  27  36
ENDBRANCH   1  27
TORSDOF 8
