REMARK  Name = ZINC04757320
REMARK  9 active torsions:
REMARK  status: ('A' for Active; 'I' for Inactive)
REMARK    1  A    between atoms: C_1  and  C_2
REMARK    2  A    between atoms: C_2  and  N_3
REMARK    3  A    between atoms: N_3  and  C_4
REMARK    4  A    between atoms: N_3  and  C_6
REMARK    5  A    between atoms: C_4  and  C_5
REMARK    6  A    between atoms: C_8  and  C_27
REMARK    7  A    between atoms: C_11  and  N_15
REMARK    8  A    between atoms: C_16  and  C_18
REMARK    9  A    between atoms: C_19  and  C_20
REMARK                            x       y       z     vdW  Elec       q    Type
REMARK                         _______ _______ _______ _____ _____    ______ ____
ROOT
ATOM      1  C   UNL     1       0.963   6.225   0.002  0.00  0.00    +0.099 A 
ATOM      2  C   UNL     1       2.226   5.615  -0.003  0.00  0.00    +0.045 A 
ATOM      3  C   UNL     1       2.324   4.256  -0.004  0.00  0.00    -0.038 A 
ATOM      4  C   UNL     1       1.133   3.501  -0.001  0.00  0.00    +0.003 A 
ATOM      5  C   UNL     1       1.163   2.098  -0.001  0.00  0.00    +0.033 A 
ATOM      6  C   UNL     1      -0.022   1.395   0.003  0.00  0.00    +0.034 A 
ATOM      7  C   UNL     1      -1.249   2.067   0.001  0.00  0.00    +0.025 A 
ATOM      8  C   UNL     1      -1.302   3.426   0.007  0.00  0.00    +0.028 A 
ATOM      9  C   UNL     1      -0.112   4.176   0.004  0.00  0.00    +0.048 A 
ATOM     10  C   UNL     1       3.669   3.578  -0.008  0.00  0.00    +0.044 C 
ATOM     11  N   UNL     1      -0.213   5.550   0.005  0.00  0.00    -0.343 N 
ATOM     12  H   UNL     1      -1.120   6.032   0.008  0.00  0.00    +0.167 HD
ENDROOT
BRANCH   6  13
ATOM     13  N   UNL     1       0.002  -0.004   0.002  0.00  0.00    -0.282 N 
ATOM     14  C   UNL     1      -0.938  -0.695   0.677  0.00  0.00    +0.241 C 
ATOM     15  O   UNL     1      -1.856  -0.105   1.217  0.00  0.00    -0.270 OA
ATOM     16  H   UNL     1       0.696  -0.477  -0.484  0.00  0.00    +0.155 HD
BRANCH  14  17
ATOM     17  C   UNL     1      -0.856  -2.153   0.760  0.00  0.00    +0.068 C 
ATOM     18  C   UNL     1      -1.797  -2.844   1.435  0.00  0.00    +0.013 C 
BRANCH  18  19
ATOM     19  C   UNL     1      -1.715  -4.311   1.519  0.00  0.00    -0.025 A 
ATOM     20  C   UNL     1      -0.665  -4.993   0.895  0.00  0.00    +0.009 A 
ATOM     21  C   UNL     1      -0.592  -6.367   0.981  0.00  0.00    +0.016 A 
ATOM     22  C   UNL     1      -1.560  -7.073   1.676  0.00  0.00    +0.018 A 
ATOM     23  C   UNL     1      -2.606  -6.405   2.292  0.00  0.00    +0.016 A 
ATOM     24  C   UNL     1      -2.689  -5.031   2.218  0.00  0.00    +0.009 A 
ATOM     25 BR   UNL     1      -1.455  -8.958   1.782  0.00  0.00    -0.050 Br
ENDBRANCH  18  19
ENDBRANCH  14  17
ENDBRANCH   6  13
BRANCH   1  26
ATOM     26  N   UNL     1       0.880   7.610   0.003  0.00  0.00    -0.317 N 
BRANCH  26  28
ATOM     27  C   UNL     1       2.391   8.692  -1.586  0.00  0.00    +0.024 C 
ATOM     28  C   UNL     1       2.097   8.417  -0.110  0.00  0.00    +0.103 C 
ENDBRANCH  26  28
BRANCH  26  29
ATOM     29  C   UNL     1      -0.426   8.265   0.118  0.00  0.00    +0.103 C 
ATOM     30  C   UNL     1      -0.750   8.499   1.595  0.00  0.00    +0.024 C 
ENDBRANCH  26  29
ENDBRANCH   1  26
TORSDOF 6
