REMARK  Name = ZINC40322072
REMARK  7 active torsions:
REMARK  status: ('A' for Active; 'I' for Inactive)
REMARK    1  A    between atoms: C_5  and  C_7
REMARK    2  A    between atoms: C_7  and  C_9
REMARK    3  A    between atoms: C_7  and  N_28
REMARK    4  A    between atoms: C_9  and  N_10
REMARK    5  A    between atoms: C_11  and  C_13
REMARK    6  A    between atoms: C_16  and  S_18
REMARK    7  A    between atoms: S_18  and  C_21
REMARK                            x       y       z     vdW  Elec       q    Type
REMARK                         _______ _______ _______ _____ _____    ______ ____
ROOT
ATOM      1  N   UNL     1       0.980  -4.190   1.374  0.00  0.00    -0.310 N 
ATOM      2  C   UNL     1       0.865  -4.880   2.526  0.00  0.00    +0.279 C 
ATOM      3  O   UNL     1       1.006  -4.312   3.593  0.00  0.00    -0.267 OA
ATOM      4  H   UNL     1       0.868  -4.643   0.524  0.00  0.00    +0.149 HD
ENDROOT
BRANCH   2   5
ATOM      5  C   UNL     1       0.570  -6.316   2.494  0.00  0.00    +0.192 A 
ATOM      6  C   UNL     1       0.423  -7.130   3.580  0.00  0.00    +0.056 A 
ATOM      7  C   UNL     1       0.150  -8.416   3.088  0.00  0.00    +0.070 A 
ATOM      8  C   UNL     1       0.142  -8.332   1.739  0.00  0.00    +0.246 A 
ATOM      9  O   UNL     1       0.391  -7.064   1.385  0.00  0.00    -0.433 OA
BRANCH   8  10
ATOM     10  S   UNL     1      -0.152  -9.668   0.629  0.00  0.00    +0.058 S 
ATOM     11  O   UNL     1       0.460  -9.315  -0.603  0.00  0.00    -0.161 OA
ATOM     12  O   UNL     1       0.179 -10.859   1.331  0.00  0.00    -0.161 OA
BRANCH  10  13
ATOM     13  C   UNL     1      -1.888  -9.725   0.332  0.00  0.00    +0.097 A 
ATOM     14  C   UNL     1      -2.704 -10.486   1.148  0.00  0.00    +0.029 A 
ATOM     15  C   UNL     1      -4.066 -10.531   0.915  0.00  0.00    +0.022 A 
ATOM     16  C   UNL     1      -4.612  -9.815  -0.136  0.00  0.00    +0.041 A 
ATOM     17  C   UNL     1      -3.794  -9.055  -0.952  0.00  0.00    +0.022 A 
ATOM     18  C   UNL     1      -2.434  -9.006  -0.715  0.00  0.00    +0.029 A 
ATOM     19 CL   UNL     1      -6.322  -9.872  -0.429  0.00  0.00    -0.084 Cl
ENDBRANCH  10  13
ENDBRANCH   8  10
ENDBRANCH   2   5
BRANCH   1  20
ATOM     20  C   UNL     1       1.275  -2.755   1.407  0.00  0.00    +0.094 C 
BRANCH  20  21
ATOM     21  C   UNL     1       1.232  -2.193  -0.016  0.00  0.00    -0.019 C 
BRANCH  21  26
ATOM     22  C   UNL     1      -1.823  -3.479  -1.823  0.00  0.00    +0.000 A 
ATOM     23  C   UNL     1      -2.746  -2.487  -1.546  0.00  0.00    +0.001 A 
ATOM     24  C   UNL     1      -2.382  -1.400  -0.774  0.00  0.00    +0.020 A 
ATOM     25  C   UNL     1      -1.094  -1.305  -0.278  0.00  0.00    +0.043 A 
ATOM     26  C   UNL     1      -0.171  -2.297  -0.555  0.00  0.00    -0.041 A 
ATOM     27  C   UNL     1      -0.536  -3.384  -1.328  0.00  0.00    +0.003 A 
ATOM     28 CL   UNL     1      -0.636   0.061   0.691  0.00  0.00    -0.083 Cl
ENDBRANCH  21  26
BRANCH  21  29
ATOM     29  N   UNL     1       2.144  -2.962  -0.873  0.00  0.00    +0.385 N 
ATOM     30  C   UNL     1       2.199  -2.363  -2.231  0.00  0.00    -0.078 C 
ATOM     31  C   UNL     1       3.544  -2.884  -2.795  0.00  0.00    -0.020 C 
ATOM     32  C   UNL     1       4.471  -2.856  -1.559  0.00  0.00    -0.020 C 
ATOM     33  C   UNL     1       3.524  -2.889  -0.345  0.00  0.00    -0.078 C 
ATOM     34  H   UNL     1       1.843  -3.924  -0.928  0.00  0.00    -0.081 HD
ENDBRANCH  21  29
ENDBRANCH  20  21
ENDBRANCH   1  20
TORSDOF 7
