REMARK  Name = ZINC66133034
REMARK  6 active torsions:
REMARK  status: ('A' for Active; 'I' for Inactive)
REMARK    1  A    between atoms: C_2  and  C_3
REMARK    2  A    between atoms: C_3  and  O_4
REMARK    3  A    between atoms: O_4  and  C_5
REMARK    4  A    between atoms: C_14  and  C_15
REMARK    5  A    between atoms: N_26  and  C_27
REMARK    6  A    between atoms: C_27  and  C_28
REMARK                            x       y       z     vdW  Elec       q    Type
REMARK                         _______ _______ _______ _____ _____    ______ ____
ROOT
ATOM      1  C   UNL     1      -0.931  -3.996  -2.959  0.00  0.00    +0.197 C 
ATOM      2  N   UNL     1      -1.347  -4.580  -4.239  0.00  0.00    -0.321 N 
ATOM      3  C   UNL     1      -2.123  -3.811  -5.099  0.00  0.00    +0.041 A 
ATOM      4  C   UNL     1      -3.035  -4.381  -5.971  0.00  0.00    +0.024 A 
ATOM      5  C   UNL     1      -3.785  -3.570  -6.802  0.00  0.00    +0.002 A 
ATOM      6  C   UNL     1      -3.632  -2.193  -6.768  0.00  0.00    +0.001 A 
ATOM      7  C   UNL     1      -2.727  -1.609  -5.906  0.00  0.00    +0.015 A 
ATOM      8  C   UNL     1      -1.963  -2.414  -5.065  0.00  0.00    +0.058 A 
ATOM      9  C   UNL     1      -0.976  -1.844  -4.130  0.00  0.00    +0.250 C 
ATOM     10  O   UNL     1      -0.626  -0.684  -4.238  0.00  0.00    -0.270 OA
ATOM     11  N   UNL     1      -0.467  -2.623  -3.158  0.00  0.00    -0.272 N 
ATOM     12  H   UNL     1      -1.086  -5.483  -4.481  0.00  0.00    +0.148 HD
ENDROOT
BRANCH   1  22
ATOM     13  C   UNL     1      -2.523  -2.826  -1.441  0.00  0.00    +0.128 A 
ATOM     14  C   UNL     1      -3.610  -2.808  -0.561  0.00  0.00    +0.046 A 
ATOM     15  C   UNL     1      -4.270  -3.953  -0.242  0.00  0.00    +0.012 A 
ATOM     16  C   UNL     1      -3.858  -5.174  -0.802  0.00  0.00    -0.017 A 
ATOM     17  C   UNL     1      -4.518  -6.376  -0.495  0.00  0.00    +0.008 A 
ATOM     18  C   UNL     1      -4.093  -7.541  -1.056  0.00  0.00    +0.001 A 
ATOM     19  C   UNL     1      -3.011  -7.562  -1.933  0.00  0.00    +0.001 A 
ATOM     20  C   UNL     1      -2.347  -6.418  -2.254  0.00  0.00    +0.009 A 
ATOM     21  C   UNL     1      -2.757  -5.196  -1.695  0.00  0.00    -0.008 A 
ATOM     22  C   UNL     1      -2.100  -3.994  -2.007  0.00  0.00    +0.040 A 
BRANCH  13  23
ATOM     23  O   UNL     1      -1.883  -1.665  -1.741  0.00  0.00    -0.488 OA
BRANCH  23  24
ATOM     24  C   UNL     1      -2.371  -0.476  -1.118  0.00  0.00    +0.256 C 
BRANCH  24  26
ATOM     25  C   UNL     1      -2.133   1.818  -1.921  0.00  0.00    +0.007 C 
ATOM     26  C   UNL     1      -1.545   0.702  -1.566  0.00  0.00    +0.006 C 
ENDBRANCH  24  26
ENDBRANCH  23  24
ENDBRANCH  13  23
ENDBRANCH   1  22
BRANCH  11  27
ATOM     27  C   UNL     1       0.573  -2.081  -2.280  0.00  0.00    +0.141 C 
BRANCH  27  28
ATOM     28  C   UNL     1       1.950  -2.481  -2.813  0.00  0.00    +0.136 C 
ATOM     29  C   UNL     1       3.047  -2.018  -1.831  0.00  0.00    +0.035 C 
ATOM     30  C   UNL     1       4.169  -1.539  -2.792  0.00  0.00    +0.031 C 
ATOM     31  C   UNL     1       3.330  -0.965  -3.961  0.00  0.00    +0.160 C 
ATOM     32  O   UNL     1       2.191  -1.837  -4.069  0.00  0.00    -0.375 OA
ENDBRANCH  27  28
ENDBRANCH  11  27
TORSDOF 6
