REMARK  Name = ZINC59264643
REMARK  5 active torsions:
REMARK  status: ('A' for Active; 'I' for Inactive)
REMARK    1  A    between atoms: C_3  and  C_6
REMARK    2  A    between atoms: C_6  and  C_8
REMARK    3  A    between atoms: C_6  and  N_28
REMARK    4  A    between atoms: C_8  and  N_9
REMARK    5  A    between atoms: C_16  and  C_18
REMARK                            x       y       z     vdW  Elec       q    Type
REMARK                         _______ _______ _______ _____ _____    ______ ____
ROOT
ATOM      1  N   UNL     1       5.745   2.231   1.339  0.00  0.00    -0.300 N 
ATOM      2  C   UNL     1       6.460   2.277   2.480  0.00  0.00    +0.303 C 
ATOM      3  O   UNL     1       5.910   2.096   3.550  0.00  0.00    -0.253 OA
ATOM      4  N   UNL     1       7.784   2.522   2.436  0.00  0.00    -0.279 N 
ATOM      5  C   UNL     1       8.573   2.765   1.215  0.00  0.00    +0.110 C 
ATOM      6  C   UNL     1      10.023   2.376   1.595  0.00  0.00    +0.021 C 
ATOM      7  C   UNL     1      10.103   2.869   3.064  0.00  0.00    +0.029 C 
ATOM      8  C   UNL     1       8.681   2.599   3.599  0.00  0.00    +0.108 C 
ATOM      9  H   UNL     1       6.183   2.376   0.486  0.00  0.00    +0.150 HD
ENDROOT
BRANCH   8  10
ATOM     10  C   UNL     1       8.249   3.723   4.505  0.00  0.00    -0.023 A 
ATOM     11  C   UNL     1       7.785   4.907   3.963  0.00  0.00    +0.009 A 
ATOM     12  C   UNL     1       7.389   5.941   4.791  0.00  0.00    +0.050 A 
ATOM     13  C   UNL     1       7.457   5.792   6.169  0.00  0.00    +0.162 A 
ATOM     14  C   UNL     1       7.921   4.601   6.714  0.00  0.00    +0.162 A 
ATOM     15  C   UNL     1       8.312   3.566   5.877  0.00  0.00    +0.055 A 
ATOM     16  O   UNL     1       7.988   4.432   8.062  0.00  0.00    -0.485 OA
ATOM     17  C   UNL     1       7.935   5.617   8.864  0.00  0.00    +0.270 C 
ATOM     18  C   UNL     1       6.794   6.500   8.340  0.00  0.00    +0.270 C 
ATOM     19  O   UNL     1       7.067   6.820   6.971  0.00  0.00    -0.485 OA
ENDBRANCH   8  10
BRANCH   1  20
ATOM     20  C   UNL     1       4.305   1.964   1.387  0.00  0.00    +0.095 C 
BRANCH  20  21
ATOM     21  C   UNL     1       3.715   2.095  -0.019  0.00  0.00    -0.013 C 
BRANCH  21  22
ATOM     22  N   UNL     1       2.299   1.704   0.006  0.00  0.00    +0.386 N 
ATOM     23  C   UNL     1       1.715   1.808  -1.356  0.00  0.00    -0.078 C 
ATOM     24  C   UNL     1       0.483   0.870  -1.285  0.00  0.00    -0.020 C 
ATOM     25  C   UNL     1       0.987  -0.297  -0.405  0.00  0.00    -0.020 C 
ATOM     26  C   UNL     1       2.168   0.283   0.394  0.00  0.00    -0.078 C 
ATOM     27  H   UNL     1       1.788   2.289   0.650  0.00  0.00    -0.081 HD
ENDBRANCH  21  22
BRANCH  21  30
ATOM     28  C   UNL     1       4.664   5.427  -1.603  0.00  0.00    +0.008 A 
ATOM     29  C   UNL     1       4.751   4.078  -1.313  0.00  0.00    +0.009 A 
ATOM     30  C   UNL     1       3.834   3.524  -0.483  0.00  0.00    -0.022 A 
ATOM     31  S   UNL     1       2.804   4.926  -0.082  0.00  0.00    -0.103 S 
ATOM     32  C   UNL     1       3.665   6.155  -1.048  0.00  0.00    +0.045 A 
ENDBRANCH  21  30
ENDBRANCH  20  21
ENDBRANCH   1  20
TORSDOF 5
