REMARK  Name = ZINC54024213
REMARK  4 active torsions:
REMARK  status: ('A' for Active; 'I' for Inactive)
REMARK    1  A    between atoms: C_4  and  C_7
REMARK    2  A    between atoms: C_7  and  C_9
REMARK    3  A    between atoms: C_7  and  N_12
REMARK    4  A    between atoms: C_19  and  C_21
REMARK                            x       y       z     vdW  Elec       q    Type
REMARK                         _______ _______ _______ _____ _____    ______ ____
ROOT
ATOM      1  N   UNL     1       3.611  -1.865  -0.930  0.00  0.00    -0.292 N 
ATOM      2  C   UNL     1       4.721  -2.370  -1.504  0.00  0.00    +0.303 C 
ATOM      3  O   UNL     1       5.805  -1.866  -1.281  0.00  0.00    -0.253 OA
ATOM      4  N   UNL     1       4.629  -3.435  -2.325  0.00  0.00    -0.279 N 
ATOM      5  C   UNL     1       3.384  -4.137  -2.686  0.00  0.00    +0.110 C 
ATOM      6  C   UNL     1       3.690  -4.812  -4.047  0.00  0.00    +0.021 C 
ATOM      7  C   UNL     1       5.170  -5.238  -3.858  0.00  0.00    +0.029 C 
ATOM      8  C   UNL     1       5.754  -4.085  -3.014  0.00  0.00    +0.108 C 
ATOM      9  H   UNL     1       2.747  -2.267  -1.108  0.00  0.00    +0.151 HD
ENDROOT
BRANCH   8  10
ATOM     10  C   UNL     1       6.726  -4.636  -2.003  0.00  0.00    -0.023 A 
ATOM     11  C   UNL     1       6.256  -5.224  -0.843  0.00  0.00    +0.009 A 
ATOM     12  C   UNL     1       7.144  -5.728   0.088  0.00  0.00    +0.050 A 
ATOM     13  C   UNL     1       8.510  -5.646  -0.140  0.00  0.00    +0.162 A 
ATOM     14  C   UNL     1       8.982  -5.058  -1.307  0.00  0.00    +0.162 A 
ATOM     15  C   UNL     1       8.085  -4.557  -2.239  0.00  0.00    +0.055 A 
ATOM     16  O   UNL     1      10.318  -4.974  -1.553  0.00  0.00    -0.485 OA
ATOM     17  C   UNL     1      11.192  -5.155  -0.433  0.00  0.00    +0.270 C 
ATOM     18  C   UNL     1      10.716  -6.383   0.354  0.00  0.00    +0.270 C 
ATOM     19  O   UNL     1       9.373  -6.144   0.788  0.00  0.00    -0.485 OA
ENDBRANCH   8  10
BRANCH   1  20
ATOM     20  C   UNL     1       3.711  -0.707  -0.038  0.00  0.00    +0.108 C 
BRANCH  20  24
ATOM     21  C   UNL     1      -0.017   1.378   0.010  0.00  0.00    +0.000 A 
ATOM     22  C   UNL     1       1.171   2.086   0.002  0.00  0.00    +0.000 A 
ATOM     23  C   UNL     1       2.377   1.411  -0.013  0.00  0.00    +0.005 A 
ATOM     24  C   UNL     1       2.396   0.029  -0.020  0.00  0.00    -0.027 A 
ATOM     25  C   UNL     1       1.208  -0.679  -0.012  0.00  0.00    +0.005 A 
ATOM     26  C   UNL     1       0.002  -0.004   0.002  0.00  0.00    +0.000 A 
ENDBRANCH  20  24
BRANCH  20  27
ATOM     27  C   UNL     1       4.049  -1.182   1.377  0.00  0.00    +0.014 C 
ATOM     28  C   UNL     1       5.234  -0.518   2.081  0.00  0.00    +0.006 C 
ATOM     29  C   UNL     1       5.355  -1.955   1.570  0.00  0.00    +0.006 C 
ENDBRANCH  20  27
ENDBRANCH   1  20
TORSDOF 4
