REMARK  Name = ZINC09315815
REMARK  7 active torsions:
REMARK  status: ('A' for Active; 'I' for Inactive)
REMARK    1  A    between atoms: C_3  and  C_7
REMARK    2  A    between atoms: C_7  and  N_8
REMARK    3  A    between atoms: N_8  and  C_9
REMARK    4  A    between atoms: C_11  and  N_18
REMARK    5  A    between atoms: C_14  and  N_15
REMARK    6  A    between atoms: N_21  and  S_24
REMARK    7  A    between atoms: S_24  and  C_27
REMARK                            x       y       z     vdW  Elec       q    Type
REMARK                         _______ _______ _______ _____ _____    ______ ____
ROOT
ATOM      1  C   UNL     1       4.119   0.211  -1.669  0.00  0.00    +0.060 A 
ATOM      2  C   UNL     1       4.974  -0.125  -0.628  0.00  0.00    +0.048 A 
ATOM      3  C   UNL     1       6.183  -0.748  -0.902  0.00  0.00    +0.032 A 
ATOM      4  C   UNL     1       6.534  -1.034  -2.216  0.00  0.00    +0.025 A 
ATOM      5  C   UNL     1       5.681  -0.698  -3.249  0.00  0.00    +0.036 A 
ATOM      6  C   UNL     1       4.474  -0.083  -2.980  0.00  0.00    +0.147 A 
ENDROOT
BRANCH   3   7
ATOM      7  N   UNL     1       7.046  -1.088   0.142  0.00  0.00    -0.327 N 
ATOM      8  C   UNL     1       7.372   0.087   0.960  0.00  0.00    +0.122 C 
ATOM      9  C   UNL     1       8.168  -0.356   2.192  0.00  0.00    +0.128 C 
ATOM     10  N   UNL     1       9.328  -1.141   1.741  0.00  0.00    -0.174 NA
ATOM     11  C   UNL     1       9.095  -2.254   0.808  0.00  0.00    +0.128 C 
ATOM     12  C   UNL     1       8.262  -1.735  -0.369  0.00  0.00    +0.122 C 
BRANCH  10  13
ATOM     13  S   UNL     1      10.855  -0.781   2.270  0.00  0.00    +0.061 S 
ATOM     14  O   UNL     1      10.707  -0.100   3.508  0.00  0.00    -0.153 OA
ATOM     15  O   UNL     1      11.620  -1.971   2.142  0.00  0.00    -0.153 OA
BRANCH  13  16
ATOM     16  C   UNL     1      11.539   0.381   1.135  0.00  0.00    +0.106 A 
ATOM     17  C   UNL     1      12.251  -0.063   0.037  0.00  0.00    +0.031 A 
ATOM     18  C   UNL     1      12.784   0.847  -0.857  0.00  0.00    +0.040 A 
ATOM     19  C   UNL     1      12.612   2.205  -0.646  0.00  0.00    +0.124 A 
ATOM     20  C   UNL     1      11.903   2.649   0.458  0.00  0.00    +0.040 A 
ATOM     21  C   UNL     1      11.367   1.736   1.347  0.00  0.00    +0.031 A 
ATOM     22  F   UNL     1      13.136   3.095  -1.516  0.00  0.00    -0.205 F 
ENDBRANCH  13  16
ENDBRANCH  10  13
ENDBRANCH   3   7
BRANCH   6  23
ATOM     23  N   UNL     1       3.560   0.270  -4.090  0.00  0.00    +0.058 N 
ATOM     24  O   UNL     1       3.819  -0.081  -5.227  0.00  0.00    -0.126 OA
ATOM     25  O   UNL     1       2.549   0.911  -3.866  0.00  0.00    -0.126 OA
ENDBRANCH   6  23
BRANCH   1  26
ATOM     26  N   UNL     1       2.901   0.839  -1.398  0.00  0.00    -0.338 N 
ATOM     27  H   UNL     1       2.342   1.149  -2.128  0.00  0.00    +0.146 HD
BRANCH  26  28
ATOM     28  C   UNL     1       2.468   1.030  -0.012  0.00  0.00    +0.138 C 
BRANCH  28  31
ATOM     29  C   UNL     1      -1.250   1.673  -0.001  0.00  0.00    +0.020 A 
ATOM     30  C   UNL     1      -0.043   0.990  -0.013  0.00  0.00    +0.008 A 
ATOM     31  C   UNL     1       1.132   1.726   0.006  0.00  0.00    -0.012 A 
ATOM     32  C   UNL     1       1.061   3.106   0.040  0.00  0.00    +0.115 A 
ATOM     33  N   UNL     1      -0.104   3.722   0.057  0.00  0.00    -0.263 NA
ATOM     34  C   UNL     1      -1.242   3.054   0.040  0.00  0.00    +0.111 A 
ENDBRANCH  28  31
ENDBRANCH  26  28
ENDBRANCH   1  26
TORSDOF 7
