REMARK  Name = ZINC54201667
REMARK  6 active torsions:
REMARK  status: ('A' for Active; 'I' for Inactive)
REMARK    1  A    between atoms: C_1  and  O_2
REMARK    2  A    between atoms: O_2  and  C_3
REMARK    3  A    between atoms: C_6  and  C_9
REMARK    4  A    between atoms: C_12  and  C_29
REMARK    5  A    between atoms: C_20  and  C_21
REMARK    6  A    between atoms: C_26  and  O_27
REMARK                            x       y       z     vdW  Elec       q    Type
REMARK                         _______ _______ _______ _____ _____    ______ ____
ROOT
ATOM      1  C   UNL     1       2.650  -2.372  -5.028  0.00  0.00    +0.136 C 
ATOM      2  C   UNL     1       4.092  -2.849  -4.767  0.00  0.00    +0.087 C 
ATOM      3  C   UNL     1       4.014  -4.351  -4.922  0.00  0.00    +0.069 C 
ATOM      4  N   UNL     1       2.804  -4.691  -5.208  0.00  0.00    -0.182 NA
ATOM      5  N   UNL     1       1.915  -3.618  -5.299  0.00  0.00    -0.195 N 
ATOM      6  C   UNL     1       0.579  -3.707  -5.591  0.00  0.00    +0.174 C 
ATOM      7  N   UNL     1      -0.307  -2.729  -5.695  0.00  0.00    -0.152 NA
ATOM      8  C   UNL     1      -1.570  -2.950  -5.983  0.00  0.00    +0.276 C 
ATOM      9  O   UNL     1      -2.378  -2.039  -6.077  0.00  0.00    -0.267 OA
ATOM     10  C   UNL     1      -1.960  -4.364  -6.189  0.00  0.00    +0.080 C 
ATOM     11  C   UNL     1      -3.172  -4.896  -6.493  0.00  0.00    +0.032 C 
ATOM     12  S   UNL     1      -0.386  -5.171  -5.931  0.00  0.00    -0.050 S 
ENDROOT
BRANCH   3  13
ATOM     13  C   UNL     1       5.146  -5.282  -4.769  0.00  0.00    -0.002 A 
ATOM     14  C   UNL     1       6.422  -4.783  -4.448  0.00  0.00    +0.010 A 
ATOM     15  C   UNL     1       7.480  -5.621  -4.302  0.00  0.00    +0.009 A 
ATOM     16  C   UNL     1       7.309  -7.007  -4.470  0.00  0.00    -0.018 A 
ATOM     17  C   UNL     1       8.389  -7.894  -4.324  0.00  0.00    +0.008 A 
ATOM     18  C   UNL     1       8.193  -9.230  -4.492  0.00  0.00    +0.001 A 
ATOM     19  C   UNL     1       6.934  -9.737  -4.810  0.00  0.00    +0.001 A 
ATOM     20  C   UNL     1       5.864  -8.910  -4.961  0.00  0.00    +0.008 A 
ATOM     21  C   UNL     1       6.028  -7.523  -4.793  0.00  0.00    -0.017 A 
ATOM     22  C   UNL     1       4.944  -6.643  -4.936  0.00  0.00    +0.018 A 
ENDBRANCH   3  13
BRANCH   1  26
ATOM     23  C   UNL     1       1.066  -0.413  -1.576  0.00  0.00    +0.120 A 
ATOM     24  C   UNL     1       1.516   0.335  -2.655  0.00  0.00    +0.046 A 
ATOM     25  C   UNL     1       2.028  -0.301  -3.769  0.00  0.00    +0.009 A 
ATOM     26  C   UNL     1       2.091  -1.681  -3.811  0.00  0.00    -0.025 A 
ATOM     27  C   UNL     1       1.643  -2.429  -2.738  0.00  0.00    +0.009 A 
ATOM     28  C   UNL     1       1.135  -1.798  -1.619  0.00  0.00    +0.046 A 
BRANCH  23  30
ATOM     29  C   UNL     1       0.521   1.639  -0.505  0.00  0.00    +0.277 C 
ATOM     30  O   UNL     1       0.562   0.210  -0.479  0.00  0.00    -0.495 OA
ENDBRANCH  23  30
ENDBRANCH   1  26
BRANCH  11  31
ATOM     31  C   UNL     1      -3.287  -6.325  -6.808  0.00  0.00    +0.018 A 
ATOM     32  C   UNL     1      -2.151  -7.061  -7.169  0.00  0.00    +0.011 A 
ATOM     33  C   UNL     1      -2.268  -8.402  -7.463  0.00  0.00    +0.001 A 
ATOM     34  C   UNL     1      -3.503  -9.026  -7.405  0.00  0.00    +0.004 A 
ATOM     35  C   UNL     1      -4.632  -8.313  -7.051  0.00  0.00    +0.046 A 
ATOM     36  C   UNL     1      -4.536  -6.965  -6.745  0.00  0.00    +0.124 A 
BRANCH  36  37
ATOM     37  O   UNL     1      -5.643  -6.265  -6.391  0.00  0.00    -0.506 OA
ATOM     38  H   UNL     1      -6.109  -5.863  -7.136  0.00  0.00    +0.292 HD
ENDBRANCH  36  37
ENDBRANCH  11  31
TORSDOF 5
