REMARK  Name = ZINC38780016
REMARK  7 active torsions:
REMARK  status: ('A' for Active; 'I' for Inactive)
REMARK    1  A    between atoms: C_1  and  C_2
REMARK    2  A    between atoms: C_4  and  C_27
REMARK    3  A    between atoms: C_8  and  S_12
REMARK    4  A    between atoms: S_12  and  C_13
REMARK    5  A    between atoms: C_13  and  C_15
REMARK    6  A    between atoms: C_13  and  C_16
REMARK    7  A    between atoms: N_18  and  C_19
REMARK                            x       y       z     vdW  Elec       q    Type
REMARK                         _______ _______ _______ _____ _____    ______ ____
ROOT
ATOM      1  C   UNL     1      -0.069   1.465   0.040  0.00  0.00    +0.024 C 
ATOM      2  C   UNL     1      -0.037  -0.065   0.029  0.00  0.00    +0.081 C 
ATOM      3  C   UNL     1       0.729  -0.581  -1.167  0.00  0.00    -0.012 C 
ATOM      4  C   UNL     1       1.855  -1.320  -0.918  0.00  0.00    +0.075 C 
ATOM      5  C   UNL     1       2.219  -1.546   0.491  0.00  0.00    +0.113 C 
ATOM      6  N   UNL     1       3.284  -2.244   0.802  0.00  0.00    -0.217 NA
ATOM      7  C   UNL     1       4.067  -2.768  -0.139  0.00  0.00    +0.182 C 
ATOM      8  N   UNL     1       3.833  -2.627  -1.432  0.00  0.00    -0.151 NA
ATOM      9  C   UNL     1       2.789  -1.944  -1.903  0.00  0.00    +0.272 C 
ATOM     10  O   UNL     1       2.601  -1.833  -3.104  0.00  0.00    -0.268 OA
ATOM     11  S   UNL     1       0.964  -0.711   1.429  0.00  0.00    -0.097 S 
ENDROOT
BRANCH   3  12
ATOM     12  C   UNL     1       0.285  -0.303  -2.535  0.00  0.00    -0.020 A 
ATOM     13  C   UNL     1       0.282   1.012  -3.022  0.00  0.00    +0.008 A 
ATOM     14  C   UNL     1      -0.136   1.264  -4.310  0.00  0.00    +0.001 A 
ATOM     15  C   UNL     1      -0.553   0.223  -5.123  0.00  0.00    +0.000 A 
ATOM     16  C   UNL     1      -0.553  -1.079  -4.651  0.00  0.00    +0.001 A 
ATOM     17  C   UNL     1      -0.133  -1.351  -3.367  0.00  0.00    +0.008 A 
ENDBRANCH   3  12
BRANCH   7  18
ATOM     18  S   UNL     1       5.480  -3.694   0.362  0.00  0.00    -0.076 S 
BRANCH  18  19
ATOM     19  C   UNL     1       6.243  -4.211  -1.200  0.00  0.00    +0.137 C 
ATOM     20  C   UNL     1       6.737  -2.978  -1.960  0.00  0.00    +0.029 C 
BRANCH  19  21
ATOM     21  C   UNL     1       7.408  -5.124  -0.912  0.00  0.00    +0.230 C 
ATOM     22  O   UNL     1       7.925  -5.119   0.185  0.00  0.00    -0.274 OA
ATOM     23  N   UNL     1       7.874  -5.944  -1.874  0.00  0.00    -0.283 N 
ATOM     24  H   UNL     1       7.421  -5.996  -2.730  0.00  0.00    +0.155 HD
BRANCH  23  25
ATOM     25  C   UNL     1       9.013  -6.723  -1.638  0.00  0.00    +0.052 A 
ATOM     26  C   UNL     1       9.254  -7.237  -0.370  0.00  0.00    +0.025 A 
ATOM     27  C   UNL     1      10.379  -8.005  -0.141  0.00  0.00    +0.002 A 
ATOM     28  C   UNL     1      11.265  -8.263  -1.170  0.00  0.00    +0.002 A 
ATOM     29  C   UNL     1      11.029  -7.753  -2.434  0.00  0.00    +0.022 A 
ATOM     30  C   UNL     1       9.902  -6.988  -2.672  0.00  0.00    +0.062 A 
ATOM     31 CL   UNL     1       9.602  -6.354  -4.260  0.00  0.00    -0.082 Cl
ENDBRANCH  23  25
ENDBRANCH  19  21
ENDBRANCH  18  19
ENDBRANCH   7  18
TORSDOF 5
