REMARK  Name = ZINC01876198
REMARK  12 active torsions:
REMARK  status: ('A' for Active; 'I' for Inactive)
REMARK    1  A    between atoms: C_1  and  C_2
REMARK    2  A    between atoms: C_2  and  N_3
REMARK    3  A    between atoms: N_3  and  C_4
REMARK    4  A    between atoms: N_3  and  C_6
REMARK    5  A    between atoms: C_4  and  C_5
REMARK    6  A    between atoms: C_9  and  C_12
REMARK    7  A    between atoms: N_13  and  N_14
REMARK    8  A    between atoms: C_15  and  C_17
REMARK    9  A    between atoms: C_17  and  S_18
REMARK   10  A    between atoms: S_18  and  C_19
REMARK   11  A    between atoms: C_22  and  C_30
REMARK   12  A    between atoms: N_23  and  C_24
REMARK                            x       y       z     vdW  Elec       q    Type
REMARK                         _______ _______ _______ _____ _____    ______ ____
ROOT
ATOM      1  S   UNL     1      11.007  -3.289   4.640  0.00  0.00    -0.076 S 
ENDROOT
BRANCH   1   2
ATOM      2  C   UNL     1      12.741  -3.508   4.418  0.00  0.00    +0.197 A 
ATOM      3  N   UNL     1      13.423  -3.270   3.320  0.00  0.00    -0.122 NA
ATOM      4  N   UNL     1      14.666  -3.537   3.505  0.00  0.00    -0.128 NA
ATOM      5  C   UNL     1      14.857  -3.962   4.732  0.00  0.00    +0.169 A 
ATOM      6  N   UNL     1      13.630  -3.952   5.359  0.00  0.00    -0.270 N 
BRANCH   5   7
ATOM      7  C   UNL     1      16.146  -4.370   5.330  0.00  0.00    +0.020 A 
ATOM      8  C   UNL     1      16.166  -5.095   6.523  0.00  0.00    +0.012 A 
ATOM      9  C   UNL     1      17.372  -5.472   7.077  0.00  0.00    +0.016 A 
ATOM     10  C   UNL     1      18.560  -5.134   6.451  0.00  0.00    +0.018 A 
ATOM     11  C   UNL     1      18.546  -4.415   5.268  0.00  0.00    +0.016 A 
ATOM     12  C   UNL     1      17.347  -4.037   4.702  0.00  0.00    +0.012 A 
ATOM     13 BR   UNL     1      20.209  -5.656   7.216  0.00  0.00    -0.050 Br
ENDBRANCH   5   7
BRANCH   6  14
ATOM     14  C   UNL     1      13.350  -4.322   6.681  0.00  0.00    +0.051 A 
ATOM     15  C   UNL     1      13.869  -3.582   7.735  0.00  0.00    +0.026 A 
ATOM     16  C   UNL     1      13.592  -3.949   9.038  0.00  0.00    +0.002 A 
ATOM     17  C   UNL     1      12.799  -5.053   9.293  0.00  0.00    +0.000 A 
ATOM     18  C   UNL     1      12.282  -5.793   8.245  0.00  0.00    +0.002 A 
ATOM     19  C   UNL     1      12.550  -5.427   6.941  0.00  0.00    +0.026 A 
ENDBRANCH   6  14
ENDBRANCH   1   2
BRANCH   1  20
ATOM     20  C   UNL     1      10.431  -2.686   3.029  0.00  0.00    +0.174 C 
BRANCH  20  22
ATOM     21  N   UNL     1       8.291  -2.003   1.992  0.00  0.00    -0.206 N 
ATOM     22  C   UNL     1       8.942  -2.455   3.082  0.00  0.00    +0.242 C 
ATOM     23  O   UNL     1       8.330  -2.675   4.106  0.00  0.00    -0.273 OA
ATOM     24  H   UNL     1       8.781  -1.827   1.173  0.00  0.00    +0.177 HD
BRANCH  21  26
ATOM     25  C   UNL     1       6.281  -1.353   0.991  0.00  0.00    +0.138 C 
ATOM     26  N   UNL     1       6.908  -1.788   2.041  0.00  0.00    -0.188 NA
BRANCH  25  30
ATOM     27  C   UNL     1       2.088  -0.703   1.140  0.00  0.00    +0.030 A 
ATOM     28  C   UNL     1       2.788  -0.449  -0.035  0.00  0.00    +0.024 A 
ATOM     29  C   UNL     1       4.149  -0.659  -0.087  0.00  0.00    +0.011 A 
ATOM     30  C   UNL     1       4.825  -1.127   1.043  0.00  0.00    -0.005 A 
ATOM     31  C   UNL     1       4.118  -1.381   2.222  0.00  0.00    +0.011 A 
ATOM     32  C   UNL     1       2.759  -1.164   2.268  0.00  0.00    +0.024 A 
BRANCH  27  33
ATOM     33  N   UNL     1       0.711  -0.489   1.189  0.00  0.00    -0.330 N 
BRANCH  33  35
ATOM     34  C   UNL     1      -0.019   1.526   0.010  0.00  0.00    +0.024 C 
ATOM     35  C   UNL     1       0.002  -0.004   0.002  0.00  0.00    +0.102 C 
ENDBRANCH  33  35
BRANCH  33  36
ATOM     36  C   UNL     1      -0.028  -0.750   2.427  0.00  0.00    +0.102 C 
ATOM     37  C   UNL     1      -0.511  -2.202   2.437  0.00  0.00    +0.024 C 
ENDBRANCH  33  36
ENDBRANCH  27  33
ENDBRANCH  25  30
ENDBRANCH  21  26
ENDBRANCH  20  22
ENDBRANCH   1  20
TORSDOF 10
