REMARK  Name = ZINC36348012
REMARK  10 active torsions:
REMARK  status: ('A' for Active; 'I' for Inactive)
REMARK    1  A    between atoms: C_1  and  C_2
REMARK    2  A    between atoms: C_2  and  C_3
REMARK    3  A    between atoms: C_2  and  C_4
REMARK    4  A    between atoms: C_7  and  C_10
REMARK    5  A    between atoms: N_20  and  C_21
REMARK    6  A    between atoms: C_21  and  C_22
REMARK    7  A    between atoms: C_24  and  O_30
REMARK    8  A    between atoms: C_26  and  O_28
REMARK    9  A    between atoms: O_28  and  C_29
REMARK   10  A    between atoms: O_30  and  C_31
REMARK                            x       y       z     vdW  Elec       q    Type
REMARK                         _______ _______ _______ _____ _____    ______ ____
ROOT
ATOM      1  C   UNL     1      -5.477  -2.067   0.170  0.00  0.00    +0.011 C 
ATOM      2  C   UNL     1      -6.338  -1.090  -0.592  0.00  0.00    +0.009 A 
ATOM      3  C   UNL     1      -6.215   0.252  -0.586  0.00  0.00    +0.021 A 
ATOM      4  C   UNL     1      -7.228   0.772  -1.417  0.00  0.00    +0.019 A 
ATOM      5  C   UNL     1      -7.929  -0.273  -1.903  0.00  0.00    +0.086 A 
ATOM      6  N   UNL     1      -7.383  -1.418  -1.408  0.00  0.00    -0.352 N 
ATOM      7  C   UNL     1      -7.820  -2.789  -1.700  0.00  0.00    +0.119 C 
ATOM      8  C   UNL     1      -7.898  -3.576  -0.389  0.00  0.00    +0.003 C 
ATOM      9  C   UNL     1      -6.545  -4.206  -0.085  0.00  0.00    -0.075 C 
ATOM     10  N   UNL     1      -5.449  -3.350  -0.546  0.00  0.00    +0.391 N 
ATOM     11  H   UNL     1      -5.549  -3.184  -1.536  0.00  0.00    -0.080 HD
ENDROOT
BRANCH   1  15
ATOM     12  C   UNL     1      -1.507  -0.523   0.485  0.00  0.00    -0.045 A 
ATOM     13  C   UNL     1      -2.051  -0.781  -0.759  0.00  0.00    +0.004 A 
ATOM     14  C   UNL     1      -3.336  -1.282  -0.861  0.00  0.00    +0.002 A 
ATOM     15  C   UNL     1      -4.076  -1.523   0.281  0.00  0.00    -0.055 A 
ATOM     16  C   UNL     1      -3.531  -1.265   1.525  0.00  0.00    +0.002 A 
ATOM     17  C   UNL     1      -2.245  -0.769   1.627  0.00  0.00    +0.004 A 
BRANCH  12  19
ATOM     18  C   UNL     1       0.876  -0.960  -0.046  0.00  0.00    +0.012 C 
ATOM     19  C   UNL     1      -0.106   0.023   0.596  0.00  0.00    +0.013 C 
ATOM     20  C   UNL     1      -0.025   1.370  -0.125  0.00  0.00    +0.012 C 
ENDBRANCH  12  19
ENDBRANCH   1  15
BRANCH  10  21
ATOM     21  C   UNL     1      -4.167  -4.022  -0.294  0.00  0.00    -0.041 C 
BRANCH  21  22
ATOM     22  C   UNL     1      -4.100  -5.294  -1.098  0.00  0.00    -0.057 A 
ATOM     23  C   UNL     1      -4.568  -6.477  -0.558  0.00  0.00    +0.047 A 
ATOM     24  C   UNL     1      -4.507  -7.650  -1.296  0.00  0.00    +0.124 A 
ATOM     25  C   UNL     1      -3.976  -7.635  -2.577  0.00  0.00    +0.091 A 
ATOM     26  C   UNL     1      -3.507  -6.447  -3.117  0.00  0.00    +0.124 A 
ATOM     27  C   UNL     1      -3.575  -5.276  -2.376  0.00  0.00    +0.047 A 
BRANCH  26  28
ATOM     28  O   UNL     1      -2.986  -6.429  -4.372  0.00  0.00    -0.495 OA
ATOM     29  C   UNL     1      -2.952  -7.671  -5.078  0.00  0.00    +0.277 C 
ENDBRANCH  26  28
BRANCH  24  30
ATOM     30  O   UNL     1      -4.967  -8.813  -0.765  0.00  0.00    -0.495 OA
ATOM     31  C   UNL     1      -4.873  -9.982  -1.582  0.00  0.00    +0.277 C 
ENDBRANCH  24  30
ENDBRANCH  21  22
ENDBRANCH  10  21
TORSDOF 6
