REMARK  Name = ZINC33281357
REMARK  11 active torsions:
REMARK  status: ('A' for Active; 'I' for Inactive)
REMARK    1  A    between atoms: C_1  and  C_2
REMARK    2  A    between atoms: N_10  and  C_11
REMARK    3  A    between atoms: C_11  and  C_12
REMARK    4  A    between atoms: N_14  and  C_15
REMARK    5  A    between atoms: C_15  and  C_16
REMARK    6  A    between atoms: C_16  and  C_17
REMARK    7  A    between atoms: N_25  and  C_28
REMARK    8  A    between atoms: C_28  and  C_29
REMARK    9  A    between atoms: C_31  and  C_34
REMARK   10  A    between atoms: C_34  and  C_35
REMARK   11  A    between atoms: C_34  and  C_36
REMARK                            x       y       z     vdW  Elec       q    Type
REMARK                         _______ _______ _______ _____ _____    ______ ____
ROOT
ATOM      1  C   UNL     1       1.908  -9.631   3.568  0.00  0.00    +0.044 C 
ATOM      2  C   UNL     1       2.433  -8.279   3.978  0.00  0.00    -0.050 A 
ATOM      3  C   UNL     1       3.790  -8.109   4.213  0.00  0.00    +0.005 A 
ATOM      4  C   UNL     1       4.288  -6.881   4.588  0.00  0.00    +0.027 A 
ATOM      5  C   UNL     1       3.425  -5.797   4.736  0.00  0.00    +0.052 A 
ATOM      6  C   UNL     1       2.051  -5.977   4.497  0.00  0.00    +0.026 A 
ATOM      7  C   UNL     1       1.569  -7.230   4.117  0.00  0.00    +0.015 A 
ATOM      8  C   UNL     1       1.415  -4.674   4.731  0.00  0.00    +0.103 A 
ATOM      9  C   UNL     1       2.433  -3.796   5.093  0.00  0.00    +0.134 A 
ATOM     10  N   UNL     1       3.632  -4.482   5.091  0.00  0.00    -0.325 N 
ATOM     11  C   UNL     1       2.091  -2.453   5.378  0.00  0.00    +0.279 A 
ATOM     12  O   UNL     1       2.947  -1.646   5.699  0.00  0.00    -0.265 OA
ATOM     13  N   UNL     1       0.794  -2.087   5.287  0.00  0.00    -0.288 N 
ATOM     14  C   UNL     1      -0.152  -2.993   4.933  0.00  0.00    +0.203 A 
ATOM     15  N   UNL     1       0.146  -4.231   4.661  0.00  0.00    -0.235 NA
ENDROOT
BRANCH  10  16
ATOM     16  C   UNL     1       4.935  -3.897   5.421  0.00  0.00    +0.218 C 
BRANCH  16  17
ATOM     17  C   UNL     1       5.188  -4.037   6.900  0.00  0.00    +0.233 C 
ATOM     18  O   UNL     1       4.362  -4.572   7.609  0.00  0.00    -0.274 OA
ATOM     19  N   UNL     1       6.332  -3.567   7.435  0.00  0.00    -0.314 N 
ATOM     20  H   UNL     1       7.082  -3.082   6.792  0.00  0.00    +0.149 HD
BRANCH  19  21
ATOM     21  C   UNL     1       6.579  -3.702   8.873  0.00  0.00    +0.108 C 
BRANCH  21  22
ATOM     22  C   UNL     1       7.939  -3.091   9.217  0.00  0.00    +0.049 C 
BRANCH  22  23
ATOM     23  C   UNL     1       8.192  -3.231  10.696  0.00  0.00    -0.072 C 
ATOM     24  C   UNL     1       8.881  -4.249  11.100  0.00  0.00    -0.028 C 
ATOM     25  C   UNL     1       9.205  -4.527  12.539  0.00  0.00    +0.027 C 
ATOM     26  C   UNL     1       8.995  -3.266  13.380  0.00  0.00    +0.004 C 
ATOM     27  C   UNL     1       7.612  -2.689  13.050  0.00  0.00    +0.005 C 
ATOM     28  C   UNL     1       7.636  -2.176  11.607  0.00  0.00    +0.030 C 
ENDBRANCH  22  23
ENDBRANCH  21  22
ENDBRANCH  19  21
ENDBRANCH  16  17
ENDBRANCH  10  16
BRANCH  13  29
ATOM     29  C   UNL     1       0.407  -0.704   5.576  0.00  0.00    +0.225 C 
BRANCH  29  30
ATOM     30  C   UNL     1       0.466   0.110   4.310  0.00  0.00    +0.247 A 
ATOM     31  N   UNL     1      -0.510   0.296   3.454  0.00  0.00    -0.194 NA
ATOM     32  C   UNL     1       0.000   1.080   2.488  0.00  0.00    +0.174 A 
ATOM     33  N   UNL     1       1.235   1.333   2.803  0.00  0.00    -0.061 NA
ATOM     34  O   UNL     1       1.523   0.785   3.846  0.00  0.00    -0.336 OA
BRANCH  32  35
ATOM     35  C   UNL     1      -0.729   1.579   1.267  0.00  0.00    +0.054 C 
ATOM     36  C   UNL     1      -0.013   1.086   0.008  0.00  0.00    +0.015 C 
ATOM     37  C   UNL     1      -0.750   3.109   1.275  0.00  0.00    +0.015 C 
ENDBRANCH  32  35
ENDBRANCH  29  30
ENDBRANCH  13  29
TORSDOF 8
