REMARK  Name = ZINC32764836
REMARK  13 active torsions:
REMARK  status: ('A' for Active; 'I' for Inactive)
REMARK    1  A    between atoms: C_1  and  C_2
REMARK    2  A    between atoms: C_2  and  C_3
REMARK    3  A    between atoms: C_5  and  C_25
REMARK    4  A    between atoms: C_6  and  C_11
REMARK    5  A    between atoms: C_11  and  N_12
REMARK    6  A    between atoms: N_12  and  C_13
REMARK    7  A    between atoms: C_13  and  C_15
REMARK    8  A    between atoms: C_13  and  C_22
REMARK    9  A    between atoms: C_22  and  C_23
REMARK   10  A    between atoms: C_22  and  C_24
REMARK   11  A    between atoms: C_25  and  O_27
REMARK   12  A    between atoms: O_27  and  C_28
REMARK   13  A    between atoms: C_28  and  C_29
REMARK                            x       y       z     vdW  Elec       q    Type
REMARK                         _______ _______ _______ _____ _____    ______ ____
ROOT
ATOM      1  C   UNL     1       0.764   2.332   1.334  0.00  0.00    +0.113 C 
ATOM      2  C   UNL     1      -0.373   1.342   1.176  0.00  0.00    +0.072 C 
ATOM      3  C   UNL     1      -1.518   1.786   0.613  0.00  0.00    +0.007 C 
ATOM      4  N   UNL     1      -1.642   3.079   0.192  0.00  0.00    -0.274 N 
ATOM      5  C   UNL     1      -0.671   3.993   0.307  0.00  0.00    +0.304 C 
ATOM      6  O   UNL     1      -0.877   5.123  -0.093  0.00  0.00    -0.253 OA
ATOM      7  N   UNL     1       0.527   3.703   0.852  0.00  0.00    -0.292 N 
ATOM      8  H   UNL     1      -2.580   3.418  -0.272  0.00  0.00    +0.156 HD
ATOM      9  H   UNL     1       1.318   4.462   0.942  0.00  0.00    +0.151 HD
ENDROOT
BRANCH   1  11
ATOM     10  C   UNL     1       2.445   3.151   2.991  0.00  0.00    +0.006 C 
ATOM     11  C   UNL     1       1.118   2.408   2.820  0.00  0.00    +0.024 C 
ENDBRANCH   1  11
BRANCH   2  12
ATOM     12  C   UNL     1      -0.241   0.002   1.608  0.00  0.00    +0.338 C 
ATOM     13  O   UNL     1      -1.188  -0.758   1.529  0.00  0.00    -0.245 OA
BRANCH  12  14
ATOM     14  O   UNL     1       0.934  -0.434   2.107  0.00  0.00    -0.462 OA
BRANCH  14  15
ATOM     15  C   UNL     1       0.996  -1.799   2.524  0.00  0.00    +0.229 C 
ATOM     16  C   UNL     1       2.397  -2.107   3.057  0.00  0.00    +0.048 C 
ENDBRANCH  14  15
ENDBRANCH  12  14
ENDBRANCH   2  12
BRANCH   3  17
ATOM     17  C   UNL     1      -2.676   0.836   0.442  0.00  0.00    -0.029 C 
BRANCH  17  18
ATOM     18  N   UNL     1      -2.498   0.065  -0.796  0.00  0.00    +0.387 N 
ATOM     19  H   UNL     1      -2.358   0.756  -1.640  0.00  0.00    -0.084 HD
ATOM     20  H   UNL     1      -1.615  -0.583  -0.701  0.00  0.00    -0.084 HD
BRANCH  18  21
ATOM     21  C   UNL     1      -3.672  -0.776  -1.065  0.00  0.00    -0.038 C 
BRANCH  21  22
ATOM     22  C   UNL     1      -3.809  -0.987  -2.551  0.00  0.00    -0.061 A 
ATOM     23  C   UNL     1      -2.683  -1.196  -3.325  0.00  0.00    +0.005 A 
ATOM     24  C   UNL     1      -2.807  -1.395  -4.687  0.00  0.00    +0.038 A 
ATOM     25  C   UNL     1      -4.059  -1.374  -5.278  0.00  0.00    +0.123 A 
ATOM     26  C   UNL     1      -5.186  -1.159  -4.502  0.00  0.00    +0.038 A 
ATOM     27  C   UNL     1      -5.059  -0.966  -3.140  0.00  0.00    +0.005 A 
ATOM     28  F   UNL     1      -4.181  -1.564  -6.610  0.00  0.00    -0.205 F 
ENDBRANCH  21  22
BRANCH  21  29
ATOM     29  C   UNL     1      -3.501  -2.128  -0.371  0.00  0.00    -0.027 C 
ATOM     30  C   UNL     1      -4.778  -2.953  -0.538  0.00  0.00    +0.006 C 
ATOM     31  C   UNL     1      -2.324  -2.878  -0.999  0.00  0.00    +0.006 C 
ENDBRANCH  21  29
ENDBRANCH  18  21
ENDBRANCH  17  18
ENDBRANCH   3  17
TORSDOF 9
