REMARK  Name = ZINC65743388
REMARK  11 active torsions:
REMARK  status: ('A' for Active; 'I' for Inactive)
REMARK    1  A    between atoms: C_1  and  C_2
REMARK    2  A    between atoms: C_2  and  C_3
REMARK    3  A    between atoms: C_2  and  C_30
REMARK    4  A    between atoms: C_2  and  O_34
REMARK    5  A    between atoms: C_9  and  O_28
REMARK    6  A    between atoms: C_22  and  O_25
REMARK    7  A    between atoms: O_25  and  C_26
REMARK    8  A    between atoms: O_28  and  C_29
REMARK    9  A    between atoms: C_30  and  C_31
REMARK   10  A    between atoms: C_30  and  C_32
REMARK   11  A    between atoms: C_30  and  C_33
REMARK                            x       y       z     vdW  Elec       q    Type
REMARK                         _______ _______ _______ _____ _____    ______ ____
ROOT
ATOM      1  C   UNL     1       0.990  -0.306   0.435  0.00  0.00    +0.057 C 
ATOM      2  C   UNL     1       1.153  -1.818   0.636  0.00  0.00    +0.015 C 
ATOM      3  C   UNL     1       2.559  -2.225   0.220  0.00  0.00    -0.028 C 
ATOM      4  C   UNL     1       2.764  -1.888  -1.262  0.00  0.00    +0.009 C 
ATOM      5  C   UNL     1       2.595  -0.384  -1.476  0.00  0.00    +0.039 C 
ATOM      6  C   UNL     1       2.270   0.300  -0.148  0.00  0.00    +0.112 C 
ATOM      7  C   UNL     1       3.425   0.087   0.834  0.00  0.00    +0.217 C 
ATOM      8  C   UNL     1       3.575  -1.420   1.044  0.00  0.00    +0.042 C 
ATOM      9  C   UNL     1       3.567  -1.816   2.499  0.00  0.00    -0.003 C 
ATOM     10  C   UNL     1       3.686  -3.333   2.655  0.00  0.00    -0.081 C 
ATOM     11  N   UNL     1       2.625  -3.994   1.880  0.00  0.00    +0.382 N 
ATOM     12  C   UNL     1       2.853  -3.703   0.447  0.00  0.00    -0.060 C 
ATOM     13  C   UNL     1       4.288  -4.117   0.123  0.00  0.00    +0.020 C 
ATOM     14  C   UNL     1       5.231  -2.984  -0.101  0.00  0.00    -0.041 A 
ATOM     15  C   UNL     1       4.859  -1.725   0.331  0.00  0.00    +0.011 A 
ATOM     16  C   UNL     1       5.488  -0.539   0.014  0.00  0.00    +0.167 A 
ATOM     17  C   UNL     1       6.746  -0.622  -0.599  0.00  0.00    +0.162 A 
ATOM     18  C   UNL     1       7.206  -1.898  -0.920  0.00  0.00    +0.050 A 
ATOM     19  C   UNL     1       6.471  -3.054  -0.704  0.00  0.00    +0.007 A 
ATOM     20  O   UNL     1       4.677   0.520   0.271  0.00  0.00    -0.481 OA
ATOM     21  H   UNL     1       2.660  -4.991   2.035  0.00  0.00    -0.085 HD
ATOM     22  H   UNL     1       1.724  -3.637   2.161  0.00  0.00    -0.085 HD
ENDROOT
BRANCH   1  24
ATOM     23  C   UNL     1      -0.214   1.438  -0.889  0.00  0.00    +0.042 C 
ATOM     24  C   UNL     1      -0.174  -0.048  -0.524  0.00  0.00    +0.074 C 
BRANCH  24  25
ATOM     25  C   UNL     1      -1.489  -0.443   0.151  0.00  0.00    -0.009 C 
ATOM     26  C   UNL     1      -2.665   0.039  -0.702  0.00  0.00    +0.013 C 
ATOM     27  C   UNL     1      -1.552  -1.964   0.294  0.00  0.00    +0.013 C 
ATOM     28  C   UNL     1      -1.565   0.203   1.536  0.00  0.00    +0.013 C 
ENDBRANCH  24  25
BRANCH  24  29
ATOM     29  O   UNL     1       0.005  -0.825  -1.710  0.00  0.00    -0.388 OA
ATOM     30  H   UNL     1       0.039  -1.778  -1.554  0.00  0.00    +0.210 HD
ENDBRANCH  24  29
ENDBRANCH   1  24
BRANCH  17  31
ATOM     31  O   UNL     1       7.483   0.489  -0.867  0.00  0.00    -0.491 OA
ATOM     32  C   UNL     1       8.752   0.290  -1.494  0.00  0.00    +0.277 C 
ENDBRANCH  17  31
BRANCH   6  33
ATOM     33  O   UNL     1       2.078   1.699  -0.368  0.00  0.00    -0.373 OA
ATOM     34  C   UNL     1       3.219   2.364  -0.913  0.00  0.00    +0.194 C 
ENDBRANCH   6  33
TORSDOF 5
