REMARK  Name = ZINC67207649
REMARK  7 active torsions:
REMARK  status: ('A' for Active; 'I' for Inactive)
REMARK    1  A    between atoms: C_1  and  C_2
REMARK    2  A    between atoms: C_2  and  C_3
REMARK    3  A    between atoms: C_8  and  N_9
REMARK    4  A    between atoms: C_10  and  C_12
REMARK    5  A    between atoms: C_12  and  N_13
REMARK    6  A    between atoms: C_17  and  C_18
REMARK    7  A    between atoms: C_20  and  C_23
REMARK                            x       y       z     vdW  Elec       q    Type
REMARK                         _______ _______ _______ _____ _____    ______ ____
ROOT
ATOM      1  N   UNL     1       6.362  -0.515   0.938  0.00  0.00    -0.334 N 
ATOM      2  C   UNL     1       6.981  -1.693   1.210  0.00  0.00    +0.087 A 
ATOM      3  C   UNL     1       8.284  -1.588   0.859  0.00  0.00    +0.020 A 
ATOM      4  C   UNL     1       8.487  -0.299   0.350  0.00  0.00    +0.033 A 
ATOM      5  C   UNL     1       7.285   0.351   0.401  0.00  0.00    +0.108 A 
ENDROOT
BRANCH   5   6
ATOM      6  C   UNL     1       7.027   1.729  -0.037  0.00  0.00    +0.275 A 
ATOM      7  N   UNL     1       7.913   2.553  -0.556  0.00  0.00    -0.186 NA
ATOM      8  C   UNL     1       7.332   3.728  -0.840  0.00  0.00    +0.202 A 
ATOM      9  N   UNL     1       6.065   3.668  -0.505  0.00  0.00    -0.056 NA
ATOM     10  O   UNL     1       5.843   2.367   0.017  0.00  0.00    -0.331 OA
BRANCH   8  11
ATOM     11  C   UNL     1       8.012   4.905  -1.436  0.00  0.00    +0.024 A 
ATOM     12  C   UNL     1       9.367   4.843  -1.753  0.00  0.00    +0.014 A 
ATOM     13  C   UNL     1       9.996   5.939  -2.307  0.00  0.00    +0.040 A 
ATOM     14  C   UNL     1       9.281   7.102  -2.547  0.00  0.00    +0.137 A 
ATOM     15  C   UNL     1       7.933   7.169  -2.233  0.00  0.00    +0.054 A 
ATOM     16  C   UNL     1       7.295   6.074  -1.684  0.00  0.00    +0.029 A 
ATOM     17 BR   UNL     1       6.964   8.759  -2.563  0.00  0.00    -0.047 Br
ATOM     18  F   UNL     1       9.901   8.173  -3.089  0.00  0.00    -0.204 F 
ENDBRANCH   8  11
ENDBRANCH   5   6
BRANCH   1  19
ATOM     19  C   UNL     1       4.947  -0.219   1.171  0.00  0.00    +0.217 C 
BRANCH  19  21
ATOM     20  N   UNL     1       2.833  -0.268  -0.113  0.00  0.00    -0.284 N 
ATOM     21  C   UNL     1       4.165  -0.474  -0.091  0.00  0.00    +0.237 C 
ATOM     22  O   UNL     1       4.734  -0.865  -1.088  0.00  0.00    -0.274 OA
ATOM     23  H   UNL     1       2.388   0.106   0.663  0.00  0.00    +0.155 HD
BRANCH  20  29
ATOM     24  C   UNL     1       0.800  -1.084  -1.129  0.00  0.00    -0.026 A 
ATOM     25  C   UNL     1       0.070  -1.399  -2.258  0.00  0.00    +0.005 A 
ATOM     26  C   UNL     1       0.627  -1.234  -3.513  0.00  0.00    +0.000 A 
ATOM     27  C   UNL     1       1.917  -0.751  -3.641  0.00  0.00    +0.002 A 
ATOM     28  C   UNL     1       2.652  -0.433  -2.516  0.00  0.00    +0.023 A 
ATOM     29  C   UNL     1       2.093  -0.594  -1.255  0.00  0.00    +0.037 A 
BRANCH  24  31
ATOM     30  C   UNL     1      -0.422   0.058   0.702  0.00  0.00    +0.009 C 
ATOM     31  C   UNL     1       0.191  -1.265   0.238  0.00  0.00    +0.033 C 
ENDBRANCH  24  31
ENDBRANCH  20  29
ENDBRANCH  19  21
ENDBRANCH   1  19
TORSDOF 6
