REMARK  Name = ZINC39415643
REMARK  5 active torsions:
REMARK  status: ('A' for Active; 'I' for Inactive)
REMARK    1  A    between atoms: C_4  and  C_7
REMARK    2  A    between atoms: C_11  and  S_21
REMARK    3  A    between atoms: N_13  and  C_14
REMARK    4  A    between atoms: S_21  and  C_22
REMARK    5  A    between atoms: C_22  and  C_23
REMARK                            x       y       z     vdW  Elec       q    Type
REMARK                         _______ _______ _______ _____ _____    ______ ____
ROOT
ATOM      1  C   UNL     1       3.675  -0.850   0.016  0.00  0.00    +0.218 C 
ATOM      2  N   UNL     1       4.343   0.245   0.721  0.00  0.00    -0.286 N 
ATOM      3  N   UNL     1       4.894  -0.143   1.749  0.00  0.00    -0.180 NA
ATOM      4  C   UNL     1       4.714  -1.581   1.954  0.00  0.00    +0.273 C 
ATOM      5  N   UNL     1       3.910  -2.065   0.816  0.00  0.00    -0.273 N 
ATOM      6  H   UNL     1       4.350   1.165   0.415  0.00  0.00    +0.185 HD
ENDROOT
BRANCH   5   7
ATOM      7  C   UNL     1       3.474  -3.368   0.556  0.00  0.00    +0.034 A 
ATOM      8  C   UNL     1       2.833  -3.661  -0.640  0.00  0.00    +0.026 A 
ATOM      9  C   UNL     1       2.403  -4.949  -0.894  0.00  0.00    +0.040 A 
ATOM     10  C   UNL     1       2.611  -5.947   0.043  0.00  0.00    +0.124 A 
ATOM     11  C   UNL     1       3.250  -5.657   1.237  0.00  0.00    +0.040 A 
ATOM     12  C   UNL     1       3.686  -4.371   1.493  0.00  0.00    +0.026 A 
ATOM     13  F   UNL     1       2.189  -7.206  -0.207  0.00  0.00    -0.205 F 
ENDBRANCH   5   7
BRANCH   1  17
ATOM     14  C   UNL     1      -0.516  -0.070  -0.267  0.00  0.00    +0.000 A 
ATOM     15  C   UNL     1      -0.070  -1.274   0.246  0.00  0.00    +0.000 A 
ATOM     16  C   UNL     1       1.286  -1.526   0.338  0.00  0.00    +0.007 A 
ATOM     17  C   UNL     1       2.196  -0.575  -0.085  0.00  0.00    -0.006 A 
ATOM     18  C   UNL     1       1.750   0.628  -0.598  0.00  0.00    +0.007 A 
ATOM     19  C   UNL     1       0.394   0.882  -0.688  0.00  0.00    +0.000 A 
ENDBRANCH   1  17
BRANCH   4  20
ATOM     20  S   UNL     1       3.836  -1.884   3.512  0.00  0.00    -0.106 S 
BRANCH  20  21
ATOM     21  C   UNL     1       2.340  -0.867   3.378  0.00  0.00    +0.147 C 
BRANCH  21  22
ATOM     22  C   UNL     1       1.504  -1.036   4.620  0.00  0.00    +0.120 A 
ATOM     23  N   UNL     1       0.332  -0.354   4.708  0.00  0.00    -0.309 N 
ATOM     24  H   UNL     1       0.047   0.225   3.985  0.00  0.00    +0.170 HD
ATOM     25  C   UNL     1      -0.434  -0.492   5.817  0.00  0.00    +0.266 A 
ATOM     26  O   UNL     1      -1.492   0.105   5.926  0.00  0.00    -0.267 OA
ATOM     27  C   UNL     1       0.019  -1.338   6.830  0.00  0.00    +0.102 A 
ATOM     28  C   UNL     1       1.237  -2.032   6.714  0.00  0.00    +0.085 A 
ATOM     29  N   UNL     1       1.936  -1.828   5.549  0.00  0.00    -0.232 NA
ATOM     30  C   UNL     1       1.573  -2.846   7.803  0.00  0.00    +0.036 A 
ATOM     31  C   UNL     1       0.750  -2.927   8.871  0.00  0.00    +0.048 A 
ATOM     32  S   UNL     1      -0.591  -1.839   8.417  0.00  0.00    -0.090 S 
ENDBRANCH  21  22
ENDBRANCH  20  21
ENDBRANCH   4  20
TORSDOF 5
