REMARK  Name = ZINC54446169
REMARK  6 active torsions:
REMARK  status: ('A' for Active; 'I' for Inactive)
REMARK    1  A    between atoms: C_1  and  C_2
REMARK    2  A    between atoms: C_5  and  O_9
REMARK    3  A    between atoms: C_6  and  C_8
REMARK    4  A    between atoms: O_9  and  C_10
REMARK    5  A    between atoms: C_10  and  C_12
REMARK    6  A    between atoms: N_21  and  C_22
REMARK                            x       y       z     vdW  Elec       q    Type
REMARK                         _______ _______ _______ _____ _____    ______ ____
ROOT
ATOM      1  C   UNL     1       1.100  -6.076  -1.394  0.00  0.00    +0.116 C 
ATOM      2  C   UNL     1       0.438  -6.497  -2.708  0.00  0.00    +0.018 C 
ATOM      3  C   UNL     1      -0.236  -7.860  -2.528  0.00  0.00    +0.020 C 
ATOM      4  C   UNL     1       0.823  -8.905  -2.164  0.00  0.00    +0.109 C 
ATOM      5  N   UNL     1       1.563  -8.437  -0.984  0.00  0.00    -0.285 N 
ATOM      6  C   UNL     1       2.174  -7.101  -1.016  0.00  0.00    +0.124 C 
ATOM      7  C   UNL     1       1.679  -9.218   0.108  0.00  0.00    +0.307 C 
ATOM      8  O   UNL     1       2.185  -8.775   1.122  0.00  0.00    -0.252 OA
ATOM      9  N   UNL     1       1.234 -10.490   0.078  0.00  0.00    -0.267 N 
ATOM     10  H   UNL     1       0.752 -10.816  -0.698  0.00  0.00    +0.156 HD
ENDROOT
BRANCH   9  11
ATOM     11  C   UNL     1       1.467 -11.340   1.166  0.00  0.00    +0.070 A 
ATOM     12  C   UNL     1       1.534 -10.821   2.452  0.00  0.00    +0.026 A 
ATOM     13  C   UNL     1       1.764 -11.662   3.524  0.00  0.00    +0.002 A 
ATOM     14  C   UNL     1       1.927 -13.020   3.318  0.00  0.00    +0.003 A 
ATOM     15  C   UNL     1       1.861 -13.541   2.039  0.00  0.00    +0.040 A 
ATOM     16  C   UNL     1       1.625 -12.706   0.962  0.00  0.00    +0.145 A 
ATOM     17  F   UNL     1       1.554 -13.216  -0.287  0.00  0.00    -0.204 F 
ENDBRANCH   9  11
BRANCH   1  18
ATOM     18  C   UNL     1       1.736  -4.720  -1.563  0.00  0.00    +0.317 C 
ATOM     19  O   UNL     1       1.665  -4.148  -2.625  0.00  0.00    -0.250 OA
BRANCH  18  20
ATOM     20  O   UNL     1       2.380  -4.148  -0.534  0.00  0.00    -0.425 OA
BRANCH  20  25
ATOM     21  C   UNL     1       4.282   1.111  -1.202  0.00  0.00    +0.044 C 
ATOM     22  C   UNL     1       3.773  -0.296  -1.023  0.00  0.00    -0.050 A 
ATOM     23  C   UNL     1       4.610  -1.369  -1.268  0.00  0.00    +0.007 A 
ATOM     24  C   UNL     1       4.146  -2.660  -1.105  0.00  0.00    +0.047 A 
ATOM     25  C   UNL     1       2.839  -2.879  -0.695  0.00  0.00    +0.135 A 
ATOM     26  C   UNL     1       2.002  -1.801  -0.449  0.00  0.00    -0.008 A 
ATOM     27  C   UNL     1       2.472  -0.511  -0.608  0.00  0.00    +0.010 A 
ATOM     28  C   UNL     1       0.582  -2.035  -0.002  0.00  0.00    +0.047 C 
ENDBRANCH  20  25
ENDBRANCH  18  20
ENDBRANCH   1  18
TORSDOF 4
