REMARK  Name = ZINC20287068
REMARK  12 active torsions:
REMARK  status: ('A' for Active; 'I' for Inactive)
REMARK    1  A    between atoms: C_1  and  C_2
REMARK    2  A    between atoms: C_2  and  C_3
REMARK    3  A    between atoms: C_3  and  C_4
REMARK    4  A    between atoms: N_6  and  C_30
REMARK    5  A    between atoms: C_10  and  C_11
REMARK    6  A    between atoms: C_10  and  N_12
REMARK    7  A    between atoms: N_12  and  C_13
REMARK    8  A    between atoms: C_16  and  S_19
REMARK    9  A    between atoms: S_19  and  N_22
REMARK   10  A    between atoms: N_22  and  C_23
REMARK   11  A    between atoms: C_24  and  C_29
REMARK   12  A    between atoms: C_25  and  C_28
REMARK                            x       y       z     vdW  Elec       q    Type
REMARK                         _______ _______ _______ _____ _____    ______ ____
ROOT
ATOM      1  N   UNL     1       2.124  -1.197  -3.792  0.00  0.00    -0.317 N 
ATOM      2  H   UNL     1       2.894  -0.743  -3.416  0.00  0.00    +0.152 HD
ENDROOT
BRANCH   1   9
ATOM      3  C   UNL     1       1.016  -0.841  -1.076  0.00  0.00    +0.074 C 
ATOM      4  N   UNL     1       0.441  -1.121   0.054  0.00  0.00    -0.176 NA
ATOM      5  N   UNL     1       0.077  -2.465   0.119  0.00  0.00    -0.156 N 
ATOM      6  C   UNL     1       0.429  -3.096  -1.019  0.00  0.00    +0.274 C 
ATOM      7  O   UNL     1       0.256  -4.273  -1.289  0.00  0.00    -0.268 OA
ATOM      8  C   UNL     1       1.057  -2.078  -1.871  0.00  0.00    +0.078 C 
ATOM      9  C   UNL     1       1.576  -2.246  -3.143  0.00  0.00    +0.019 C 
ATOM     10  C   UNL     1       1.528  -3.599  -3.804  0.00  0.00    +0.061 C 
BRANCH   5  11
ATOM     11  C   UNL     1      -0.561  -3.072   1.209  0.00  0.00    +0.061 A 
ATOM     12  C   UNL     1      -0.873  -4.424   1.167  0.00  0.00    +0.028 A 
ATOM     13  C   UNL     1      -1.502  -5.021   2.243  0.00  0.00    +0.040 A 
ATOM     14  C   UNL     1      -1.822  -4.271   3.362  0.00  0.00    +0.124 A 
ATOM     15  C   UNL     1      -1.512  -2.921   3.405  0.00  0.00    +0.040 A 
ATOM     16  C   UNL     1      -0.878  -2.323   2.335  0.00  0.00    +0.028 A 
ATOM     17  F   UNL     1      -2.437  -4.856   4.413  0.00  0.00    -0.205 F 
ENDBRANCH   5  11
BRANCH   3  18
ATOM     18  C   UNL     1       1.541   0.506  -1.499  0.00  0.00    +0.057 C 
BRANCH  18  20
ATOM     19  C   UNL     1       1.834   2.890  -0.809  0.00  0.00    +0.004 C 
ATOM     20  C   UNL     1       1.302   1.521  -0.379  0.00  0.00    +0.003 C 
ENDBRANCH  18  20
ENDBRANCH   3  18
ENDBRANCH   1   9
BRANCH   1  21
ATOM     21  C   UNL     1       1.584  -0.766  -5.006  0.00  0.00    +0.031 A 
ATOM     22  C   UNL     1       0.389  -1.305  -5.467  0.00  0.00    +0.025 A 
ATOM     23  C   UNL     1      -0.143  -0.877  -6.667  0.00  0.00    +0.031 A 
ATOM     24  C   UNL     1       0.512   0.088  -7.410  0.00  0.00    +0.111 A 
ATOM     25  C   UNL     1       1.702   0.627  -6.955  0.00  0.00    +0.031 A 
ATOM     26  C   UNL     1       2.236   0.207  -5.753  0.00  0.00    +0.025 A 
BRANCH  24  27
ATOM     27  S   UNL     1      -0.169   0.631  -8.942  0.00  0.00    +0.094 S 
ATOM     28  O   UNL     1       0.912   1.144  -9.708  0.00  0.00    -0.148 OA
ATOM     29  O   UNL     1      -1.005  -0.419  -9.410  0.00  0.00    -0.148 OA
BRANCH  27  30
ATOM     30  N   UNL     1      -1.163   1.913  -8.608  0.00  0.00    -0.057 NA
BRANCH  30  31
ATOM     31  C   UNL     1      -1.840   2.548  -9.633  0.00  0.00    +0.262 A 
ATOM     32  C   UNL     1      -2.678   3.610  -9.501  0.00  0.00    +0.037 A 
ATOM     33  C   UNL     1      -3.154   3.947 -10.775  0.00  0.00    +0.085 A 
ATOM     34  N   UNL     1      -2.625   3.124 -11.640  0.00  0.00    -0.081 NA
ATOM     35  O   UNL     1      -1.783   2.229 -10.937  0.00  0.00    -0.336 OA
ATOM     36  C   UNL     1      -4.111   5.067 -11.093  0.00  0.00    +0.069 C 
ATOM     37  C   UNL     1      -3.035   4.303  -8.211  0.00  0.00    +0.051 C 
ENDBRANCH  30  31
ENDBRANCH  27  30
ENDBRANCH  24  27
ENDBRANCH   1  21
TORSDOF 8
