REMARK  Name = ZINC33059011
REMARK  7 active torsions:
REMARK  status: ('A' for Active; 'I' for Inactive)
REMARK    1  A    between atoms: C_1  and  C_2
REMARK    2  A    between atoms: C_3  and  S_17
REMARK    3  A    between atoms: C_4  and  C_7
REMARK    4  A    between atoms: C_8  and  C_9
REMARK    5  A    between atoms: S_17  and  N_20
REMARK    6  A    between atoms: C_23  and  C_26
REMARK    7  A    between atoms: N_28  and  C_29
REMARK                            x       y       z     vdW  Elec       q    Type
REMARK                         _______ _______ _______ _____ _____    ______ ____
ROOT
ATOM      1  S   UNL     1      -0.820  -0.865   1.153  0.00  0.00    +0.066 S 
ATOM      2  O   UNL     1      -0.190  -2.136   1.237  0.00  0.00    -0.153 OA
ATOM      3  O   UNL     1      -0.961  -0.009   2.278  0.00  0.00    -0.153 OA
ENDROOT
BRANCH   1   6
ATOM      4  C   UNL     1      -3.678   0.955   1.444  0.00  0.00    +0.071 C 
ATOM      5  C   UNL     1      -3.590  -0.347   0.690  0.00  0.00    +0.107 A 
ATOM      6  C   UNL     1      -2.444  -1.149   0.529  0.00  0.00    +0.174 A 
ATOM      7  C   UNL     1      -2.894  -2.217  -0.228  0.00  0.00    +0.187 A 
ATOM      8  O   UNL     1      -4.201  -1.982  -0.455  0.00  0.00    -0.353 OA
ATOM      9  N   UNL     1      -4.559  -0.947   0.057  0.00  0.00    -0.081 NA
BRANCH   7  10
ATOM     10  C   UNL     1      -2.111  -3.366  -0.688  0.00  0.00    +0.052 C 
ATOM     11  C   UNL     1      -2.698  -4.331  -1.423  0.00  0.00    +0.014 C 
BRANCH  11  12
ATOM     12  C   UNL     1      -1.911  -5.486  -1.885  0.00  0.00    +0.010 A 
ATOM     13  C   UNL     1      -0.553  -5.582  -1.568  0.00  0.00    +0.013 A 
ATOM     14  C   UNL     1       0.177  -6.668  -1.999  0.00  0.00    +0.039 A 
ATOM     15  C   UNL     1      -0.429  -7.660  -2.756  0.00  0.00    +0.126 A 
ATOM     16  C   UNL     1      -1.773  -7.571  -3.079  0.00  0.00    +0.077 A 
ATOM     17  C   UNL     1      -2.518  -6.490  -2.649  0.00  0.00    +0.133 A 
ATOM     18  F   UNL     1      -3.829  -6.403  -2.964  0.00  0.00    -0.205 F 
ATOM     19  F   UNL     1       0.295  -8.720  -3.179  0.00  0.00    -0.205 F 
ENDBRANCH  11  12
ENDBRANCH   7  10
ENDBRANCH   1   6
BRANCH   1  20
ATOM     20  N   UNL     1       0.002  -0.004   0.002  0.00  0.00    -0.176 NA
ATOM     21  C   UNL     1      -0.018   1.465   0.010  0.00  0.00    +0.110 C 
ATOM     22  C   UNL     1       1.426   1.978  -0.001  0.00  0.00    +0.030 C 
ATOM     23  C   UNL     1       2.171   1.366  -1.189  0.00  0.00    +0.077 C 
ATOM     24  C   UNL     1       2.201  -0.158  -1.045  0.00  0.00    +0.030 C 
ATOM     25  C   UNL     1       0.766  -0.695  -1.046  0.00  0.00    +0.110 C 
BRANCH  23  26
ATOM     26  C   UNL     1       3.582   1.895  -1.223  0.00  0.00    +0.216 C 
ATOM     27  O   UNL     1       4.519   1.129  -1.140  0.00  0.00    -0.276 OA
ATOM     28  N   UNL     1       3.803   3.218  -1.345  0.00  0.00    -0.312 N 
ATOM     29  H   UNL     1       2.953   3.913  -1.421  0.00  0.00    +0.149 HD
BRANCH  28  30
ATOM     30  C   UNL     1       5.174   3.732  -1.378  0.00  0.00    +0.073 C 
ATOM     31  C   UNL     1       5.680   3.929   0.053  0.00  0.00    +0.022 C 
ATOM     32  C   UNL     1       7.112   4.465   0.018  0.00  0.00    +0.002 C 
ATOM     33  C   UNL     1       7.137   5.805  -0.720  0.00  0.00    +0.000 C 
ATOM     34  C   UNL     1       6.632   5.609  -2.151  0.00  0.00    +0.002 C 
ATOM     35  C   UNL     1       5.199   5.072  -2.116  0.00  0.00    +0.022 C 
ENDBRANCH  28  30
ENDBRANCH  23  26
ENDBRANCH   1  20
TORSDOF 6
