REMARK  Name = ZINC15218612
REMARK  4 active torsions:
REMARK  status: ('A' for Active; 'I' for Inactive)
REMARK    1  A    between atoms: C_4  and  O_24
REMARK    2  A    between atoms: C_5  and  C_7
REMARK    3  A    between atoms: N_8  and  C_9
REMARK    4  A    between atoms: C_13  and  C_20
REMARK                            x       y       z     vdW  Elec       q    Type
REMARK                         _______ _______ _______ _____ _____    ______ ____
ROOT
ATOM      1  C   UNL     1       3.545  -2.088   0.264  0.00  0.00    +0.067 A 
ATOM      2  C   UNL     1       3.839  -0.982  -0.547  0.00  0.00    +0.028 A 
ATOM      3  C   UNL     1       4.990  -0.277  -0.358  0.00  0.00    +0.014 A 
ATOM      4  C   UNL     1       5.885  -0.657   0.650  0.00  0.00    +0.029 A 
ATOM      5  C   UNL     1       7.127   0.086   0.872  0.00  0.00    +0.072 A 
ATOM      6  C   UNL     1       7.956  -0.330   1.865  0.00  0.00    +0.105 A 
ATOM      7  C   UNL     1       7.607  -1.449   2.648  0.00  0.00    +0.338 A 
ATOM      8  O   UNL     1       8.360  -1.811   3.535  0.00  0.00    -0.245 OA
ATOM      9  O   UNL     1       6.467  -2.127   2.440  0.00  0.00    -0.422 OA
ATOM     10  C   UNL     1       5.600  -1.766   1.470  0.00  0.00    +0.142 A 
ATOM     11  C   UNL     1       4.426  -2.474   1.275  0.00  0.00    +0.074 A 
ENDROOT
BRANCH   5  12
ATOM     12  C   UNL     1       7.477   1.279   0.020  0.00  0.00    +0.418 C 
ATOM     13  F   UNL     1       8.706   1.804   0.435  0.00  0.00    -0.166 F 
ATOM     14  F   UNL     1       7.565   0.886  -1.320  0.00  0.00    -0.166 F 
ATOM     15  F   UNL     1       6.484   2.255   0.155  0.00  0.00    -0.166 F 
ENDBRANCH   5  12
BRANCH   1  17
ATOM     16  C   UNL     1       1.238  -2.176   0.128  0.00  0.00    +0.123 C 
ATOM     17  N   UNL     1       2.389  -2.788   0.066  0.00  0.00    -0.255 NA
BRANCH  16  22
ATOM     18  C   UNL     1       2.045   1.001   1.948  0.00  0.00    +0.001 A 
ATOM     19  C   UNL     1       1.039   1.838   1.492  0.00  0.00    +0.004 A 
ATOM     20  C   UNL     1       0.097   1.375   0.594  0.00  0.00    +0.046 A 
ATOM     21  C   UNL     1       0.152   0.066   0.141  0.00  0.00    +0.125 A 
ATOM     22  C   UNL     1       1.169  -0.786   0.600  0.00  0.00    +0.034 A 
ATOM     23  C   UNL     1       2.116  -0.303   1.509  0.00  0.00    +0.013 A 
BRANCH  21  24
ATOM     24  O   UNL     1      -0.774  -0.390  -0.740  0.00  0.00    -0.506 OA
ATOM     25  H   UNL     1      -0.564  -0.198  -1.665  0.00  0.00    +0.292 HD
ENDBRANCH  21  24
ENDBRANCH  16  22
ENDBRANCH   1  17
TORSDOF 4
