REMARK  Name = ZINC16569702
REMARK  6 active torsions:
REMARK  status: ('A' for Active; 'I' for Inactive)
REMARK    1  A    between atoms: C_12  and  C_35
REMARK    2  A    between atoms: C_15  and  C_17
REMARK    3  A    between atoms: C_17  and  N_18
REMARK    4  A    between atoms: N_18  and  C_19
REMARK    5  A    between atoms: N_24  and  C_25
REMARK    6  A    between atoms: C_28  and  C_31
REMARK                            x       y       z     vdW  Elec       q    Type
REMARK                         _______ _______ _______ _____ _____    ______ ____
ROOT
ATOM      1  C   UNL     1       0.272   0.694   0.225  0.00  0.00    +0.002 A 
ATOM      2  C   UNL     1       0.737   0.086  -0.927  0.00  0.00    +0.002 A 
ATOM      3  C   UNL     1       0.170  -1.093  -1.375  0.00  0.00    +0.025 A 
ATOM      4  C   UNL     1      -0.872  -1.671  -0.667  0.00  0.00    +0.061 A 
ATOM      5  C   UNL     1      -1.344  -1.048   0.493  0.00  0.00    +0.068 A 
ATOM      6  C   UNL     1      -0.771   0.127   0.937  0.00  0.00    +0.028 A 
ATOM      7  N   UNL     1      -2.410  -1.655   1.174  0.00  0.00    -0.316 N 
ATOM      8  C   UNL     1      -2.901  -1.421   2.414  0.00  0.00    +0.092 A 
ATOM      9  C   UNL     1      -3.932  -2.270   2.627  0.00  0.00    +0.020 A 
ATOM     10  C   UNL     1      -4.080  -3.058   1.464  0.00  0.00    +0.025 A 
ATOM     11  C   UNL     1      -3.145  -2.665   0.593  0.00  0.00    +0.052 A 
ATOM     12  C   UNL     1      -2.859  -3.166  -0.802  0.00  0.00    +0.194 C 
ATOM     13  N   UNL     1      -1.449  -2.872  -1.104  0.00  0.00    -0.252 N 
ATOM     14  C   UNL     1      -0.710  -3.759  -1.800  0.00  0.00    +0.238 C 
ATOM     15  O   UNL     1       0.430  -3.487  -2.110  0.00  0.00    -0.273 OA
ENDROOT
BRANCH  12  16
ATOM     16  C   UNL     1      -3.751  -2.460  -1.791  0.00  0.00    +0.131 A 
ATOM     17  C   UNL     1      -4.881  -2.957  -2.326  0.00  0.00    +0.047 A 
ATOM     18  C   UNL     1      -5.392  -1.966  -3.195  0.00  0.00    +0.041 A 
ATOM     19  C   UNL     1      -4.544  -0.924  -3.140  0.00  0.00    +0.195 A 
ATOM     20  O   UNL     1      -3.555  -1.226  -2.284  0.00  0.00    -0.466 OA
ENDBRANCH  12  16
BRANCH  14  21
ATOM     21  C   UNL     1      -1.302  -5.087  -2.194  0.00  0.00    +0.205 C 
BRANCH  21  22
ATOM     22  N   UNL     1      -0.268  -5.917  -2.817  0.00  0.00    -0.274 N 
ATOM     23  C   UNL     1      -0.073  -5.864  -4.149  0.00  0.00    +0.307 C 
ATOM     24  O   UNL     1      -0.817  -5.203  -4.847  0.00  0.00    -0.252 OA
ATOM     25  N   UNL     1       0.948  -6.544  -4.708  0.00  0.00    -0.269 N 
ATOM     26  H   UNL     1       1.474  -7.157  -4.172  0.00  0.00    +0.156 HD
BRANCH  25  27
ATOM     27  C   UNL     1       1.248  -6.365  -6.063  0.00  0.00    +0.035 A 
ATOM     28  C   UNL     1       1.045  -5.130  -6.664  0.00  0.00    +0.024 A 
ATOM     29  C   UNL     1       1.347  -4.955  -8.001  0.00  0.00    +0.014 A 
ATOM     30  C   UNL     1       1.842  -6.012  -8.743  0.00  0.00    +0.055 A 
ATOM     31  C   UNL     1       2.040  -7.245  -8.149  0.00  0.00    +0.014 A 
ATOM     32  C   UNL     1       1.745  -7.424  -6.811  0.00  0.00    +0.024 A 
BRANCH  30  33
ATOM     33  C   UNL     1       2.164  -5.820 -10.202  0.00  0.00    +0.417 C 
ATOM     34  F   UNL     1       1.034  -6.112 -10.972  0.00  0.00    -0.166 F 
ATOM     35  F   UNL     1       2.550  -4.494 -10.424  0.00  0.00    -0.166 F 
ATOM     36  F   UNL     1       3.210  -6.676 -10.565  0.00  0.00    -0.166 F 
ENDBRANCH  30  33
ENDBRANCH  25  27
BRANCH  22  37
ATOM     37  C   UNL     1       0.554  -6.805  -1.991  0.00  0.00    +0.078 C 
ATOM     38  C   UNL     1       0.103  -7.047  -0.549  0.00  0.00    +0.024 C 
ATOM     39  C   UNL     1       1.329  -6.175  -0.832  0.00  0.00    +0.024 C 
ENDBRANCH  22  37
ENDBRANCH  21  22
ENDBRANCH  14  21
TORSDOF 6
