REMARK  Name = ZINC59170361
REMARK  5 active torsions:
REMARK  status: ('A' for Active; 'I' for Inactive)
REMARK    1  A    between atoms: C_3  and  S_22
REMARK    2  A    between atoms: C_6  and  N_7
REMARK    3  A    between atoms: C_9  and  C_19
REMARK    4  A    between atoms: C_14  and  O_18
REMARK    5  A    between atoms: S_22  and  N_25
REMARK                            x       y       z     vdW  Elec       q    Type
REMARK                         _______ _______ _______ _____ _____    ______ ____
ROOT
ATOM      1  N   UNL     1      -1.177  -0.701   0.007  0.00  0.00    -0.325 N 
ATOM      2  C   UNL     1      -1.333  -1.727  -0.802  0.00  0.00    +0.212 A 
ATOM      3  C   UNL     1      -2.543  -2.570  -0.742  0.00  0.00    +0.097 A 
ATOM      4  C   UNL     1      -2.904  -3.251  -1.896  0.00  0.00    +0.030 A 
ATOM      5  C   UNL     1      -2.075  -3.118  -3.039  0.00  0.00    +0.018 A 
ATOM      6  C   UNL     1      -2.495  -3.617  -4.282  0.00  0.00    +0.015 A 
ATOM      7  C   UNL     1      -1.708  -3.447  -5.383  0.00  0.00    +0.046 A 
ATOM      8  C   UNL     1      -0.484  -2.788  -5.282  0.00  0.00    +0.120 A 
ATOM      9  C   UNL     1      -0.043  -2.305  -4.059  0.00  0.00    +0.092 A 
ATOM     10  C   UNL     1      -0.826  -2.476  -2.930  0.00  0.00    +0.141 A 
ATOM     11  O   UNL     1      -0.388  -2.044  -1.724  0.00  0.00    -0.438 OA
ATOM     12  H   UNL     1      -1.899  -0.436   0.599  0.00  0.00    +0.169 HD
ENDROOT
BRANCH   1  18
ATOM     13  C   UNL     1      -0.005   1.389   0.016  0.00  0.00    +0.027 A 
ATOM     14  C   UNL     1       1.187   2.082   0.023  0.00  0.00    +0.030 A 
ATOM     15  C   UNL     1       2.389   1.396   0.026  0.00  0.00    +0.105 A 
ATOM     16  C   UNL     1       2.404   0.012   0.023  0.00  0.00    +0.030 A 
ATOM     17  C   UNL     1       1.219  -0.694   0.016  0.00  0.00    +0.027 A 
ATOM     18  C   UNL     1       0.002  -0.008   0.013  0.00  0.00    +0.042 A 
BRANCH  15  19
ATOM     19  S   UNL     1       3.908   2.289   0.035  0.00  0.00    +0.056 S 
ATOM     20  O   UNL     1       4.892   1.422  -0.514  0.00  0.00    -0.153 OA
ATOM     21  O   UNL     1       3.629   3.569  -0.514  0.00  0.00    -0.153 OA
BRANCH  19  22
ATOM     22  N   UNL     1       4.324   2.533   1.619  0.00  0.00    -0.204 NA
ATOM     23  H   UNL     1       5.259   2.595   1.871  0.00  0.00    +0.144 HD
ATOM     24  H   UNL     1       3.633   2.614   2.295  0.00  0.00    +0.144 HD
ENDBRANCH  19  22
ENDBRANCH  15  19
ENDBRANCH   1  18
BRANCH   3  25
ATOM     25  C   UNL     1      -3.335  -2.685   0.493  0.00  0.00    +0.247 C 
ATOM     26  O   UNL     1      -3.048  -2.011   1.464  0.00  0.00    -0.270 OA
ATOM     27  N   UNL     1      -4.378  -3.536   0.548  0.00  0.00    -0.325 N 
ATOM     28  H   UNL     1      -4.562  -4.126  -0.200  0.00  0.00    +0.145 HD
ATOM     29  H   UNL     1      -4.945  -3.558   1.335  0.00  0.00    +0.145 HD
ENDBRANCH   3  25
BRANCH   8  30
ATOM     30  O   UNL     1       0.282  -2.616  -6.389  0.00  0.00    -0.507 OA
ATOM     31  H   UNL     1       0.102  -1.796  -6.869  0.00  0.00    +0.292 HD
ENDBRANCH   8  30
TORSDOF 5
