REMARK  Name = ZINC39843834
REMARK  8 active torsions:
REMARK  status: ('A' for Active; 'I' for Inactive)
REMARK    1  A    between atoms: C_1  and  C_2
REMARK    2  A    between atoms: C_2  and  O_4
REMARK    3  A    between atoms: O_4  and  C_5
REMARK    4  A    between atoms: C_5  and  C_6
REMARK    5  A    between atoms: C_6  and  C_7
REMARK    6  A    between atoms: N_13  and  N_14
REMARK    7  A    between atoms: C_15  and  C_16
REMARK    8  A    between atoms: C_24  and  C_26
REMARK                            x       y       z     vdW  Elec       q    Type
REMARK                         _______ _______ _______ _____ _____    ______ ____
ROOT
ATOM      1  N   UNL     1      -4.313  -7.151   3.386  0.00  0.00    -0.155 NA
ATOM      2  C   UNL     1      -4.457  -7.865   4.490  0.00  0.00    +0.141 C 
ENDROOT
BRANCH   2   3
ATOM      3  C   UNL     1      -5.638  -8.559   4.719  0.00  0.00    +0.008 C 
ATOM      4  C   UNL     1      -6.764  -8.614   3.886  0.00  0.00    +0.005 A 
ATOM      5  C   UNL     1      -7.054  -8.031   2.638  0.00  0.00    +0.010 A 
ATOM      6  C   UNL     1      -8.256  -8.263   2.047  0.00  0.00    +0.001 A 
ATOM      7  C   UNL     1      -9.222  -9.071   2.650  0.00  0.00    +0.002 A 
ATOM      8  C   UNL     1      -9.009  -9.663   3.852  0.00  0.00    +0.026 A 
ATOM      9  C   UNL     1      -7.777  -9.466   4.527  0.00  0.00    +0.044 A 
ATOM     10  N   UNL     1      -7.333  -9.923   5.683  0.00  0.00    -0.373 N 
ATOM     11  C   UNL     1      -5.976  -9.419   5.916  0.00  0.00    +0.142 C 
ATOM     12  H   UNL     1      -7.826 -10.504   6.283  0.00  0.00    +0.161 HD
BRANCH  11  13
ATOM     13  C   UNL     1      -5.942  -8.592   7.176  0.00  0.00    -0.021 A 
ATOM     14  C   UNL     1      -7.020  -7.792   7.507  0.00  0.00    +0.006 A 
ATOM     15  C   UNL     1      -6.989  -7.034   8.662  0.00  0.00    +0.000 A 
ATOM     16  C   UNL     1      -5.880  -7.075   9.486  0.00  0.00    +0.000 A 
ATOM     17  C   UNL     1      -4.802  -7.876   9.156  0.00  0.00    +0.000 A 
ATOM     18  C   UNL     1      -4.835  -8.637   8.003  0.00  0.00    +0.006 A 
ENDBRANCH  11  13
ENDBRANCH   2   3
BRANCH   1  24
ATOM     19  C   UNL     1      -2.362  -4.247   0.002  0.00  0.00    +0.143 C 
ATOM     20  C   UNL     1      -3.740  -4.892  -0.015  0.00  0.00    +0.232 C 
ATOM     21  O   UNL     1      -4.536  -4.743  -0.917  0.00  0.00    -0.274 OA
ATOM     22  N   UNL     1      -3.983  -5.634   1.057  0.00  0.00    -0.263 N 
ATOM     23  C   UNL     1      -3.072  -5.788   2.062  0.00  0.00    +0.183 C 
ATOM     24  N   UNL     1      -3.216  -6.506   3.173  0.00  0.00    -0.127 NA
ATOM     25  S   UNL     1      -1.727  -4.884   1.605  0.00  0.00    -0.076 S 
ATOM     26  H   UNL     1      -4.839  -6.083   1.130  0.00  0.00    +0.157 HD
BRANCH  19  27
ATOM     27  C   UNL     1      -2.463  -2.721   0.011  0.00  0.00    +0.065 C 
BRANCH  27  28
ATOM     28  C   UNL     1      -1.057  -2.117   0.001  0.00  0.00    +0.233 C 
BRANCH  28  29
ATOM     29  O   UNL     1      -1.151  -0.691   0.009  0.00  0.00    -0.465 OA
BRANCH  29  31
ATOM     30  C   UNL     1      -0.018   1.503   0.010  0.00  0.00    +0.136 C 
ATOM     31  C   UNL     1       0.002  -0.004   0.002  0.00  0.00    +0.304 C 
ATOM     32  O   UNL     1       1.056  -0.594  -0.011  0.00  0.00    -0.251 OA
ENDBRANCH  29  31
ENDBRANCH  28  29
ENDBRANCH  27  28
ENDBRANCH  19  27
ENDBRANCH   1  24
TORSDOF 7
