REMARK  Name = ZINC14741942
REMARK  9 active torsions:
REMARK  status: ('A' for Active; 'I' for Inactive)
REMARK    1  A    between atoms: C_1  and  C_2
REMARK    2  A    between atoms: C_2  and  C_3
REMARK    3  A    between atoms: C_2  and  C_4
REMARK    4  A    between atoms: C_4  and  N_5
REMARK    5  A    between atoms: C_13  and  C_14
REMARK    6  A    between atoms: C_13  and  N_62
REMARK    7  A    between atoms: C_18  and  O_20
REMARK    8  A    between atoms: N_21  and  C_24
REMARK    9  A    between atoms: C_24  and  C_25
REMARK                            x       y       z     vdW  Elec       q    Type
REMARK                         _______ _______ _______ _____ _____    ______ ____
ROOT
ATOM      1  N   UNL     1       4.267   9.037  -3.869  0.00  0.00    -0.224 N 
ATOM      2  C   UNL     1       3.209   8.200  -3.865  0.00  0.00    +0.247 C 
ATOM      3  O   UNL     1       2.075   8.448  -4.214  0.00  0.00    -0.273 OA
ATOM      4  C   UNL     1       3.736   6.887  -3.334  0.00  0.00    +0.112 C 
ATOM      5  C   UNL     1       3.577   5.786  -4.378  0.00  0.00    +0.017 C 
ATOM      6  C   UNL     1       4.093   4.464  -3.802  0.00  0.00    -0.076 C 
ATOM      7  C   UNL     1       3.550   5.161  -1.544  0.00  0.00    -0.076 C 
ATOM      8  C   UNL     1       3.016   6.506  -2.044  0.00  0.00    +0.017 C 
ATOM      9  N   UNL     1       5.156   7.150  -3.074  0.00  0.00    -0.267 N 
ATOM     10  C   UNL     1       5.374   8.434  -3.417  0.00  0.00    +0.312 C 
ATOM     11  O   UNL     1       6.454   8.984  -3.328  0.00  0.00    -0.252 OA
ATOM     12  N   UNL     1       3.318   4.138  -2.586  0.00  0.00    +0.382 N 
ATOM     13  H   UNL     1       2.319   4.124  -2.822  0.00  0.00    -0.081 HD
ENDROOT
BRANCH   1  14
ATOM     14  C   UNL     1       4.212  10.432  -4.313  0.00  0.00    +0.121 C 
BRANCH  14  16
ATOM     15  C   UNL     1       4.336  11.942  -6.300  0.00  0.00    +0.009 C 
ATOM     16  C   UNL     1       4.516  10.503  -5.811  0.00  0.00    +0.001 C 
ATOM     17  C   UNL     1       5.958  10.056  -6.060  0.00  0.00    +0.009 C 
ENDBRANCH  14  16
ENDBRANCH   1  14
BRANCH  12  18
ATOM     18  C   UNL     1       3.710   2.806  -2.081  0.00  0.00    -0.043 C 
BRANCH  18  19
ATOM     19  C   UNL     1       3.121   2.605  -0.708  0.00  0.00    -0.061 A 
ATOM     20  C   UNL     1       3.844   2.968   0.414  0.00  0.00    +0.002 A 
ATOM     21  C   UNL     1       3.306   2.786   1.674  0.00  0.00    +0.004 A 
ATOM     22  C   UNL     1       2.042   2.245   1.815  0.00  0.00    +0.045 A 
ATOM     23  C   UNL     1       1.317   1.876   0.692  0.00  0.00    +0.117 A 
ATOM     24  C   UNL     1       1.859   2.060  -0.572  0.00  0.00    +0.047 A 
BRANCH  23  25
ATOM     25  O   UNL     1       0.076   1.340   0.829  0.00  0.00    -0.507 OA
ATOM     26  H   UNL     1       0.070   0.375   0.902  0.00  0.00    +0.292 HD
ENDBRANCH  23  25
ENDBRANCH  18  19
ENDBRANCH  12  18
BRANCH   9  27
ATOM     27  C   UNL     1       6.141   6.204  -2.545  0.00  0.00    +0.145 C 
BRANCH  27  28
ATOM     28  C   UNL     1       7.264   6.041  -3.537  0.00  0.00    -0.030 A 
ATOM     29  C   UNL     1       7.138   5.147  -4.583  0.00  0.00    +0.005 A 
ATOM     30  C   UNL     1       8.166   5.001  -5.495  0.00  0.00    +0.000 A 
ATOM     31  C   UNL     1       9.324   5.741  -5.356  0.00  0.00    +0.000 A 
ATOM     32  C   UNL     1       9.453   6.632  -4.306  0.00  0.00    +0.000 A 
ATOM     33  C   UNL     1       8.423   6.782  -3.397  0.00  0.00    +0.005 A 
ENDBRANCH  27  28
ENDBRANCH   9  27
TORSDOF 7
