REMARK  Name = ZINC14023293
REMARK  9 active torsions:
REMARK  status: ('A' for Active; 'I' for Inactive)
REMARK    1  A    between atoms: C_1  and  C_2
REMARK    2  A    between atoms: C_2  and  N_62
REMARK    3  A    between atoms: C_8  and  N_14
REMARK    4  A    between atoms: C_9  and  C_10
REMARK    5  A    between atoms: C_10  and  O_12
REMARK    6  A    between atoms: O_12  and  C_13
REMARK    7  A    between atoms: C_15  and  C_17
REMARK    8  A    between atoms: N_22  and  S_24
REMARK    9  A    between atoms: S_24  and  C_27
REMARK                            x       y       z     vdW  Elec       q    Type
REMARK                         _______ _______ _______ _____ _____    ______ ____
ROOT
ATOM      1  N   UNL     1       0.047  -0.247  -2.680  0.00  0.00    -0.279 N 
ATOM      2  C   UNL     1      -0.066   1.080  -2.472  0.00  0.00    +0.222 C 
ATOM      3  O   UNL     1       0.385   1.861  -3.282  0.00  0.00    -0.275 OA
ATOM      4  H   UNL     1      -0.314  -0.872  -2.031  0.00  0.00    +0.155 HD
ENDROOT
BRANCH   1  10
ATOM      5  C   UNL     1       2.225  -3.463  -7.527  0.00  0.00    -0.074 C 
ATOM      6  C   UNL     1       1.902  -3.635  -6.040  0.00  0.00    +0.018 C 
ATOM      7  C   UNL     1       1.585  -2.262  -5.460  0.00  0.00    -0.025 A 
ATOM      8  C   UNL     1       1.956  -1.143  -6.124  0.00  0.00    -0.021 A 
ATOM      9  S   UNL     1       1.395   0.192  -5.108  0.00  0.00    -0.079 S 
ATOM     10  C   UNL     1       0.678  -0.719  -3.820  0.00  0.00    +0.086 A 
ATOM     11  C   UNL     1       0.895  -2.037  -4.204  0.00  0.00    +0.091 A 
ATOM     12  C   UNL     1       2.684  -1.086  -7.431  0.00  0.00    -0.035 C 
ATOM     13  N   UNL     1       3.266  -2.426  -7.685  0.00  0.00    +0.383 N 
ATOM     14  H   UNL     1       4.016  -2.599  -7.006  0.00  0.00    -0.081 HD
BRANCH  13  16
ATOM     15  C   UNL     1       2.723  -2.333 -10.095  0.00  0.00    -0.017 C 
ATOM     16  C   UNL     1       3.832  -2.481  -9.050  0.00  0.00    -0.082 C 
ENDBRANCH  13  16
BRANCH  11  17
ATOM     17  C   UNL     1       0.441  -3.155  -3.375  0.00  0.00    +0.342 C 
ATOM     18  O   UNL     1      -0.669  -3.624  -3.540  0.00  0.00    -0.245 OA
BRANCH  17  19
ATOM     19  O   UNL     1       1.255  -3.667  -2.428  0.00  0.00    -0.464 OA
ATOM     20  C   UNL     1       0.739  -4.774  -1.644  0.00  0.00    +0.280 C 
ENDBRANCH  17  19
ENDBRANCH  11  17
ENDBRANCH   1  10
BRANCH   2  21
ATOM     21  C   UNL     1      -0.752   1.593  -1.232  0.00  0.00    +0.091 C 
ATOM     22  C   UNL     1      -0.013   1.086   0.008  0.00  0.00    +0.015 C 
ATOM     23  C   UNL     1      -0.729   1.579   1.268  0.00  0.00    +0.018 C 
ATOM     24  C   UNL     1      -0.717   3.111   1.290  0.00  0.00    +0.109 C 
ATOM     25  N   UNL     1      -1.296   3.606   0.034  0.00  0.00    -0.176 NA
ATOM     26  C   UNL     1      -0.741   3.124  -1.238  0.00  0.00    +0.122 C 
BRANCH  25  27
ATOM     27  S   UNL     1      -2.550   4.687   0.052  0.00  0.00    +0.061 S 
ATOM     28  O   UNL     1      -2.486   5.363   1.300  0.00  0.00    -0.153 OA
ATOM     29  O   UNL     1      -2.510   5.376  -1.190  0.00  0.00    -0.153 OA
BRANCH  27  30
ATOM     30  C   UNL     1      -4.044   3.752   0.062  0.00  0.00    +0.105 A 
ATOM     31  C   UNL     1      -4.644   3.397  -1.132  0.00  0.00    +0.028 A 
ATOM     32  C   UNL     1      -5.813   2.659  -1.124  0.00  0.00    +0.002 A 
ATOM     33  C   UNL     1      -6.387   2.285   0.077  0.00  0.00    +0.000 A 
ATOM     34  C   UNL     1      -5.789   2.646   1.270  0.00  0.00    +0.002 A 
ATOM     35  C   UNL     1      -4.618   3.379   1.262  0.00  0.00    +0.028 A 
ENDBRANCH  27  30
ENDBRANCH  25  27
ENDBRANCH   2  21
TORSDOF 7
