REMARK  Name = ZINC39466670
REMARK  7 active torsions:
REMARK  status: ('A' for Active; 'I' for Inactive)
REMARK    1  A    between atoms: C_1  and  O_2
REMARK    2  A    between atoms: O_2  and  C_3
REMARK    3  A    between atoms: C_5  and  N_32
REMARK    4  A    between atoms: N_16  and  C_19
REMARK    5  A    between atoms: C_19  and  C_20
REMARK    6  A    between atoms: C_25  and  C_26
REMARK    7  A    between atoms: C_33  and  C_35
REMARK                            x       y       z     vdW  Elec       q    Type
REMARK                         _______ _______ _______ _____ _____    ______ ____
ROOT
ATOM      1  C   UNL     1      -1.020  -0.219   0.071  0.00  0.00    +0.153 C 
ATOM      2  C   UNL     1      -1.395  -0.427  -1.413  0.00  0.00    +0.133 C 
ATOM      3  C   UNL     1      -0.907  -1.820  -1.754  0.00  0.00    -0.021 A 
ATOM      4  C   UNL     1      -0.688  -2.418  -2.983  0.00  0.00    +0.006 A 
ATOM      5  C   UNL     1      -0.235  -3.721  -3.052  0.00  0.00    +0.000 A 
ATOM      6  C   UNL     1      -0.001  -4.432  -1.890  0.00  0.00    +0.000 A 
ATOM      7  C   UNL     1      -0.218  -3.837  -0.663  0.00  0.00    +0.004 A 
ATOM      8  C   UNL     1      -0.672  -2.531  -0.591  0.00  0.00    -0.034 A 
ATOM      9  C   UNL     1      -0.983  -1.660   0.610  0.00  0.00    +0.021 C 
ATOM     10  C   UNL     1       0.109  -1.795   1.668  0.00  0.00    -0.005 C 
ATOM     11  C   UNL     1      -0.257  -0.943   2.886  0.00  0.00    -0.078 C 
ATOM     12  N   UNL     1      -1.546  -1.388   3.428  0.00  0.00    +0.380 N 
ATOM     13  C   UNL     1      -2.607  -1.169   2.438  0.00  0.00    -0.078 C 
ATOM     14  C   UNL     1      -2.340  -2.032   1.201  0.00  0.00    -0.005 C 
ATOM     15  H   UNL     1      -1.494  -2.371   3.652  0.00  0.00    -0.082 HD
ENDROOT
BRANCH   2  16
ATOM     16  N   UNL     1      -2.846  -0.338  -1.588  0.00  0.00    -0.299 N 
ATOM     17  C   UNL     1      -3.361   0.013  -2.783  0.00  0.00    +0.280 C 
ATOM     18  O   UNL     1      -2.619   0.255  -3.717  0.00  0.00    -0.267 OA
ATOM     19  H   UNL     1      -3.437  -0.531  -0.843  0.00  0.00    +0.150 HD
BRANCH  17  20
ATOM     20  C   UNL     1      -4.814   0.102  -2.958  0.00  0.00    +0.189 A 
ATOM     21  C   UNL     1      -5.464   0.439  -4.111  0.00  0.00    +0.054 A 
ATOM     22  C   UNL     1      -6.838   0.398  -3.825  0.00  0.00    +0.042 A 
ATOM     23  C   UNL     1      -6.965   0.043  -2.528  0.00  0.00    +0.196 A 
ATOM     24  O   UNL     1      -5.743  -0.139  -2.010  0.00  0.00    -0.458 OA
ENDBRANCH  17  20
ENDBRANCH   2  16
BRANCH   1  26
ATOM     25  C   UNL     1       0.211   1.824   0.309  0.00  0.00    +0.194 C 
ATOM     26  O   UNL     1       0.263   0.401   0.189  0.00  0.00    -0.377 OA
ENDBRANCH   1  26
BRANCH  12  27
ATOM     27  C   UNL     1      -1.851  -0.627   4.647  0.00  0.00    -0.064 C 
BRANCH  27  28
ATOM     28  C   UNL     1      -0.838  -0.982   5.737  0.00  0.00    +0.062 C 
ATOM     29  C   UNL     1      -1.050  -2.402   6.223  0.00  0.00    +0.115 C 
ATOM     30  N   UNL     1      -1.342  -2.307   7.478  0.00  0.00    -0.161 NA
ATOM     31  N   UNL     1      -1.357  -0.989   7.921  0.00  0.00    -0.158 NA
ATOM     32  C   UNL     1      -1.074  -0.146   6.979  0.00  0.00    +0.051 C 
BRANCH  32  33
ATOM     33  C   UNL     1      -0.995   1.355   7.091  0.00  0.00    +0.036 C 
ATOM     34  C   UNL     1       0.444   1.811   6.839  0.00  0.00    +0.009 C 
ATOM     35  C   UNL     1       0.523   3.334   6.953  0.00  0.00    +0.001 C 
ATOM     36  C   UNL     1       0.091   3.764   8.356  0.00  0.00    +0.000 C 
ATOM     37  C   UNL     1      -1.347   3.308   8.609  0.00  0.00    +0.001 C 
ATOM     38  C   UNL     1      -1.427   1.785   8.495  0.00  0.00    +0.009 C 
ENDBRANCH  32  33
ENDBRANCH  27  28
ENDBRANCH  12  27
TORSDOF 6
