REMARK  Name = ZINC00628188
REMARK  9 active torsions:
REMARK  status: ('A' for Active; 'I' for Inactive)
REMARK    1  A    between atoms: C_1  and  C_2
REMARK    2  A    between atoms: C_7  and  S_15
REMARK    3  A    between atoms: S_15  and  C_16
REMARK    4  A    between atoms: C_16  and  C_17
REMARK    5  A    between atoms: N_19  and  C_20
REMARK    6  A    between atoms: C_21  and  C_31
REMARK    7  A    between atoms: C_26  and  C_30
REMARK    8  A    between atoms: C_31  and  O_33
REMARK    9  A    between atoms: O_33  and  C_34
REMARK                            x       y       z     vdW  Elec       q    Type
REMARK                         _______ _______ _______ _____ _____    ______ ____
ROOT
ATOM      1  C   UNL     1      -0.016   1.344   0.009  0.00  0.00    +0.228 C 
ATOM      2  O   UNL     1       1.026   1.964   0.003  0.00  0.00    -0.275 OA
ATOM      3  N   UNL     1       0.002  -0.004   0.002  0.00  0.00    -0.279 N 
ATOM      4  H   UNL     1      -0.831  -0.500   0.007  0.00  0.00    +0.155 HD
ENDROOT
BRANCH   3   5
ATOM      5  C   UNL     1       1.212  -0.681  -0.013  0.00  0.00    +0.086 A 
ATOM      6  C   UNL     1       1.434  -2.052  -0.017  0.00  0.00    +0.091 A 
ATOM      7  C   UNL     1       2.813  -2.508  -0.038  0.00  0.00    -0.021 A 
ATOM      8  C   UNL     1       3.743  -1.528  -0.041  0.00  0.00    -0.004 A 
ATOM      9  S   UNL     1       2.814  -0.022  -0.024  0.00  0.00    -0.077 S 
ATOM     10  C   UNL     1       5.231  -1.696  -0.058  0.00  0.00    +0.046 C 
ATOM     11  C   UNL     1       5.551  -3.146  -0.448  0.00  0.00    -0.009 C 
ATOM     12  C   UNL     1       4.681  -4.086   0.393  0.00  0.00    +0.008 C 
ATOM     13  C   UNL     1       3.220  -3.976  -0.049  0.00  0.00    +0.037 C 
ATOM     14  C   UNL     1       7.029  -3.437  -0.177  0.00  0.00    +0.008 C 
BRANCH   6  15
ATOM     15  C   UNL     1       0.319  -3.002  -0.004  0.00  0.00    +0.342 C 
ATOM     16  O   UNL     1      -0.156  -3.396  -1.052  0.00  0.00    -0.245 OA
BRANCH  15  17
ATOM     17  O   UNL     1      -0.180  -3.440   1.170  0.00  0.00    -0.464 OA
ATOM     18  C   UNL     1      -1.284  -4.380   1.106  0.00  0.00    +0.280 C 
ENDBRANCH  15  17
ENDBRANCH   6  15
ENDBRANCH   3   5
BRANCH   1  19
ATOM     19  C   UNL     1      -1.331   2.079   0.020  0.00  0.00    +0.173 C 
BRANCH  19  20
ATOM     20  S   UNL     1      -1.025   3.863   0.028  0.00  0.00    -0.076 S 
BRANCH  20  27
ATOM     21  C   UNL     1      -5.343   9.432   0.077  0.00  0.00    +0.044 C 
ATOM     22  C   UNL     1      -4.555   8.148   0.066  0.00  0.00    -0.038 A 
ATOM     23  C   UNL     1      -5.191   6.954   0.064  0.00  0.00    +0.052 A 
ATOM     24  C   UNL     1      -4.451   5.749   0.054  0.00  0.00    +0.162 A 
ATOM     25  N   UNL     1      -4.816   4.480   0.050  0.00  0.00    -0.129 NA
ATOM     26  N   UNL     1      -3.775   3.726   0.041  0.00  0.00    -0.122 NA
ATOM     27  C   UNL     1      -2.683   4.458   0.039  0.00  0.00    +0.197 A 
ATOM     28  N   UNL     1      -3.074   5.765   0.053  0.00  0.00    -0.270 N 
ATOM     29  C   UNL     1      -2.379   6.963   0.050  0.00  0.00    +0.058 A 
ATOM     30  C   UNL     1      -3.089   8.176   0.059  0.00  0.00    +0.002 A 
ATOM     31  C   UNL     1      -2.394   9.389   0.061  0.00  0.00    +0.010 A 
ATOM     32  C   UNL     1      -1.017   9.385   0.054  0.00  0.00    +0.001 A 
ATOM     33  C   UNL     1      -0.319   8.187   0.045  0.00  0.00    +0.002 A 
ATOM     34  C   UNL     1      -0.991   6.982   0.043  0.00  0.00    +0.027 A 
ENDBRANCH  20  27
ENDBRANCH  19  20
ENDBRANCH   1  19
TORSDOF 6
