REMARK  Name = ZINC22231567
REMARK  4 active torsions:
REMARK  status: ('A' for Active; 'I' for Inactive)
REMARK    1  A    between atoms: C_5  and  N_7
REMARK    2  A    between atoms: N_9  and  C_23
REMARK    3  A    between atoms: C_10  and  C_13
REMARK    4  A    between atoms: C_23  and  C_24
REMARK                            x       y       z     vdW  Elec       q    Type
REMARK                         _______ _______ _______ _____ _____    ______ ____
ROOT
ATOM      1  N   UNL     1      -2.619   3.194   8.205  0.00  0.00    -0.333 N 
ATOM      2  C   UNL     1      -1.905   2.618   7.258  0.00  0.00    +0.152 A 
ATOM      3  N   UNL     1      -2.059   2.681   5.892  0.00  0.00    -0.318 N 
ATOM      4  C   UNL     1      -1.187   1.986   5.101  0.00  0.00    +0.058 A 
ATOM      5  C   UNL     1      -0.197   1.267   5.670  0.00  0.00    +0.075 A 
ATOM      6  S   UNL     1      -0.479   1.553   7.409  0.00  0.00    -0.059 S 
ATOM      7  H   UNL     1      -3.526   3.760   7.943  0.00  0.00    +0.168 HD
ENDROOT
BRANCH   4   8
ATOM      8  C   UNL     1      -1.324   2.026   3.629  0.00  0.00    -0.001 A 
ATOM      9  C   UNL     1      -1.330   0.841   2.890  0.00  0.00    +0.012 A 
ATOM     10  C   UNL     1      -1.457   0.878   1.512  0.00  0.00    +0.024 A 
ATOM     11  C   UNL     1      -1.583   2.101   0.853  0.00  0.00    +0.037 A 
ATOM     12  C   UNL     1      -1.577   3.278   1.599  0.00  0.00    -0.017 A 
ATOM     13  C   UNL     1      -1.449   3.250   2.967  0.00  0.00    +0.016 A 
ATOM     14  C   UNL     1      -1.727   4.407   0.606  0.00  0.00    +0.133 C 
ATOM     15  C   UNL     1      -1.816   3.712  -0.736  0.00  0.00    +0.222 C 
ATOM     16  O   UNL     1      -1.945   4.246  -1.817  0.00  0.00    -0.275 OA
ATOM     17  N   UNL     1      -1.725   2.391  -0.505  0.00  0.00    -0.285 N 
ATOM     18  H   UNL     1      -1.752   1.575  -1.242  0.00  0.00    +0.155 HD
ENDBRANCH   4   8
BRANCH   1  23
ATOM     19  C   UNL     1      -2.216   1.879  11.589  0.00  0.00    +0.002 A 
ATOM     20  C   UNL     1      -1.448   2.877  12.162  0.00  0.00    +0.003 A 
ATOM     21  C   UNL     1      -1.069   3.982  11.420  0.00  0.00    +0.040 A 
ATOM     22  C   UNL     1      -1.451   4.092  10.098  0.00  0.00    +0.147 A 
ATOM     23  C   UNL     1      -2.232   3.090   9.513  0.00  0.00    +0.077 A 
ATOM     24  C   UNL     1      -2.610   1.978  10.270  0.00  0.00    +0.028 A 
ATOM     25  F   UNL     1      -1.076   5.168   9.372  0.00  0.00    -0.203 F 
ENDBRANCH   1  23
BRANCH   3  26
ATOM     26  C   UNL     1      -3.139   3.474   5.298  0.00  0.00    +0.155 C 
BRANCH  26  27
ATOM     27  C   UNL     1      -4.490   2.894   5.722  0.00  0.00    +0.138 C 
ATOM     28  C   UNL     1      -5.631   3.654   5.012  0.00  0.00    +0.035 C 
ATOM     29  C   UNL     1      -6.705   3.755   6.130  0.00  0.00    +0.031 C 
ATOM     30  C   UNL     1      -5.809   3.900   7.386  0.00  0.00    +0.160 C 
ATOM     31  O   UNL     1      -4.669   3.062   7.133  0.00  0.00    -0.375 OA
ENDBRANCH  26  27
ENDBRANCH   3  26
TORSDOF 4
