REMARK  Name = ZINC03067855
REMARK  7 active torsions:
REMARK  status: ('A' for Active; 'I' for Inactive)
REMARK    1  A    between atoms: C_1  and  C_2
REMARK    2  A    between atoms: C_2  and  C_4
REMARK    3  A    between atoms: C_2  and  N_16
REMARK    4  A    between atoms: C_7  and  C_10
REMARK    5  A    between atoms: N_16  and  S_17
REMARK    6  A    between atoms: S_17  and  C_20
REMARK    7  A    between atoms: C_23  and  N_26
REMARK                            x       y       z     vdW  Elec       q    Type
REMARK                         _______ _______ _______ _____ _____    ______ ____
ROOT
ATOM      1  C   UNL     1      -0.019   1.526   0.010  0.00  0.00    +0.031 C 
ATOM      2  C   UNL     1       0.002  -0.004   0.002  0.00  0.00    +0.103 C 
ENDROOT
BRANCH   2   3
ATOM      3  C   UNL     1      -1.412  -0.526   0.013  0.00  0.00    -0.029 A 
ATOM      4  C   UNL     1      -2.117  -0.581   1.201  0.00  0.00    +0.006 A 
ATOM      5  C   UNL     1      -3.414  -1.053   1.216  0.00  0.00    +0.009 A 
ATOM      6  C   UNL     1      -4.009  -1.485   0.033  0.00  0.00    -0.018 A 
ATOM      7  C   UNL     1      -3.292  -1.432  -1.161  0.00  0.00    +0.009 A 
ATOM      8  C   UNL     1      -1.997  -0.953  -1.165  0.00  0.00    +0.006 A 
BRANCH   6   9
ATOM      9  C   UNL     1      -5.401  -1.999   0.043  0.00  0.00    -0.018 A 
ATOM     10  C   UNL     1      -5.997  -2.426  -1.141  0.00  0.00    +0.008 A 
ATOM     11  C   UNL     1      -7.290  -2.909  -1.125  0.00  0.00    +0.001 A 
ATOM     12  C   UNL     1      -7.997  -2.958   0.063  0.00  0.00    +0.000 A 
ATOM     13  C   UNL     1      -7.412  -2.531   1.241  0.00  0.00    +0.001 A 
ATOM     14  C   UNL     1      -6.117  -2.052   1.237  0.00  0.00    +0.008 A 
ENDBRANCH   6   9
ENDBRANCH   2   3
BRANCH   2  15
ATOM     15  N   UNL     1       0.711  -0.489   1.189  0.00  0.00    -0.183 NA
ATOM     16  H   UNL     1       0.236  -0.593   2.029  0.00  0.00    +0.149 HD
BRANCH  15  17
ATOM     17  S   UNL     1       2.322  -0.861   1.097  0.00  0.00    +0.059 S 
ATOM     18  O   UNL     1       2.719  -1.271   2.398  0.00  0.00    -0.153 OA
ATOM     19  O   UNL     1       2.483  -1.690  -0.045  0.00  0.00    -0.153 OA
BRANCH  17  20
ATOM     20  C   UNL     1       3.183   0.638   0.757  0.00  0.00    +0.105 A 
ATOM     21  C   UNL     1       3.413   1.021  -0.551  0.00  0.00    +0.031 A 
ATOM     22  C   UNL     1       4.085   2.199  -0.819  0.00  0.00    +0.034 A 
ATOM     23  C   UNL     1       4.536   2.989   0.222  0.00  0.00    +0.126 A 
ATOM     24  C   UNL     1       4.311   2.603   1.530  0.00  0.00    +0.034 A 
ATOM     25  C   UNL     1       3.635   1.427   1.798  0.00  0.00    +0.031 A 
BRANCH  23  26
ATOM     26  N   UNL     1       5.260   4.248  -0.064  0.00  0.00    +0.056 N 
ATOM     27  O   UNL     1       5.657   4.944   0.854  0.00  0.00    -0.126 OA
ATOM     28  O   UNL     1       5.459   4.588  -1.216  0.00  0.00    -0.126 OA
ENDBRANCH  23  26
ENDBRANCH  17  20
ENDBRANCH  15  17
ENDBRANCH   2  15
TORSDOF 6
