REMARK  Name = ZINC13200529
REMARK  13 active torsions:
REMARK  status: ('A' for Active; 'I' for Inactive)
REMARK    1  A    between atoms: C_1  and  C_2
REMARK    2  A    between atoms: C_4  and  C_15
REMARK    3  A    between atoms: C_5  and  C_14
REMARK    4  A    between atoms: N_6  and  C_7
REMARK    5  A    between atoms: C_7  and  C_8
REMARK    6  A    between atoms: C_15  and  C_17
REMARK    7  A    between atoms: C_17  and  S_18
REMARK    8  A    between atoms: S_18  and  C_19
REMARK    9  A    between atoms: C_22  and  C_27
REMARK   10  A    between atoms: N_23  and  C_24
REMARK   11  A    between atoms: C_24  and  C_25
REMARK   12  A    between atoms: C_30  and  O_33
REMARK   13  A    between atoms: O_33  and  C_34
REMARK                            x       y       z     vdW  Elec       q    Type
REMARK                         _______ _______ _______ _____ _____    ______ ____
ROOT
ATOM      1  S   UNL     1      -0.686  -2.502   2.764  0.00  0.00    -0.078 S 
ENDROOT
BRANCH   1   2
ATOM      2  C   UNL     1      -0.744  -3.010   1.078  0.00  0.00    +0.193 A 
ATOM      3  N   UNL     1      -0.537  -4.224   0.622  0.00  0.00    -0.122 NA
ATOM      4  N   UNL     1      -0.657  -4.242  -0.657  0.00  0.00    -0.128 NA
ATOM      5  C   UNL     1      -0.952  -3.041  -1.097  0.00  0.00    +0.165 A 
ATOM      6  N   UNL     1      -1.012  -2.213   0.001  0.00  0.00    -0.291 N 
BRANCH   5   7
ATOM      7  C   UNL     1      -1.175  -2.651  -2.505  0.00  0.00    +0.020 A 
ATOM      8  C   UNL     1      -1.496  -3.620  -3.457  0.00  0.00    +0.015 A 
ATOM      9  C   UNL     1      -1.708  -3.251  -4.769  0.00  0.00    +0.046 A 
ATOM     10  C   UNL     1      -1.591  -1.919  -5.145  0.00  0.00    +0.120 A 
ATOM     11  C   UNL     1      -1.266  -0.954  -4.202  0.00  0.00    +0.046 A 
ATOM     12  C   UNL     1      -1.058  -1.313  -2.888  0.00  0.00    +0.015 A 
BRANCH  10  13
ATOM     13  O   UNL     1      -1.796  -1.561  -6.439  0.00  0.00    -0.495 OA
ATOM     14  C   UNL     1      -2.127  -2.605  -7.357  0.00  0.00    +0.277 C 
ENDBRANCH  10  13
ENDBRANCH   5   7
BRANCH   6  15
ATOM     15  C   UNL     1      -1.308  -0.778   0.012  0.00  0.00    +0.250 C 
BRANCH  15  16
ATOM     16  C   UNL     1      -0.020   0.001  -0.059  0.00  0.00    +0.375 C 
ATOM     17  O   UNL     1       1.037  -0.583  -0.114  0.00  0.00    -0.244 OA
ATOM     18  O   UNL     1      -0.046   1.343  -0.062  0.00  0.00    -0.244 OA
ENDBRANCH  15  16
ENDBRANCH   6  15
ENDBRANCH   1   2
BRANCH   1  19
ATOM     19  C   UNL     1      -0.285  -4.080   3.554  0.00  0.00    +0.157 C 
BRANCH  19  20
ATOM     20  C   UNL     1      -0.182  -3.884   5.045  0.00  0.00    +0.175 C 
ATOM     21  O   UNL     1      -0.362  -2.785   5.526  0.00  0.00    -0.291 OA
BRANCH  20  25
ATOM     22  C   UNL     1       0.940  -8.573   6.694  0.00  0.00    +0.063 C 
ATOM     23  C   UNL     1       0.630  -7.099   6.624  0.00  0.00    +0.017 A 
ATOM     24  C   UNL     1       0.375  -6.410   5.500  0.00  0.00    +0.034 A 
ATOM     25  C   UNL     1       0.135  -5.020   5.912  0.00  0.00    +0.039 A 
ATOM     26  C   UNL     1       0.265  -5.006   7.288  0.00  0.00    +0.026 A 
ATOM     27  N   UNL     1       0.560  -6.254   7.694  0.00  0.00    -0.345 N 
ATOM     28  C   UNL     1       0.104  -3.802   8.180  0.00  0.00    +0.064 C 
BRANCH  27  29
ATOM     29  C   UNL     1       0.776  -6.651   9.088  0.00  0.00    +0.153 C 
BRANCH  29  30
ATOM     30  C   UNL     1      -0.556  -7.078   9.708  0.00  0.00    +0.138 C 
ATOM     31  C   UNL     1      -0.341  -7.553  11.167  0.00  0.00    +0.035 C 
ATOM     32  C   UNL     1      -1.751  -7.305  11.769  0.00  0.00    +0.031 C 
ATOM     33  C   UNL     1      -2.212  -6.040  11.013  0.00  0.00    +0.160 C 
ATOM     34  O   UNL     1      -1.443  -5.953   9.807  0.00  0.00    -0.375 OA
ENDBRANCH  29  30
ENDBRANCH  27  29
ENDBRANCH  20  25
ENDBRANCH  19  20
ENDBRANCH   1  19
TORSDOF 10
