REMARK  Name = ZINC01923929
REMARK  9 active torsions:
REMARK  status: ('A' for Active; 'I' for Inactive)
REMARK    1  A    between atoms: C_1  and  C_2
REMARK    2  A    between atoms: C_7  and  C_8
REMARK    3  A    between atoms: C_10  and  C_28
REMARK    4  A    between atoms: C_11  and  O_14
REMARK    5  A    between atoms: O_14  and  C_15
REMARK    6  A    between atoms: C_15  and  C_16
REMARK    7  A    between atoms: C_16  and  C_18
REMARK    8  A    between atoms: C_21  and  N_24
REMARK    9  A    between atoms: C_25  and  C_27
REMARK                            x       y       z     vdW  Elec       q    Type
REMARK                         _______ _______ _______ _____ _____    ______ ____
ROOT
ATOM      1  C   UNL     1       5.518  13.467   3.976  0.00  0.00    +0.044 C 
ATOM      2  C   UNL     1       4.716  13.126   2.747  0.00  0.00    -0.047 A 
ATOM      3  C   UNL     1       3.732  12.164   2.814  0.00  0.00    +0.019 A 
ATOM      4  C   UNL     1       2.993  11.854   1.673  0.00  0.00    +0.068 A 
ATOM      5  C   UNL     1       3.251  12.518   0.463  0.00  0.00    +0.140 A 
ATOM      6  C   UNL     1       4.247  13.486   0.417  0.00  0.00    +0.050 A 
ATOM      7  C   UNL     1       4.971  13.783   1.552  0.00  0.00    -0.044 A 
ATOM      8  C   UNL     1       6.051  14.833   1.494  0.00  0.00    +0.044 C 
ATOM      9  O   UNL     1       2.532  12.214  -0.637  0.00  0.00    -0.451 OA
ATOM     10  C   UNL     1       1.562  11.285  -0.627  0.00  0.00    +0.181 A 
ATOM     11  C   UNL     1       1.232  10.582   0.493  0.00  0.00    +0.211 A 
ATOM     12  C   UNL     1       1.928  10.834   1.704  0.00  0.00    +0.235 A 
ATOM     13  O   UNL     1       1.658  10.229   2.728  0.00  0.00    -0.283 OA
ENDROOT
BRANCH  10  14
ATOM     14  C   UNL     1       0.825  11.015  -1.877  0.00  0.00    +0.021 A 
ATOM     15  C   UNL     1       1.521  10.814  -3.072  0.00  0.00    +0.013 A 
ATOM     16  C   UNL     1       0.826  10.557  -4.235  0.00  0.00    +0.021 A 
ATOM     17  C   UNL     1      -0.558  10.509  -4.223  0.00  0.00    +0.041 A 
ATOM     18  C   UNL     1      -1.254  10.713  -3.042  0.00  0.00    +0.021 A 
ATOM     19  C   UNL     1      -0.571  10.965  -1.871  0.00  0.00    +0.013 A 
ATOM     20 CL   UNL     1      -1.425  10.193  -5.693  0.00  0.00    -0.084 Cl
ENDBRANCH  10  14
BRANCH  11  21
ATOM     21  O   UNL     1       0.241   9.651   0.453  0.00  0.00    -0.477 OA
BRANCH  21  22
ATOM     22  C   UNL     1       0.634   8.294   0.237  0.00  0.00    +0.308 C 
BRANCH  22  23
ATOM     23  C   UNL     1      -0.589   7.413   0.223  0.00  0.00    +0.200 C 
ATOM     24  O   UNL     1      -1.688   7.899   0.382  0.00  0.00    -0.288 OA
BRANCH  23  25
ATOM     25  C   UNL     1      -0.448   5.966   0.017  0.00  0.00    +0.021 A 
ATOM     26  C   UNL     1      -1.583   5.145   0.003  0.00  0.00    +0.013 A 
ATOM     27  C   UNL     1      -1.448   3.795  -0.190  0.00  0.00    +0.024 A 
ATOM     28  C   UNL     1      -0.184   3.239  -0.372  0.00  0.00    +0.033 A 
ATOM     29  C   UNL     1       0.947   4.050  -0.354  0.00  0.00    +0.024 A 
ATOM     30  C   UNL     1       0.821   5.402  -0.167  0.00  0.00    +0.013 A 
BRANCH  28  31
ATOM     31  N   UNL     1      -0.052   1.866  -0.568  0.00  0.00    -0.286 N 
ATOM     32  C   UNL     1       0.927   1.391  -1.364  0.00  0.00    +0.214 C 
ATOM     33  O   UNL     1       1.631   2.159  -1.984  0.00  0.00    -0.276 OA
ATOM     34  C   UNL     1       1.142  -0.096  -1.487  0.00  0.00    +0.109 C 
ATOM     35  H   UNL     1      -0.663   1.253  -0.133  0.00  0.00    +0.155 HD
ENDBRANCH  28  31
ENDBRANCH  23  25
ENDBRANCH  22  23
ENDBRANCH  21  22
ENDBRANCH  11  21
TORSDOF 6
