REMARK  Name = ZINC13016112
REMARK  9 active torsions:
REMARK  status: ('A' for Active; 'I' for Inactive)
REMARK    1  A    between atoms: C_1  and  C_2
REMARK    2  A    between atoms: C_2  and  C_4
REMARK    3  A    between atoms: C_2  and  S_13
REMARK    4  A    between atoms: N_9  and  C_10
REMARK    5  A    between atoms: C_10  and  C_11
REMARK    6  A    between atoms: C_10  and  C_12
REMARK    7  A    between atoms: S_13  and  C_14
REMARK    8  A    between atoms: C_17  and  C_26
REMARK    9  A    between atoms: N_18  and  C_19
REMARK                            x       y       z     vdW  Elec       q    Type
REMARK                         _______ _______ _______ _____ _____    ______ ____
ROOT
ATOM      1  C   UNL     1      -2.335  -0.110   1.573  0.00  0.00    +0.175 A 
ATOM      2  N   UNL     1      -1.670   0.585   2.477  0.00  0.00    -0.229 NA
ATOM      3  C   UNL     1      -2.442   0.810   3.535  0.00  0.00    +0.147 A 
ATOM      4  C   UNL     1      -3.672   0.227   3.299  0.00  0.00    +0.156 A 
ATOM      5  N   UNL     1      -3.590  -0.353   2.035  0.00  0.00    -0.282 N 
ENDROOT
BRANCH   5   6
ATOM      6  C   UNL     1      -4.605  -1.055   1.369  0.00  0.00    +0.049 A 
ATOM      7  C   UNL     1      -5.139  -0.553   0.190  0.00  0.00    +0.029 A 
ATOM      8  C   UNL     1      -6.138  -1.246  -0.464  0.00  0.00    +0.040 A 
ATOM      9  C   UNL     1      -6.608  -2.441   0.055  0.00  0.00    +0.124 A 
ATOM     10  C   UNL     1      -6.077  -2.943   1.232  0.00  0.00    +0.040 A 
ATOM     11  C   UNL     1      -5.073  -2.256   1.885  0.00  0.00    +0.029 A 
ATOM     12  F   UNL     1      -7.586  -3.118  -0.586  0.00  0.00    -0.205 F 
ENDBRANCH   5   6
BRANCH   4  13
ATOM     13  C   UNL     1      -4.790   0.226   4.162  0.00  0.00    +0.405 C 
ATOM     14  O   UNL     1      -4.724   0.785   5.251  0.00  0.00    -0.239 OA
ATOM     15  O   UNL     1      -5.826  -0.334   3.822  0.00  0.00    -0.239 OA
ENDBRANCH   4  13
BRANCH   1  16
ATOM     16  S   UNL     1      -1.700  -0.632   0.015  0.00  0.00    -0.075 S 
BRANCH  16  18
ATOM     17  C   UNL     1      -0.019   1.526   0.010  0.00  0.00    +0.029 C 
ATOM     18  C   UNL     1       0.002  -0.004   0.002  0.00  0.00    +0.137 C 
BRANCH  18  19
ATOM     19  C   UNL     1       0.707  -0.490  -1.238  0.00  0.00    +0.233 C 
ATOM     20  O   UNL     1       0.067  -0.782  -2.225  0.00  0.00    -0.274 OA
ATOM     21  N   UNL     1       2.051  -0.601  -1.250  0.00  0.00    -0.239 N 
ATOM     22  C   UNL     1       2.682  -1.035  -2.358  0.00  0.00    +0.306 C 
ATOM     23  O   UNL     1       2.039  -1.327  -3.348  0.00  0.00    -0.252 OA
ATOM     24  N   UNL     1       4.025  -1.146  -2.370  0.00  0.00    -0.297 N 
ATOM     25  H   UNL     1       2.563  -0.367  -0.460  0.00  0.00    +0.159 HD
ATOM     26  H   UNL     1       4.537  -0.912  -1.580  0.00  0.00    +0.151 HD
BRANCH  24  27
ATOM     27  C   UNL     1       4.710  -1.618  -3.575  0.00  0.00    +0.068 C 
ATOM     28  C   UNL     1       4.946  -0.440  -4.523  0.00  0.00    +0.027 C 
ATOM     29  C   UNL     1       6.055  -2.237  -3.188  0.00  0.00    +0.027 C 
ENDBRANCH  24  27
ENDBRANCH  18  19
ENDBRANCH  16  18
ENDBRANCH   1  16
TORSDOF 6
