REMARK  Name = ZINC01162034
REMARK  8 active torsions:
REMARK  status: ('A' for Active; 'I' for Inactive)
REMARK    1  A    between atoms: C_1  and  C_2
REMARK    2  A    between atoms: C_3  and  C_17
REMARK    3  A    between atoms: C_4  and  C_10
REMARK    4  A    between atoms: N_19  and  C_20
REMARK    5  A    between atoms: C_22  and  O_28
REMARK    6  A    between atoms: C_25  and  O_26
REMARK    7  A    between atoms: O_26  and  C_27
REMARK    8  A    between atoms: O_28  and  C_29
REMARK                            x       y       z     vdW  Elec       q    Type
REMARK                         _______ _______ _______ _____ _____    ______ ____
ROOT
ATOM      1  C   UNL     1       0.465   4.426   1.146  0.00  0.00    +0.061 C 
ATOM      2  C   UNL     1       0.210   3.079   0.520  0.00  0.00    +0.019 C 
ATOM      3  C   UNL     1      -1.038   2.760   0.119  0.00  0.00    +0.056 C 
ATOM      4  C   UNL     1      -1.250   1.398  -0.510  0.00  0.00    +0.143 C 
ATOM      5  N   UNL     1      -0.070   0.524  -0.623  0.00  0.00    -0.288 N 
ATOM      6  C   UNL     1       1.114   0.985  -0.175  0.00  0.00    +0.304 C 
ATOM      7  O   UNL     1       2.095   0.272  -0.267  0.00  0.00    -0.252 OA
ATOM      8  N   UNL     1       1.246   2.201   0.369  0.00  0.00    -0.273 N 
ATOM      9  H   UNL     1      -0.143  -0.361  -1.014  0.00  0.00    +0.151 HD
ATOM     10  H   UNL     1       2.126   2.474   0.673  0.00  0.00    +0.156 HD
ENDROOT
BRANCH   4  11
ATOM     11  C   UNL     1      -2.290   0.672   0.303  0.00  0.00    -0.009 A 
ATOM     12  C   UNL     1      -1.901  -0.226   1.280  0.00  0.00    +0.007 A 
ATOM     13  C   UNL     1      -2.855  -0.891   2.026  0.00  0.00    +0.000 A 
ATOM     14  C   UNL     1      -4.199  -0.659   1.798  0.00  0.00    +0.001 A 
ATOM     15  C   UNL     1      -4.589   0.239   0.822  0.00  0.00    +0.015 A 
ATOM     16  C   UNL     1      -3.634   0.909   0.077  0.00  0.00    +0.023 A 
ATOM     17 BR   UNL     1      -4.167   2.143  -1.253  0.00  0.00    -0.050 Br
ENDBRANCH   4  11
BRANCH   3  18
ATOM     18  C   UNL     1      -2.113   3.670   0.275  0.00  0.00    +0.248 C 
ATOM     19  O   UNL     1      -2.883   3.547   1.210  0.00  0.00    -0.270 OA
ATOM     20  N   UNL     1      -2.283   4.671  -0.611  0.00  0.00    -0.279 N 
ATOM     21  H   UNL     1      -1.727   4.716  -1.405  0.00  0.00    +0.155 HD
BRANCH  20  22
ATOM     22  C   UNL     1      -3.261   5.647  -0.386  0.00  0.00    +0.079 A 
ATOM     23  C   UNL     1      -3.789   5.822   0.885  0.00  0.00    +0.072 A 
ATOM     24  C   UNL     1      -4.754   6.792   1.106  0.00  0.00    +0.122 A 
ATOM     25  C   UNL     1      -5.200   7.581   0.055  0.00  0.00    +0.049 A 
ATOM     26  C   UNL     1      -4.679   7.405  -1.214  0.00  0.00    +0.051 A 
ATOM     27  C   UNL     1      -3.711   6.440  -1.439  0.00  0.00    +0.141 A 
BRANCH  27  28
ATOM     28  O   UNL     1      -3.200   6.268  -2.688  0.00  0.00    -0.493 OA
ATOM     29  C   UNL     1      -3.707   7.116  -3.720  0.00  0.00    +0.277 C 
ENDBRANCH  27  28
BRANCH  24  30
ATOM     30  O   UNL     1      -5.268   6.968   2.352  0.00  0.00    -0.495 OA
ATOM     31  C   UNL     1      -6.263   7.981   2.507  0.00  0.00    +0.277 C 
ENDBRANCH  24  30
ENDBRANCH  20  22
ENDBRANCH   3  18
TORSDOF 5
