REMARK  Name = ZINC22473089
REMARK  8 active torsions:
REMARK  status: ('A' for Active; 'I' for Inactive)
REMARK    1  A    between atoms: C_4  and  C_7
REMARK    2  A    between atoms: C_7  and  N_8
REMARK    3  A    between atoms: N_8  and  C_9
REMARK    4  A    between atoms: C_9  and  C_10
REMARK    5  A    between atoms: C_10  and  C_11
REMARK    6  A    between atoms: C_11  and  N_12
REMARK    7  A    between atoms: C_15  and  O_16
REMARK    8  A    between atoms: C_24  and  C_26
REMARK                            x       y       z     vdW  Elec       q    Type
REMARK                         _______ _______ _______ _____ _____    ______ ____
ROOT
ATOM      1  N   UNL     1      -1.321   3.461   0.129  0.00  0.00    -0.293 N 
ATOM      2  C   UNL     1      -1.305   2.117   0.019  0.00  0.00    +0.248 C 
ATOM      3  O   UNL     1      -2.349   1.503  -0.082  0.00  0.00    -0.270 OA
ENDROOT
BRANCH   2   4
ATOM      4  C   UNL     1      -0.017   1.391   0.021  0.00  0.00    +0.051 A 
ATOM      5  C   UNL     1       0.884   1.565   1.073  0.00  0.00    +0.014 A 
ATOM      6  C   UNL     1       2.086   0.889   1.066  0.00  0.00    +0.001 A 
ATOM      7  C   UNL     1       2.400   0.040   0.019  0.00  0.00    +0.001 A 
ATOM      8  C   UNL     1       1.513  -0.138  -1.026  0.00  0.00    +0.016 A 
ATOM      9  C   UNL     1       0.305   0.533  -1.032  0.00  0.00    +0.030 A 
ATOM     10 BR   UNL     1      -0.907   0.290  -2.463  0.00  0.00    -0.050 Br
ENDBRANCH   2   4
BRANCH   1  11
ATOM     11  C   UNL     1      -2.597   4.170   0.250  0.00  0.00    +0.143 C 
BRANCH  11  15
ATOM     12  C   UNL     1      -3.638   4.535   4.377  0.00  0.00    +0.000 A 
ATOM     13  C   UNL     1      -2.885   5.519   3.764  0.00  0.00    +0.000 A 
ATOM     14  C   UNL     1      -2.547   5.401   2.429  0.00  0.00    +0.005 A 
ATOM     15  C   UNL     1      -2.964   4.299   1.706  0.00  0.00    -0.030 A 
ATOM     16  C   UNL     1      -3.723   3.317   2.317  0.00  0.00    +0.005 A 
ATOM     17  C   UNL     1      -4.055   3.433   3.653  0.00  0.00    +0.000 A 
ENDBRANCH  11  15
ENDBRANCH   1  11
BRANCH   1  18
ATOM     18  C   UNL     1      -0.063   4.211   0.127  0.00  0.00    +0.110 C 
BRANCH  18  19
ATOM     19  C   UNL     1       0.240   4.695  -1.292  0.00  0.00    +0.040 C 
BRANCH  19  20
ATOM     20  C   UNL     1       1.554   5.479  -1.294  0.00  0.00    +0.114 C 
BRANCH  20  21
ATOM     21  N   UNL     1       1.845   5.942  -2.653  0.00  0.00    -0.384 N 
ATOM     22  C   UNL     1       2.984   6.675  -2.902  0.00  0.00    +0.053 A 
ATOM     23  C   UNL     1       3.861   6.982  -1.894  0.00  0.00    +0.113 A 
ATOM     24  C   UNL     1       5.011   7.729  -2.179  0.00  0.00    +0.286 A 
ATOM     25  O   UNL     1       5.288   8.160  -3.420  0.00  0.00    -0.425 OA
ATOM     26  C   UNL     1       4.471   7.896  -4.462  0.00  0.00    +0.141 A 
ATOM     27  C   UNL     1       3.301   7.147  -4.261  0.00  0.00    +0.041 A 
ATOM     28  C   UNL     1       2.457   6.866  -5.336  0.00  0.00    +0.013 A 
ATOM     29  C   UNL     1       2.783   7.322  -6.595  0.00  0.00    +0.001 A 
ATOM     30  C   UNL     1       3.942   8.056  -6.794  0.00  0.00    +0.004 A 
ATOM     31  C   UNL     1       4.778   8.351  -5.737  0.00  0.00    +0.047 A 
ATOM     32  H   UNL     1       1.153   5.705  -3.474  0.00  0.00    +0.160 HD
BRANCH  24  33
ATOM     33  O   UNL     1       5.783   7.996  -1.273  0.00  0.00    -0.480 OA
ATOM     34  H   UNL     1       6.691   8.581  -1.479  0.00  0.00    +0.295 HD
ENDBRANCH  24  33
ENDBRANCH  20  21
ENDBRANCH  19  20
ENDBRANCH  18  19
ENDBRANCH   1  18
TORSDOF 8
