REMARK  Name = ZINC08071457
REMARK  9 active torsions:
REMARK  status: ('A' for Active; 'I' for Inactive)
REMARK    1  A    between atoms: C_1  and  C_2
REMARK    2  A    between atoms: C_2  and  C_3
REMARK    3  A    between atoms: C_9  and  C_11
REMARK    4  A    between atoms: C_15  and  N_17
REMARK    5  A    between atoms: C_18  and  C_20
REMARK    6  A    between atoms: C_21  and  C_22
REMARK    7  A    between atoms: C_25  and  C_28
REMARK    8  A    between atoms: C_28  and  C_29
REMARK    9  A    between atoms: C_28  and  C_30
REMARK                            x       y       z     vdW  Elec       q    Type
REMARK                         _______ _______ _______ _____ _____    ______ ____
ROOT
ATOM      1  C   UNL     1      -2.583  -0.098  -6.615  0.00  0.00    +0.011 A 
ATOM      2  C   UNL     1      -2.138  -0.746  -5.462  0.00  0.00    +0.011 A 
ATOM      3  C   UNL     1      -2.858  -1.802  -4.942  0.00  0.00    +0.002 A 
ATOM      4  C   UNL     1      -4.021  -2.223  -5.560  0.00  0.00    +0.023 A 
ATOM      5  C   UNL     1      -4.472  -1.584  -6.709  0.00  0.00    +0.034 A 
ATOM      6  C   UNL     1      -3.757  -0.518  -7.235  0.00  0.00    +0.034 A 
ENDROOT
BRANCH   1  13
ATOM      7  C   UNL     1       0.996   3.459  -7.290  0.00  0.00    +0.155 A 
ATOM      8  N   UNL     1       0.965   4.305  -8.282  0.00  0.00    -0.132 NA
ATOM      9  N   UNL     1      -0.076   4.093  -9.010  0.00  0.00    -0.120 NA
ATOM     10  C   UNL     1      -0.755   3.103  -8.514  0.00  0.00    +0.218 A 
ATOM     11  N   UNL     1      -0.108   2.638  -7.395  0.00  0.00    -0.190 N 
ATOM     12  N   UNL     1      -0.699   1.567  -6.737  0.00  0.00    -0.156 NA
ATOM     13  C   UNL     1      -1.812   1.035  -7.174  0.00  0.00    +0.132 A 
ATOM     14  S   UNL     1      -2.168   2.034  -8.611  0.00  0.00    -0.026 S 
BRANCH   7  16
ATOM     15  C   UNL     1       3.173   2.444  -6.674  0.00  0.00    +0.012 C 
ATOM     16  C   UNL     1       2.056   3.386  -6.221  0.00  0.00    +0.075 C 
ENDBRANCH   7  16
ENDBRANCH   1  13
BRANCH   5  17
ATOM     17  N   UNL     1      -5.648  -2.013  -7.331  0.00  0.00    -0.282 N 
ATOM     18  C   UNL     1      -5.768  -1.937  -8.671  0.00  0.00    +0.241 C 
ATOM     19  O   UNL     1      -4.819  -1.586  -9.348  0.00  0.00    -0.270 OA
ATOM     20  H   UNL     1      -6.378  -2.365  -6.798  0.00  0.00    +0.155 HD
BRANCH  18  21
ATOM     21  C   UNL     1      -7.039  -2.276  -9.313  0.00  0.00    +0.068 C 
ATOM     22  C   UNL     1      -7.159  -2.200 -10.654  0.00  0.00    +0.013 C 
BRANCH  22  23
ATOM     23  C   UNL     1      -8.437  -2.542 -11.299  0.00  0.00    -0.025 A 
ATOM     24  C   UNL     1      -9.531  -2.940 -10.524  0.00  0.00    +0.008 A 
ATOM     25  C   UNL     1     -10.725  -3.259 -11.136  0.00  0.00    +0.004 A 
ATOM     26  C   UNL     1     -10.843  -3.185 -12.513  0.00  0.00    -0.045 A 
ATOM     27  C   UNL     1      -9.764  -2.791 -13.287  0.00  0.00    +0.004 A 
ATOM     28  C   UNL     1      -8.566  -2.464 -12.690  0.00  0.00    +0.008 A 
BRANCH  26  29
ATOM     29  C   UNL     1     -12.151  -3.535 -13.174  0.00  0.00    +0.013 C 
ATOM     30  C   UNL     1     -12.672  -2.323 -13.948  0.00  0.00    +0.012 C 
ATOM     31  C   UNL     1     -11.939  -4.703 -14.139  0.00  0.00    +0.012 C 
ENDBRANCH  26  29
ENDBRANCH  22  23
ENDBRANCH  18  21
ENDBRANCH   5  17
TORSDOF 6
