REMARK  Name = ZINC40893992
REMARK  12 active torsions:
REMARK  status: ('A' for Active; 'I' for Inactive)
REMARK    1  A    between atoms: C_1  and  C_2
REMARK    2  A    between atoms: C_2  and  C_3
REMARK    3  A    between atoms: C_3  and  C_5
REMARK    4  A    between atoms: C_3  and  N_6
REMARK    5  A    between atoms: C_7  and  C_9
REMARK    6  A    between atoms: C_14  and  O_20
REMARK    7  A    between atoms: O_20  and  C_21
REMARK    8  A    between atoms: C_21  and  C_23
REMARK    9  A    between atoms: C_24  and  C_25
REMARK   10  A    between atoms: C_28  and  O_31
REMARK   11  A    between atoms: O_31  and  C_32
REMARK   12  A    between atoms: C_32  and  C_33
REMARK                            x       y       z     vdW  Elec       q    Type
REMARK                         _______ _______ _______ _____ _____    ______ ____
ROOT
ATOM      1  C   UNL     1       4.024   1.421  -3.349  0.00  0.00    +0.122 A 
ATOM      2  C   UNL     1       5.032   0.485  -3.547  0.00  0.00    +0.031 A 
ATOM      3  C   UNL     1       6.374   0.901  -3.364  0.00  0.00    +0.019 A 
ATOM      4  C   UNL     1       7.436   0.064  -3.742  0.00  0.00    +0.015 A 
ATOM      5  C   UNL     1       8.722   0.492  -3.600  0.00  0.00    +0.047 A 
ATOM      6  C   UNL     1       8.993   1.755  -3.074  0.00  0.00    +0.135 A 
ATOM      7  C   UNL     1       7.959   2.588  -2.677  0.00  0.00    +0.093 A 
ATOM      8  C   UNL     1       6.646   2.166  -2.807  0.00  0.00    +0.143 A 
ATOM      9  O   UNL     1       5.628   2.954  -2.383  0.00  0.00    -0.422 OA
ATOM     10  C   UNL     1       4.432   2.793  -3.000  0.00  0.00    +0.350 A 
ATOM     11  O   UNL     1       3.718   3.746  -3.253  0.00  0.00    -0.244 OA
ENDROOT
BRANCH   1  13
ATOM     12  N   UNL     1       1.649   1.988  -3.297  0.00  0.00    -0.309 N 
ATOM     13  C   UNL     1       2.605   1.058  -3.489  0.00  0.00    +0.251 C 
ATOM     14  O   UNL     1       2.295  -0.082  -3.779  0.00  0.00    -0.270 OA
ATOM     15  H   UNL     1       1.896   2.897  -3.066  0.00  0.00    +0.149 HD
BRANCH  12  16
ATOM     16  C   UNL     1       0.236   1.626  -3.436  0.00  0.00    +0.070 C 
ATOM     17  C   UNL     1      -0.273   1.041  -2.117  0.00  0.00    +0.028 C 
BRANCH  16  19
ATOM     18  C   UNL     1      -0.153   3.386  -5.166  0.00  0.00    +0.005 C 
ATOM     19  C   UNL     1      -0.578   2.873  -3.789  0.00  0.00    +0.018 C 
ENDBRANCH  16  19
ENDBRANCH  12  16
ENDBRANCH   1  13
BRANCH   6  20
ATOM     20  O   UNL     1      10.279   2.171  -2.950  0.00  0.00    -0.423 OA
BRANCH  20  21
ATOM     21  C   UNL     1      10.971   2.435  -4.078  0.00  0.00    +0.337 C 
ATOM     22  O   UNL     1      10.411   2.400  -5.158  0.00  0.00    -0.245 OA
BRANCH  21  23
ATOM     23  C   UNL     1      12.350   2.754  -4.005  0.00  0.00    +0.092 C 
ATOM     24  C   UNL     1      13.043   3.019  -5.135  0.00  0.00    +0.015 C 
BRANCH  24  25
ATOM     25  C   UNL     1      14.473   3.349  -5.059  0.00  0.00    -0.025 A 
ATOM     26  C   UNL     1      15.121   3.385  -3.819  0.00  0.00    +0.011 A 
ATOM     27  C   UNL     1      16.460   3.696  -3.754  0.00  0.00    +0.046 A 
ATOM     28  C   UNL     1      17.169   3.973  -4.917  0.00  0.00    +0.121 A 
ATOM     29  C   UNL     1      16.530   3.939  -6.151  0.00  0.00    +0.046 A 
ATOM     30  C   UNL     1      15.193   3.624  -6.228  0.00  0.00    +0.011 A 
BRANCH  28  31
ATOM     31  O   UNL     1      18.490   4.279  -4.847  0.00  0.00    -0.487 OA
BRANCH  31  32
ATOM     32  C   UNL     1      19.158   4.554  -6.080  0.00  0.00    +0.264 C 
BRANCH  32  33
ATOM     33  C   UNL     1      20.606   4.870  -5.807  0.00  0.00    -0.010 A 
ATOM     34  C   UNL     1      20.995   6.175  -5.566  0.00  0.00    +0.007 A 
ATOM     35  C   UNL     1      22.323   6.465  -5.315  0.00  0.00    +0.000 A 
ATOM     36  C   UNL     1      23.262   5.451  -5.305  0.00  0.00    +0.000 A 
ATOM     37  C   UNL     1      22.873   4.146  -5.545  0.00  0.00    +0.000 A 
ATOM     38  C   UNL     1      21.545   3.856  -5.791  0.00  0.00    +0.007 A 
ENDBRANCH  32  33
ENDBRANCH  31  32
ENDBRANCH  28  31
ENDBRANCH  24  25
ENDBRANCH  21  23
ENDBRANCH  20  21
ENDBRANCH   6  20
TORSDOF 10
