REMARK  Name = ZINC20182128
REMARK  3 active torsions:
REMARK  status: ('A' for Active; 'I' for Inactive)
REMARK    1  A    between atoms: C_1  and  C_2
REMARK    2  A    between atoms: N_17  and  C_18
REMARK    3  A    between atoms: C_22  and  C_24
REMARK                            x       y       z     vdW  Elec       q    Type
REMARK                         _______ _______ _______ _____ _____    ______ ____
ROOT
ATOM      1  C   UNL     1      -0.094   3.850   0.062  0.00  0.00    +0.042 A 
ATOM      2  C   UNL     1       1.019   3.173   0.547  0.00  0.00    +0.024 A 
ATOM      3  C   UNL     1       1.063   1.792   0.511  0.00  0.00    +0.003 A 
ATOM      4  C   UNL     1       0.002   1.076  -0.006  0.00  0.00    +0.013 A 
ATOM      5  C   UNL     1      -1.118   1.747  -0.499  0.00  0.00    +0.039 A 
ATOM      6  C   UNL     1      -1.165   3.141  -0.458  0.00  0.00    +0.036 A 
ENDROOT
BRANCH   1  22
ATOM      7  C   UNL     1       0.436   5.275  -2.272  0.00  0.00    +0.079 C 
ATOM      8  C   UNL     1       0.565   6.006  -0.934  0.00  0.00    +0.185 C 
ATOM      9  C   UNL     1      -0.068   7.399  -1.060  0.00  0.00    +0.096 C 
ATOM     10  C   UNL     1      -0.026   8.035   0.340  0.00  0.00    +0.114 C 
ATOM     11  C   UNL     1       1.401   7.989   0.838  0.00  0.00    +0.016 A 
ATOM     12  C   UNL     1       1.801   8.893   1.805  0.00  0.00    +0.029 A 
ATOM     13  C   UNL     1       3.095   8.862   2.293  0.00  0.00    +0.042 A 
ATOM     14  C   UNL     1       3.991   7.923   1.811  0.00  0.00    +0.023 A 
ATOM     15  C   UNL     1       3.595   7.023   0.844  0.00  0.00    +0.047 A 
ATOM     16  C   UNL     1       2.294   7.054   0.348  0.00  0.00    +0.128 A 
ATOM     17  O   UNL     1       1.944   6.157  -0.609  0.00  0.00    -0.468 OA
ATOM     18 CL   UNL     1       3.595   9.998   3.507  0.00  0.00    -0.084 Cl
ATOM     19  N   UNL     1      -0.832   7.189   1.236  0.00  0.00    -0.292 N 
ATOM     20  C   UNL     1      -0.817   5.853   1.085  0.00  0.00    +0.310 C 
ATOM     21  O   UNL     1      -1.442   5.168   1.871  0.00  0.00    -0.252 OA
ATOM     22  N   UNL     1      -0.134   5.249   0.101  0.00  0.00    -0.216 N 
ATOM     23  H   UNL     1      -1.443   7.650   2.026  0.00  0.00    +0.151 HD
ENDBRANCH   1  22
BRANCH   5  24
ATOM     24  C   UNL     1      -2.254   0.983  -1.058  0.00  0.00    +0.247 C 
ATOM     25  O   UNL     1      -2.867   1.417  -2.013  0.00  0.00    -0.270 OA
ATOM     26  N   UNL     1      -2.609  -0.195  -0.508  0.00  0.00    -0.295 N 
ATOM     27  C   UNL     1      -1.965  -0.679   0.723  0.00  0.00    +0.127 C 
ATOM     28  C   UNL     1      -3.065  -1.059   1.726  0.00  0.00    +0.125 C 
ATOM     29  N   UNL     1      -3.989  -2.010   1.094  0.00  0.00    -0.314 N 
ATOM     30  C   UNL     1      -4.677  -1.403  -0.053  0.00  0.00    +0.125 C 
ATOM     31  C   UNL     1      -3.647  -1.034  -1.126  0.00  0.00    +0.127 C 
ATOM     32  C   UNL     1      -4.902  -2.506   2.017  0.00  0.00    +0.099 A 
ATOM     33  C   UNL     1      -4.444  -3.121   3.178  0.00  0.00    +0.042 A 
ATOM     34  C   UNL     1      -5.364  -3.610   4.088  0.00  0.00    +0.005 A 
ATOM     35  C   UNL     1      -6.716  -3.466   3.806  0.00  0.00    +0.018 A 
ATOM     36  C   UNL     1      -7.100  -2.845   2.635  0.00  0.00    +0.084 A 
ATOM     37  N   UNL     1      -6.200  -2.383   1.787  0.00  0.00    -0.350 N 
ATOM     38  H   UNL     1      -6.552  -1.887   0.870  0.00  0.00    +0.166 HD
ENDBRANCH   5  24
TORSDOF 2
