REMARK  Name = ZINC08613513
REMARK  8 active torsions:
REMARK  status: ('A' for Active; 'I' for Inactive)
REMARK    1  A    between atoms: C_4  and  N_7
REMARK    2  A    between atoms: C_8  and  S_12
REMARK    3  A    between atoms: S_12  and  C_13
REMARK    4  A    between atoms: C_13  and  C_14
REMARK    5  A    between atoms: C_14  and  N_15
REMARK    6  A    between atoms: N_15  and  C_16
REMARK    7  A    between atoms: C_16  and  C_17
REMARK    8  A    between atoms: C_20  and  C_22
REMARK                            x       y       z     vdW  Elec       q    Type
REMARK                         _______ _______ _______ _____ _____    ______ ____
ROOT
ATOM      1  N   UNL     1       3.813  -6.330   3.303  0.00  0.00    +0.384 N 
ATOM      2  H   UNL     1       4.135  -6.819   2.481  0.00  0.00    -0.085 HD
ATOM      3  H   UNL     1       4.608  -6.007   3.835  0.00  0.00    -0.085 HD
ENDROOT
BRANCH   1   4
ATOM      4  C   UNL     1       2.995  -5.179   2.898  0.00  0.00    -0.071 C 
BRANCH   4   5
ATOM      5  C   UNL     1       3.835  -4.234   2.038  0.00  0.00    +0.058 C 
BRANCH   5   6
ATOM      6  S   UNL     1       2.824  -2.812   1.538  0.00  0.00    -0.086 S 
BRANCH   6   8
ATOM      7  N   UNL     1       3.624  -0.652  -0.037  0.00  0.00    -0.187 N 
ATOM      8  C   UNL     1       3.918  -1.831   0.567  0.00  0.00    +0.214 A 
ATOM      9  N   UNL     1       5.176  -2.102   0.291  0.00  0.00    -0.101 NA
ATOM     10  N   UNL     1       5.685  -1.178  -0.441  0.00  0.00    -0.022 NA
ATOM     11  N   UNL     1       4.809  -0.266  -0.689  0.00  0.00    -0.038 NA
BRANCH   7  15
ATOM     12  C   UNL     1      -0.017   1.379   0.010  0.00  0.00    +0.000 A 
ATOM     13  C   UNL     1       1.170   2.089   0.002  0.00  0.00    +0.002 A 
ATOM     14  C   UNL     1       2.377   1.419  -0.013  0.00  0.00    +0.028 A 
ATOM     15  C   UNL     1       2.399   0.031  -0.021  0.00  0.00    +0.070 A 
ATOM     16  C   UNL     1       1.207  -0.680  -0.013  0.00  0.00    +0.028 A 
ATOM     17  C   UNL     1       0.002  -0.004   0.002  0.00  0.00    +0.002 A 
ENDBRANCH   7  15
ENDBRANCH   6   8
ENDBRANCH   5   6
ENDBRANCH   4   5
ENDBRANCH   1   4
BRANCH   1  18
ATOM     18  C   UNL     1       3.007  -7.238   4.129  0.00  0.00    -0.007 C 
BRANCH  18  19
ATOM     19  C   UNL     1       3.847  -8.419   4.544  0.00  0.00    +0.089 A 
ATOM     20  C   UNL     1       4.595  -8.497   5.662  0.00  0.00    +0.043 A 
ATOM     21  C   UNL     1       5.211  -9.764   5.660  0.00  0.00    +0.050 A 
ATOM     22  C   UNL     1       4.801 -10.396   4.528  0.00  0.00    +0.135 A 
ATOM     23  O   UNL     1       3.970  -9.570   3.864  0.00  0.00    -0.462 OA
BRANCH  22  24
ATOM     24  C   UNL     1       5.195 -11.756   4.103  0.00  0.00    +0.019 A 
ATOM     25  C   UNL     1       6.060 -12.514   4.894  0.00  0.00    +0.014 A 
ATOM     26  C   UNL     1       6.424 -13.783   4.493  0.00  0.00    +0.040 A 
ATOM     27  C   UNL     1       5.934 -14.305   3.307  0.00  0.00    +0.142 A 
ATOM     28  C   UNL     1       5.075 -13.557   2.517  0.00  0.00    +0.077 A 
ATOM     29  C   UNL     1       4.699 -12.289   2.912  0.00  0.00    +0.034 A 
ATOM     30 CL   UNL     1       4.465 -14.219   1.032  0.00  0.00    -0.081 Cl
ATOM     31  F   UNL     1       6.295 -15.548   2.919  0.00  0.00    -0.204 F 
ENDBRANCH  22  24
ENDBRANCH  18  19
ENDBRANCH   1  18
TORSDOF 8
