REMARK  Name = ZINC21242698
REMARK  7 active torsions:
REMARK  status: ('A' for Active; 'I' for Inactive)
REMARK    1  A    between atoms: C_1  and  C_2
REMARK    2  A    between atoms: C_9  and  C_16
REMARK    3  A    between atoms: C_11  and  O_12
REMARK    4  A    between atoms: C_16  and  O_17
REMARK    5  A    between atoms: O_17  and  C_18
REMARK    6  A    between atoms: C_18  and  C_20
REMARK    7  A    between atoms: C_21  and  C_22
REMARK                            x       y       z     vdW  Elec       q    Type
REMARK                         _______ _______ _______ _____ _____    ______ ____
ROOT
ATOM      1  C   UNL     1      -6.150  13.732   0.498  0.00  0.00    +0.109 C 
ATOM      2  C   UNL     1      -5.847  12.259   0.590  0.00  0.00    +0.214 C 
ATOM      3  O   UNL     1      -6.641  11.508   1.116  0.00  0.00    -0.276 OA
ATOM      4  N   UNL     1      -4.693  11.775   0.089  0.00  0.00    -0.286 N 
ATOM      5  C   UNL     1      -4.461  10.400   0.075  0.00  0.00    +0.037 A 
ATOM      6  C   UNL     1      -3.164   9.915   0.249  0.00  0.00    +0.024 A 
ATOM      7  C   UNL     1      -2.922   8.572   0.238  0.00  0.00    +0.014 A 
ATOM      8  C   UNL     1      -3.981   7.675   0.056  0.00  0.00    +0.024 A 
ATOM      9  C   UNL     1      -3.748   6.230   0.033  0.00  0.00    +0.007 A 
ATOM     10  C   UNL     1      -4.815   5.410  -0.153  0.00  0.00    +0.095 A 
ATOM     11  C   UNL     1      -6.102   5.962  -0.323  0.00  0.00    +0.285 A 
ATOM     12  O   UNL     1      -6.308   7.288  -0.307  0.00  0.00    -0.425 OA
ATOM     13  C   UNL     1      -5.290   8.158  -0.126  0.00  0.00    +0.141 A 
ATOM     14  C   UNL     1      -5.520   9.525  -0.112  0.00  0.00    +0.070 A 
ATOM     15  H   UNL     1      -3.935  12.465  -0.310  0.00  0.00    +0.155 HD
ENDROOT
BRANCH  11  16
ATOM     16  O   UNL     1      -7.050   5.216  -0.490  0.00  0.00    -0.480 OA
ATOM     17  H   UNL     1      -8.060   5.632  -0.624  0.00  0.00    +0.295 HD
ENDBRANCH  11  16
BRANCH   9  18
ATOM     18  C   UNL     1      -2.362   5.666   0.218  0.00  0.00    +0.268 C 
BRANCH  18  19
ATOM     19  O   UNL     1      -2.417   4.239   0.160  0.00  0.00    -0.457 OA
BRANCH  19  20
ATOM     20  C   UNL     1      -1.252   3.575   0.309  0.00  0.00    +0.332 C 
ATOM     21  O   UNL     1      -0.219   4.191   0.483  0.00  0.00    -0.246 OA
BRANCH  20  22
ATOM     22  C   UNL     1      -1.233   2.114   0.261  0.00  0.00    +0.092 C 
ATOM     23  C   UNL     1      -0.068   1.449   0.409  0.00  0.00    +0.015 C 
BRANCH  23  24
ATOM     24  C   UNL     1      -0.048  -0.021   0.361  0.00  0.00    -0.023 A 
ATOM     25  C   UNL     1       1.159  -0.713   0.509  0.00  0.00    +0.009 A 
ATOM     26  C   UNL     1       1.171  -2.090   0.463  0.00  0.00    +0.022 A 
ATOM     27  C   UNL     1      -0.009  -2.791   0.270  0.00  0.00    +0.059 A 
ATOM     28  C   UNL     1      -1.209  -2.112   0.122  0.00  0.00    +0.060 A 
ATOM     29  C   UNL     1      -1.236  -0.734   0.172  0.00  0.00    +0.029 A 
ATOM     30 CL   UNL     1      -2.682  -2.999  -0.119  0.00  0.00    -0.082 Cl
ATOM     31 CL   UNL     1       0.015  -4.525   0.213  0.00  0.00    -0.082 Cl
ENDBRANCH  23  24
ENDBRANCH  20  22
ENDBRANCH  19  20
ENDBRANCH  18  19
ENDBRANCH   9  18
TORSDOF 6
