REMARK  Name = ZINC37064292
REMARK  4 active torsions:
REMARK  status: ('A' for Active; 'I' for Inactive)
REMARK    1  A    between atoms: C_3  and  N_8
REMARK    2  A    between atoms: N_8  and  S_9
REMARK    3  A    between atoms: S_9  and  C_12
REMARK    4  A    between atoms: C_17  and  N_18
REMARK                            x       y       z     vdW  Elec       q    Type
REMARK                         _______ _______ _______ _____ _____    ______ ____
ROOT
ATOM      1  S   UNL     1       4.792   1.549   0.958  0.00  0.00    +0.074 S 
ATOM      2  O   UNL     1       5.931   2.395   0.872  0.00  0.00    -0.150 OA
ATOM      3  O   UNL     1       4.123   1.294   2.186  0.00  0.00    -0.150 OA
ENDROOT
BRANCH   1   4
ATOM      4  C   UNL     1       5.280  -0.018   0.316  0.00  0.00    +0.129 A 
ATOM      5  C   UNL     1       6.582  -0.220  -0.100  0.00  0.00    +0.032 A 
ATOM      6  C   UNL     1       6.965  -1.448  -0.604  0.00  0.00    +0.017 A 
ATOM      7  C   UNL     1       6.047  -2.480  -0.694  0.00  0.00    +0.020 A 
ATOM      8  C   UNL     1       4.743  -2.284  -0.281  0.00  0.00    +0.040 A 
ATOM      9  C   UNL     1       4.357  -1.052   0.232  0.00  0.00    +0.053 A 
ATOM     10 BR   UNL     1       6.577  -4.159  -1.385  0.00  0.00    -0.050 Br
BRANCH   9  11
ATOM     11  N   UNL     1       3.041  -0.853   0.656  0.00  0.00    -0.356 N 
ATOM     12  H   UNL     1       2.789  -0.015   1.075  0.00  0.00    +0.142 HD
ATOM     13  H   UNL     1       2.380  -1.551   0.532  0.00  0.00    +0.142 HD
ENDBRANCH   9  11
ENDBRANCH   1   4
BRANCH   1  14
ATOM     14  N   UNL     1       3.660   2.172  -0.077  0.00  0.00    -0.216 N 
ATOM     15  H   UNL     1       2.762   2.357   0.240  0.00  0.00    +0.174 HD
BRANCH  14  18
ATOM     16  C   UNL     1       3.487   2.288  -3.746  0.00  0.00    +0.003 A 
ATOM     17  C   UNL     1       3.151   2.029  -2.432  0.00  0.00    +0.024 A 
ATOM     18  C   UNL     1       3.998   2.432  -1.407  0.00  0.00    +0.049 A 
ATOM     19  C   UNL     1       5.181   3.094  -1.708  0.00  0.00    +0.038 A 
ATOM     20  C   UNL     1       5.512   3.350  -3.025  0.00  0.00    +0.015 A 
ATOM     21  C   UNL     1       4.666   2.947  -4.043  0.00  0.00    +0.014 A 
ATOM     22  I   UNL     1       7.297   4.348  -3.481  0.00  0.00    -0.044 I 
ENDBRANCH  14  18
ENDBRANCH   1  14
TORSDOF 4
