REMARK  Name = ZINC39725635
REMARK  7 active torsions:
REMARK  status: ('A' for Active; 'I' for Inactive)
REMARK    1  A    between atoms: C_1  and  C_2
REMARK    2  A    between atoms: C_4  and  C_35
REMARK    3  A    between atoms: C_6  and  N_8
REMARK    4  A    between atoms: C_9  and  C_11
REMARK    5  A    between atoms: C_11  and  S_12
REMARK    6  A    between atoms: S_12  and  C_13
REMARK    7  A    between atoms: N_27  and  C_28
REMARK                            x       y       z     vdW  Elec       q    Type
REMARK                         _______ _______ _______ _____ _____    ______ ____
ROOT
ATOM      1  C   UNL     1       0.715  -2.795   7.778  0.00  0.00    +0.259 C 
ATOM      2  N   UNL     1      -0.521  -3.538   8.039  0.00  0.00    -0.248 NA
ATOM      3  C   UNL     1      -0.539  -4.827   7.973  0.00  0.00    +0.101 C 
ATOM      4  C   UNL     1      -1.574  -5.869   8.168  0.00  0.00    +0.028 A 
ATOM      5  C   UNL     1      -2.917  -5.846   8.496  0.00  0.00    +0.012 A 
ATOM      6  C   UNL     1      -3.621  -7.036   8.603  0.00  0.00    +0.001 A 
ATOM      7  C   UNL     1      -2.984  -8.244   8.382  0.00  0.00    +0.002 A 
ATOM      8  C   UNL     1      -1.644  -8.284   8.053  0.00  0.00    +0.028 A 
ATOM      9  C   UNL     1      -0.913  -7.096   7.941  0.00  0.00    +0.074 A 
ATOM     10  N   UNL     1       0.387  -6.860   7.636  0.00  0.00    -0.240 NA
ATOM     11  C   UNL     1       0.690  -5.592   7.631  0.00  0.00    +0.152 C 
ATOM     12  C   UNL     1       1.945  -4.858   7.366  0.00  0.00    +0.274 C 
ATOM     13  O   UNL     1       2.962  -5.461   7.085  0.00  0.00    -0.268 OA
ATOM     14  N   UNL     1       1.947  -3.510   7.438  0.00  0.00    -0.232 N 
ENDROOT
BRANCH  14  15
ATOM     15  C   UNL     1       3.125  -2.798   7.189  0.00  0.00    +0.075 A 
ATOM     16  C   UNL     1       3.422  -2.372   5.902  0.00  0.00    +0.026 A 
ATOM     17  C   UNL     1       4.586  -1.669   5.659  0.00  0.00    +0.002 A 
ATOM     18  C   UNL     1       5.457  -1.389   6.697  0.00  0.00    +0.003 A 
ATOM     19  C   UNL     1       5.166  -1.812   7.981  0.00  0.00    +0.040 A 
ATOM     20  C   UNL     1       4.000  -2.511   8.232  0.00  0.00    +0.145 A 
ATOM     21  F   UNL     1       3.712  -2.918   9.488  0.00  0.00    -0.204 F 
ENDBRANCH  14  15
BRANCH   1  22
ATOM     22  S   UNL     1       0.372  -1.639   6.423  0.00  0.00    -0.106 S 
BRANCH  22  23
ATOM     23  C   UNL     1       0.004  -2.715   5.010  0.00  0.00    +0.168 C 
BRANCH  23  25
ATOM     24  N   UNL     1      -0.495  -2.461   2.601  0.00  0.00    -0.285 N 
ATOM     25  C   UNL     1      -0.207  -1.872   3.779  0.00  0.00    +0.227 C 
ATOM     26  O   UNL     1      -0.119  -0.665   3.848  0.00  0.00    -0.275 OA
ATOM     27  H   UNL     1      -0.639  -3.419   2.560  0.00  0.00    +0.155 HD
BRANCH  24  33
ATOM     28  C   UNL     1      -2.559  -1.648  -1.787  0.00  0.00    +0.044 C 
ATOM     29  C   UNL     1      -1.578  -1.273  -0.706  0.00  0.00    -0.048 A 
ATOM     30  C   UNL     1      -0.768  -0.164  -0.864  0.00  0.00    +0.006 A 
ATOM     31  C   UNL     1       0.133   0.185   0.126  0.00  0.00    -0.048 A 
ATOM     32  C   UNL     1       0.226  -0.575   1.276  0.00  0.00    +0.026 A 
ATOM     33  C   UNL     1      -0.587  -1.689   1.437  0.00  0.00    +0.034 A 
ATOM     34  C   UNL     1      -1.494  -2.033   0.444  0.00  0.00    +0.026 A 
ATOM     35  C   UNL     1       1.015   1.394  -0.051  0.00  0.00    +0.044 C 
ENDBRANCH  24  33
ENDBRANCH  23  25
ENDBRANCH  22  23
ENDBRANCH   1  22
TORSDOF 5
