REMARK  Name = ZINC39237653
REMARK  6 active torsions:
REMARK  status: ('A' for Active; 'I' for Inactive)
REMARK    1  A    between atoms: C_2  and  C_3
REMARK    2  A    between atoms: C_3  and  N_4
REMARK    3  A    between atoms: C_5  and  C_29
REMARK    4  A    between atoms: C_8  and  S_9
REMARK    5  A    between atoms: S_9  and  C_10
REMARK    6  A    between atoms: C_12  and  C_23
REMARK                            x       y       z     vdW  Elec       q    Type
REMARK                         _______ _______ _______ _____ _____    ______ ____
ROOT
ATOM      1  C   UNL     1       0.344  -5.594  -0.178  0.00  0.00    +0.171 C 
ATOM      2  C   UNL     1      -0.147  -6.476  -1.309  0.00  0.00    -0.009 C 
ATOM      3  C   UNL     1       0.413  -7.753  -1.408  0.00  0.00    +0.003 A 
ATOM      4  C   UNL     1       0.013  -8.638  -2.430  0.00  0.00    +0.030 A 
ATOM      5  C   UNL     1       0.575  -9.876  -2.503  0.00  0.00    +0.042 A 
ATOM      6  C   UNL     1       1.540 -10.289  -1.586  0.00  0.00    +0.022 A 
ATOM      7  C   UNL     1       1.967  -9.478  -0.579  0.00  0.00    +0.025 A 
ATOM      8  C   UNL     1       1.430  -8.185  -0.442  0.00  0.00    +0.041 A 
ATOM      9  N   UNL     1       1.850  -7.390   0.548  0.00  0.00    -0.284 N 
ATOM     10  C   UNL     1       1.396  -6.169   0.743  0.00  0.00    +0.235 C 
ATOM     11  O   UNL     1       1.826  -5.502   1.666  0.00  0.00    -0.274 OA
ATOM     12 CL   UNL     1       0.079 -10.963  -3.763  0.00  0.00    -0.084 Cl
ATOM     13  H   UNL     1       2.525  -7.732   1.155  0.00  0.00    +0.155 HD
ENDROOT
BRANCH   2  14
ATOM     14  C   UNL     1      -1.132  -6.027  -2.225  0.00  0.00    -0.020 A 
ATOM     15  C   UNL     1      -2.391  -5.612  -1.762  0.00  0.00    +0.008 A 
ATOM     16  C   UNL     1      -3.340  -5.177  -2.660  0.00  0.00    +0.001 A 
ATOM     17  C   UNL     1      -3.057  -5.148  -4.016  0.00  0.00    +0.000 A 
ATOM     18  C   UNL     1      -1.817  -5.555  -4.483  0.00  0.00    +0.001 A 
ATOM     19  C   UNL     1      -0.852  -5.988  -3.601  0.00  0.00    +0.008 A 
ENDBRANCH   2  14
BRANCH   1  20
ATOM     20  S   UNL     1       1.014  -4.074  -0.908  0.00  0.00    -0.068 S 
BRANCH  20  25
ATOM     21  N   UNL     1       1.817  -1.763   0.445  0.00  0.00    -0.298 N 
ATOM     22  C   UNL     1       1.863  -1.345   1.756  0.00  0.00    +0.165 A 
ATOM     23  N   UNL     1       1.407  -2.333   2.491  0.00  0.00    -0.128 NA
ATOM     24  N   UNL     1       1.085  -3.325   1.741  0.00  0.00    -0.122 NA
ATOM     25  C   UNL     1       1.309  -3.029   0.479  0.00  0.00    +0.193 A 
BRANCH  22  26
ATOM     26  C   UNL     1       2.335  -0.032   2.243  0.00  0.00    +0.022 A 
ATOM     27  C   UNL     1       2.155   1.127   1.479  0.00  0.00    +0.031 A 
ATOM     28  C   UNL     1       2.612   2.331   1.972  0.00  0.00    +0.111 A 
ATOM     29  N   UNL     1       3.210   2.399   3.147  0.00  0.00    -0.263 NA
ATOM     30  C   UNL     1       3.400   1.331   3.899  0.00  0.00    +0.111 A 
ATOM     31  C   UNL     1       2.971   0.088   3.486  0.00  0.00    +0.031 A 
ENDBRANCH  22  26
BRANCH  21  32
ATOM     32  C   UNL     1       2.223  -1.004  -0.740  0.00  0.00    +0.152 C 
BRANCH  32  34
ATOM     33  C   UNL     1       1.016   0.942  -1.588  0.00  0.00    +0.005 C 
ATOM     34  C   UNL     1       1.014  -0.347  -1.355  0.00  0.00    -0.013 C 
ENDBRANCH  32  34
ENDBRANCH  21  32
ENDBRANCH  20  25
ENDBRANCH   1  20
TORSDOF 6
