REMARK  Name = ZINC44028950
REMARK  17 active torsions:
REMARK  status: ('A' for Active; 'I' for Inactive)
REMARK    1  A    between atoms: C_1  and  C_2
REMARK    2  A    between atoms: C_2  and  N_3
REMARK    3  A    between atoms: N_3  and  C_4
REMARK    4  A    between atoms: N_3  and  C_6
REMARK    5  A    between atoms: C_4  and  C_5
REMARK    6  A    between atoms: C_6  and  C_7
REMARK    7  A    between atoms: C_7  and  S_8
REMARK    8  A    between atoms: S_8  and  C_9
REMARK    9  A    between atoms: C_9  and  C_10
REMARK   10  A    between atoms: C_10  and  O_12
REMARK   11  A    between atoms: O_12  and  C_13
REMARK   12  A    between atoms: C_16  and  C_37
REMARK   13  A    between atoms: C_16  and  C_38
REMARK   14  A    between atoms: C_17  and  O_36
REMARK   15  A    between atoms: C_19  and  C_35
REMARK   16  A    between atoms: C_24  and  C_34
REMARK   17  A    between atoms: C_26  and  C_33
REMARK                            x       y       z     vdW  Elec       q    Type
REMARK                         _______ _______ _______ _____ _____    ______ ____
ROOT
ATOM      1  C   UNL     1       3.592  -8.851   4.724  0.00  0.00    +0.184 C 
ATOM      2  C   UNL     1       2.561  -9.762   5.479  0.00  0.00    +0.058 C 
ATOM      3  C   UNL     1       2.200  -9.376   6.870  0.00  0.00    +0.015 C 
ATOM      4  C   UNL     1       3.012  -9.540   8.155  0.00  0.00    +0.128 C 
ATOM      5  C   UNL     1       4.247 -10.362   8.385  0.00  0.00    +0.022 C 
ATOM      6  C   UNL     1       5.384 -10.451   7.398  0.00  0.00    -0.014 C 
ATOM      7  C   UNL     1       6.611  -9.568   7.508  0.00  0.00    +0.008 C 
ATOM      8  C   UNL     1       7.146  -8.830   6.305  0.00  0.00    +0.004 C 
ATOM      9  C   UNL     1       6.284  -8.717   5.027  0.00  0.00    -0.004 C 
ATOM     10  C   UNL     1       4.887  -9.054   5.468  0.00  0.00    +0.018 C 
ATOM     11  C   UNL     1       4.915 -10.493   5.955  0.00  0.00    +0.071 C 
ATOM     12  C   UNL     1       5.939 -11.323   5.188  0.00  0.00    +0.138 C 
ATOM     13  O   UNL     1       6.008 -11.438   3.986  0.00  0.00    -0.297 OA
ATOM     14  C   UNL     1       6.827 -11.976   6.236  0.00  0.00    +0.075 C 
ATOM     15  C   UNL     1       5.990 -11.904   7.538  0.00  0.00    +0.015 C 
ATOM     16  C   UNL     1       4.729  -8.029   6.566  0.00  0.00    +0.016 C 
ATOM     17  C   UNL     1       6.328  -7.289   4.467  0.00  0.00    +0.008 C 
ATOM     18  C   UNL     1       4.809 -10.062   9.788  0.00  0.00    +0.011 C 
ATOM     19  C   UNL     1       0.965 -10.292   7.142  0.00  0.00    +0.018 C 
ENDROOT
BRANCH   4  20
ATOM     20  O   UNL     1       3.134  -8.258   8.796  0.00  0.00    -0.391 OA
ATOM     21  H   UNL     1       2.298  -7.904   9.130  0.00  0.00    +0.210 HD
ENDBRANCH   4  20
BRANCH   3  22
ATOM     22  C   UNL     1       1.577  -8.008   6.875  0.00  0.00    -0.025 C 
ATOM     23  C   UNL     1       0.411  -7.821   7.443  0.00  0.00    +0.004 C 
ENDBRANCH   3  22
BRANCH   1  24
ATOM     24  O   UNL     1       3.211  -7.477   4.672  0.00  0.00    -0.460 OA
BRANCH  24  25
ATOM     25  C   UNL     1       2.422  -7.101   3.654  0.00  0.00    +0.317 C 
ATOM     26  O   UNL     1       2.067  -7.914   2.833  0.00  0.00    -0.250 OA
BRANCH  25  27
ATOM     27  C   UNL     1       1.979  -5.666   3.534  0.00  0.00    +0.189 C 
BRANCH  27  28
ATOM     28  S   UNL     1       0.931  -5.477   2.065  0.00  0.00    -0.151 S 
BRANCH  28  29
ATOM     29  C   UNL     1       0.488  -3.718   2.065  0.00  0.00    +0.051 C 
BRANCH  29  30
ATOM     30  C   UNL     1      -0.408  -3.418   0.862  0.00  0.00    -0.068 C 
BRANCH  30  31
ATOM     31  N   UNL     1      -0.867  -2.024   0.929  0.00  0.00    +0.380 N 
ATOM     32  H   UNL     1      -1.337  -1.867   1.808  0.00  0.00    -0.082 HD
BRANCH  31  34
ATOM     33  C   UNL     1      -0.175   0.323   1.018  0.00  0.00    -0.017 C 
ATOM     34  C   UNL     1       0.287  -1.122   0.823  0.00  0.00    -0.082 C 
ENDBRANCH  31  34
BRANCH  31  35
ATOM     35  C   UNL     1      -1.797  -1.761  -0.177  0.00  0.00    -0.082 C 
ATOM     36  C   UNL     1      -3.075  -2.577   0.026  0.00  0.00    -0.017 C 
ENDBRANCH  31  35
ENDBRANCH  30  31
ENDBRANCH  29  30
ENDBRANCH  28  29
ENDBRANCH  27  28
ENDBRANCH  25  27
ENDBRANCH  24  25
ENDBRANCH   1  24
TORSDOF 11
