REMARK  Name = ZINC09844686
REMARK  7 active torsions:
REMARK  status: ('A' for Active; 'I' for Inactive)
REMARK    1  A    between atoms: C_3  and  N_27
REMARK    2  A    between atoms: C_5  and  S_7
REMARK    3  A    between atoms: S_7  and  N_10
REMARK    4  A    between atoms: N_10  and  C_11
REMARK    5  A    between atoms: C_11  and  C_12
REMARK    6  A    between atoms: C_12  and  N_13
REMARK    7  A    between atoms: C_18  and  C_20
REMARK                            x       y       z     vdW  Elec       q    Type
REMARK                         _______ _______ _______ _____ _____    ______ ____
ROOT
ATOM      1  C   UNL     1      -5.958   1.877   2.480  0.00  0.00    +0.129 C 
ENDROOT
BRANCH   1   2
ATOM      2  N   UNL     1      -5.628   0.742   1.614  0.00  0.00    -0.188 NA
ATOM      3  H   UNL     1      -5.651  -0.161   1.967  0.00  0.00    +0.148 HD
BRANCH   2   4
ATOM      4  S   UNL     1      -5.214   1.002   0.032  0.00  0.00    +0.059 S 
ATOM      5  O   UNL     1      -6.203   1.867  -0.510  0.00  0.00    -0.153 OA
ATOM      6  O   UNL     1      -4.928  -0.273  -0.528  0.00  0.00    -0.153 OA
BRANCH   4  11
ATOM      7  C   UNL     1      -2.532   3.993   0.037  0.00  0.00    +0.004 A 
ATOM      8  C   UNL     1      -1.325   3.318   0.032  0.00  0.00    +0.033 A 
ATOM      9  C   UNL     1      -1.306   1.936   0.019  0.00  0.00    +0.128 A 
ATOM     10  C   UNL     1      -2.494   1.229   0.021  0.00  0.00    +0.061 A 
ATOM     11  C   UNL     1      -3.700   1.904   0.030  0.00  0.00    +0.107 A 
ATOM     12  C   UNL     1      -3.719   3.286   0.038  0.00  0.00    +0.028 A 
BRANCH   9  13
ATOM     13  N   UNL     1      -0.014   1.214   0.009  0.00  0.00    +0.056 N 
ATOM     14  O   UNL     1       0.002  -0.004   0.002  0.00  0.00    -0.126 OA
ATOM     15  O   UNL     1       1.032   1.837   0.002  0.00  0.00    -0.126 OA
ENDBRANCH   9  13
ENDBRANCH   4  11
ENDBRANCH   2   4
ENDBRANCH   1   2
BRANCH   1  16
ATOM     16  C   UNL     1      -6.652   1.367   3.745  0.00  0.00    +0.164 C 
BRANCH  16  17
ATOM     17  N   UNL     1      -6.983   2.501   4.611  0.00  0.00    -0.228 N 
ATOM     18  C   UNL     1      -8.172   3.114   4.463  0.00  0.00    +0.267 A 
ATOM     19  O   UNL     1      -8.962   2.727   3.617  0.00  0.00    -0.266 OA
ATOM     20  C   UNL     1      -8.502   4.205   5.297  0.00  0.00    +0.074 A 
ATOM     21  C   UNL     1      -7.582   4.602   6.223  0.00  0.00    +0.035 A 
ATOM     22  C   UNL     1      -6.359   3.896   6.295  0.00  0.00    +0.092 A 
ATOM     23  N   UNL     1      -6.128   2.888   5.488  0.00  0.00    -0.168 NA
BRANCH  22  24
ATOM     24  C   UNL     1      -5.332   4.297   7.289  0.00  0.00    +0.002 A 
ATOM     25  C   UNL     1      -5.570   5.370   8.145  0.00  0.00    +0.011 A 
ATOM     26  C   UNL     1      -4.614   5.737   9.070  0.00  0.00    +0.020 A 
ATOM     27  C   UNL     1      -3.416   5.045   9.142  0.00  0.00    +0.041 A 
ATOM     28  C   UNL     1      -3.174   3.981   8.291  0.00  0.00    +0.020 A 
ATOM     29  C   UNL     1      -4.125   3.604   7.365  0.00  0.00    +0.011 A 
ATOM     30 CL   UNL     1      -2.215   5.515  10.304  0.00  0.00    -0.084 Cl
ENDBRANCH  22  24
ENDBRANCH  16  17
ENDBRANCH   1  16
TORSDOF 7
