REMARK  Name = ZINC11866957
REMARK  5 active torsions:
REMARK  status: ('A' for Active; 'I' for Inactive)
REMARK    1  A    between atoms: C_4  and  C_7
REMARK    2  A    between atoms: C_15  and  O_38
REMARK    3  A    between atoms: C_19  and  C_21
REMARK    4  A    between atoms: C_21  and  O_22
REMARK    5  A    between atoms: O_22  and  C_23
REMARK                            x       y       z     vdW  Elec       q    Type
REMARK                         _______ _______ _______ _____ _____    ______ ____
ROOT
ATOM      1  C   UNL     1       6.299   6.092  -0.025  0.00  0.00    +0.112 C 
ATOM      2  C   UNL     1       6.424   7.077  -1.191  0.00  0.00    +0.046 C 
ATOM      3  C   UNL     1       7.779   7.783  -1.108  0.00  0.00    +0.008 C 
ATOM      4  C   UNL     1       7.910   8.779  -2.262  0.00  0.00    +0.001 C 
ATOM      5  C   UNL     1       6.790   9.817  -2.166  0.00  0.00    +0.003 C 
ATOM      6  C   UNL     1       5.435   9.113  -2.253  0.00  0.00    +0.035 C 
ATOM      7  C   UNL     1       5.301   8.114  -1.102  0.00  0.00    +0.072 C 
ATOM      8  C   UNL     1       3.945   7.409  -1.202  0.00  0.00    +0.054 C 
ATOM      9  C   UNL     1       3.794   6.430  -0.040  0.00  0.00    +0.111 C 
ATOM     10  N   UNL     1       4.946   5.519  -0.030  0.00  0.00    -0.291 N 
ATOM     11  C   UNL     1       4.766   4.183  -0.033  0.00  0.00    +0.254 C 
ATOM     12  O   UNL     1       5.726   3.441  -0.030  0.00  0.00    -0.272 OA
ENDROOT
BRANCH   1  16
ATOM     13  C   UNL     1       6.967   8.145   3.662  0.00  0.00    +0.000 A 
ATOM     14  C   UNL     1       5.732   7.582   3.398  0.00  0.00    +0.000 A 
ATOM     15  C   UNL     1       5.516   6.917   2.205  0.00  0.00    +0.005 A 
ATOM     16  C   UNL     1       6.534   6.816   1.276  0.00  0.00    -0.027 A 
ATOM     17  C   UNL     1       7.771   7.375   1.542  0.00  0.00    +0.005 A 
ATOM     18  C   UNL     1       7.985   8.043   2.732  0.00  0.00    +0.000 A 
ENDBRANCH   1  16
BRANCH   7  19
ATOM     19  O   UNL     1       5.390   8.807   0.144  0.00  0.00    -0.388 OA
ATOM     20  H   UNL     1       4.708   9.481   0.269  0.00  0.00    +0.210 HD
ENDBRANCH   7  19
BRANCH  11  21
ATOM     21  C   UNL     1       3.372   3.611  -0.039  0.00  0.00    +0.324 C 
BRANCH  21  22
ATOM     22  O   UNL     1       3.442   2.183  -0.041  0.00  0.00    -0.483 OA
BRANCH  22  23
ATOM     23  C   UNL     1       2.265   1.508  -0.046  0.00  0.00    +0.125 A 
ATOM     24  C   UNL     1       1.063   2.214  -0.051  0.00  0.00    +0.046 A 
ATOM     25  C   UNL     1      -0.129   1.550  -0.056  0.00  0.00    +0.015 A 
ATOM     26  C   UNL     1      -0.144   0.150  -0.058  0.00  0.00    +0.021 A 
ATOM     27  C   UNL     1       1.065  -0.567  -0.054  0.00  0.00    +0.143 A 
ATOM     28  C   UNL     1       2.268   0.123  -0.048  0.00  0.00    +0.092 A 
ATOM     29  O   UNL     1       1.039  -1.917  -0.055  0.00  0.00    -0.422 OA
ATOM     30  C   UNL     1      -0.118  -2.592  -0.065  0.00  0.00    +0.341 A 
ATOM     31  O   UNL     1      -0.089  -3.809  -0.067  0.00  0.00    -0.245 OA
ATOM     32  C   UNL     1      -1.373  -1.935  -0.072  0.00  0.00    +0.041 A 
ATOM     33  C   UNL     1      -1.415  -0.585  -0.062  0.00  0.00    -0.027 A 
ATOM     34  C   UNL     1      -2.698   0.198  -0.050  0.00  0.00    +0.036 C 
ATOM     35  C   UNL     1      -3.869  -0.679  -0.487  0.00  0.00    +0.005 C 
ATOM     36  C   UNL     1      -3.834  -1.973   0.335  0.00  0.00    +0.005 C 
ATOM     37  C   UNL     1      -2.616  -2.786  -0.098  0.00  0.00    +0.042 C 
ENDBRANCH  22  23
ENDBRANCH  21  22
ENDBRANCH  11  21
TORSDOF 5
