REMARK  Name = ZINC20688291
REMARK  9 active torsions:
REMARK  status: ('A' for Active; 'I' for Inactive)
REMARK    1  A    between atoms: C_1  and  N_2
REMARK    2  A    between atoms: N_2  and  C_3
REMARK    3  A    between atoms: N_2  and  C_20
REMARK    4  A    between atoms: C_3  and  C_4
REMARK    5  A    between atoms: N_6  and  C_7
REMARK    6  A    between atoms: C_7  and  C_8
REMARK    7  A    between atoms: C_11  and  C_13
REMARK    8  A    between atoms: C_20  and  C_21
REMARK    9  A    between atoms: N_23  and  C_24
REMARK                            x       y       z     vdW  Elec       q    Type
REMARK                         _______ _______ _______ _____ _____    ______ ____
ROOT
ATOM      1  C   UNL     1       4.774   0.728   0.475  0.00  0.00    +0.197 C 
ATOM      2  O   UNL     1       4.522  -0.458   0.439  0.00  0.00    -0.278 OA
ATOM      3  N   UNL     1       6.033   1.142   0.718  0.00  0.00    -0.310 N 
ATOM      4  H   UNL     1       6.262   2.217   0.751  0.00  0.00    +0.149 HD
ENDROOT
BRANCH   1   5
ATOM      5  C   UNL     1       3.679   1.738   0.249  0.00  0.00    +0.019 C 
BRANCH   5   7
ATOM      6  C   UNL     1       2.455   0.285  -1.252  0.00  0.00    -0.095 C 
ATOM      7  N   UNL     1       2.409   1.039   0.008  0.00  0.00    +0.389 N 
ATOM      8  H   UNL     1       2.259   0.320   0.827  0.00  0.00    -0.081 HD
BRANCH   7   9
ATOM      9  C   UNL     1       1.280   1.979   0.019  0.00  0.00    +0.019 C 
BRANCH   9  10
ATOM     10  C   UNL     1      -0.015   1.208   0.015  0.00  0.00    +0.201 C 
ATOM     11  O   UNL     1       0.001  -0.005   0.005  0.00  0.00    -0.278 OA
ATOM     12  N   UNL     1      -1.191   1.867   0.018  0.00  0.00    -0.286 N 
ATOM     13  H   UNL     1      -1.207   2.963   0.102  0.00  0.00    +0.155 HD
BRANCH  12  14
ATOM     14  C   UNL     1      -2.392   1.155  -0.086  0.00  0.00    +0.052 A 
ATOM     15  C   UNL     1      -2.510  -0.099   0.499  0.00  0.00    +0.025 A 
ATOM     16  C   UNL     1      -3.698  -0.796   0.399  0.00  0.00    +0.002 A 
ATOM     17  C   UNL     1      -4.766  -0.253  -0.291  0.00  0.00    +0.002 A 
ATOM     18  C   UNL     1      -4.650   0.993  -0.880  0.00  0.00    +0.022 A 
ATOM     19  C   UNL     1      -3.466   1.699  -0.779  0.00  0.00    +0.062 A 
ATOM     20 CL   UNL     1      -3.320   3.263  -1.519  0.00  0.00    -0.082 Cl
ENDBRANCH  12  14
ENDBRANCH   9  10
ENDBRANCH   7   9
ENDBRANCH   5   7
ENDBRANCH   1   5
BRANCH   3  21
ATOM     21  C   UNL     1       7.098   0.160   0.938  0.00  0.00    +0.178 C 
BRANCH  21  22
ATOM     22  C   UNL     1       8.400   0.877   1.185  0.00  0.00    +0.123 A 
ATOM     23  C   UNL     1       8.868   1.263   2.388  0.00  0.00    +0.047 A 
ATOM     24  C   UNL     1      10.108   1.894   2.166  0.00  0.00    +0.050 A 
ATOM     25  C   UNL     1      10.331   1.857   0.825  0.00  0.00    +0.135 A 
ATOM     26  O   UNL     1       9.289   1.233   0.244  0.00  0.00    -0.458 OA
BRANCH  25  27
ATOM     27  C   UNL     1      11.514   2.403   0.128  0.00  0.00    +0.017 A 
ATOM     28  C   UNL     1      12.528   3.030   0.854  0.00  0.00    +0.013 A 
ATOM     29  C   UNL     1      13.633   3.532   0.198  0.00  0.00    +0.021 A 
ATOM     30  C   UNL     1      13.731   3.426  -1.180  0.00  0.00    +0.041 A 
ATOM     31  C   UNL     1      12.726   2.810  -1.906  0.00  0.00    +0.021 A 
ATOM     32  C   UNL     1      11.619   2.299  -1.260  0.00  0.00    +0.013 A 
ATOM     33 CL   UNL     1      15.120   4.068  -1.999  0.00  0.00    -0.084 Cl
ENDBRANCH  25  27
ENDBRANCH  21  22
ENDBRANCH   3  21
TORSDOF 8
