REMARK  Name = ZINC12459053
REMARK  7 active torsions:
REMARK  status: ('A' for Active; 'I' for Inactive)
REMARK    1  A    between atoms: C_4  and  C_7
REMARK    2  A    between atoms: C_7  and  C_8
REMARK    3  A    between atoms: C_7  and  C_28
REMARK    4  A    between atoms: C_8  and  N_65
REMARK    5  A    between atoms: C_14  and  C_16
REMARK    6  A    between atoms: C_16  and  C_17
REMARK    7  A    between atoms: C_22  and  C_25
REMARK                            x       y       z     vdW  Elec       q    Type
REMARK                         _______ _______ _______ _____ _____    ______ ____
ROOT
ATOM      1  C   UNL     1      -0.906   1.123   0.823  0.00  0.00    -0.059 C 
ATOM      2  C   UNL     1      -1.131  -0.384   0.962  0.00  0.00    +0.085 C 
ATOM      3  N   UNL     1      -0.194  -1.110   0.110  0.00  0.00    -0.318 N 
ATOM      4  C   UNL     1       0.920  -0.557  -0.382  0.00  0.00    +0.200 C 
ATOM      5  O   UNL     1       1.660  -1.242  -1.056  0.00  0.00    -0.278 OA
ATOM      6  C   UNL     1       1.294   0.877  -0.134  0.00  0.00    +0.028 C 
ATOM      7  H   UNL     1      -0.388  -2.035  -0.109  0.00  0.00    +0.149 HD
ATOM      8  N   UNL     1       0.533   1.391   1.020  0.00  0.00    +0.389 N 
ATOM      9  H   UNL     1       0.849   0.912   1.872  0.00  0.00    -0.081 HD
ENDROOT
BRANCH   8  10
ATOM     10  C   UNL     1       0.763   2.846   1.171  0.00  0.00    -0.065 C 
BRANCH  10  11
ATOM     11  C   UNL     1       0.214   3.297   2.526  0.00  0.00    +0.032 C 
BRANCH  11  15
ATOM     12  C   UNL     1       2.427   1.415   5.658  0.00  0.00    +0.000 A 
ATOM     13  C   UNL     1       3.089   2.128   4.676  0.00  0.00    +0.000 A 
ATOM     14  C   UNL     1       2.373   2.737   3.663  0.00  0.00    +0.004 A 
ATOM     15  C   UNL     1       0.995   2.633   3.631  0.00  0.00    -0.042 A 
ATOM     16  C   UNL     1       0.332   1.924   4.616  0.00  0.00    +0.004 A 
ATOM     17  C   UNL     1       1.049   1.311   5.627  0.00  0.00    +0.000 A 
ENDBRANCH  11  15
BRANCH  11  18
ATOM     18  C   UNL     1       0.344   4.793   2.648  0.00  0.00    -0.042 A 
ATOM     19  C   UNL     1       1.562   5.403   2.410  0.00  0.00    +0.004 A 
ATOM     20  C   UNL     1       1.681   6.776   2.517  0.00  0.00    +0.000 A 
ATOM     21  C   UNL     1       0.584   7.538   2.873  0.00  0.00    +0.000 A 
ATOM     22  C   UNL     1      -0.632   6.929   3.116  0.00  0.00    +0.000 A 
ATOM     23  C   UNL     1      -0.752   5.556   3.004  0.00  0.00    +0.004 A 
ENDBRANCH  11  18
ENDBRANCH  10  11
ENDBRANCH   8  10
BRANCH   6  24
ATOM     24  C   UNL     1       2.789   0.965   0.178  0.00  0.00    +0.090 C 
BRANCH  24  25
ATOM     25  C   UNL     1       3.090   0.177   1.426  0.00  0.00    +0.214 C 
ATOM     26  O   UNL     1       2.185  -0.319   2.063  0.00  0.00    -0.276 OA
ATOM     27  N   UNL     1       4.365   0.022   1.835  0.00  0.00    -0.301 N 
ATOM     28  C   UNL     1       5.473   0.612   1.071  0.00  0.00    +0.108 C 
ATOM     29  C   UNL     1       6.492  -0.480   0.749  0.00  0.00    +0.032 C 
ATOM     30  C   UNL     1       6.920  -1.173   2.045  0.00  0.00    +0.078 C 
ATOM     31  C   UNL     1       5.702  -1.825   2.703  0.00  0.00    +0.032 C 
ATOM     32  C   UNL     1       4.674  -0.744   3.050  0.00  0.00    +0.108 C 
BRANCH  30  33
ATOM     33  C   UNL     1       7.948  -2.229   1.733  0.00  0.00    +0.214 C 
ATOM     34  O   UNL     1       7.729  -3.389   2.009  0.00  0.00    -0.276 OA
ATOM     35  N   UNL     1       9.112  -1.885   1.146  0.00  0.00    -0.329 N 
ATOM     36  H   UNL     1       9.287  -0.957   0.924  0.00  0.00    +0.145 HD
ATOM     37  H   UNL     1       9.774  -2.565   0.945  0.00  0.00    +0.145 HD
ENDBRANCH  30  33
ENDBRANCH  24  25
ENDBRANCH   6  24
TORSDOF 7
