REMARK  Name = ZINC67381324
REMARK  7 active torsions:
REMARK  status: ('A' for Active; 'I' for Inactive)
REMARK    1  A    between atoms: C_1  and  N_2
REMARK    2  A    between atoms: N_2  and  C_3
REMARK    3  A    between atoms: N_2  and  C_4
REMARK    4  A    between atoms: C_4  and  C_6
REMARK    5  A    between atoms: C_4  and  C_24
REMARK    6  A    between atoms: C_6  and  N_7
REMARK    7  A    between atoms: C_14  and  C_17
REMARK                            x       y       z     vdW  Elec       q    Type
REMARK                         _______ _______ _______ _____ _____    ______ ____
ROOT
ATOM      1  N   UNL     1       1.876   1.580  -0.915  0.00  0.00    -0.300 N 
ATOM      2  C   UNL     1       2.994   2.327  -0.816  0.00  0.00    +0.302 C 
ATOM      3  O   UNL     1       4.077   1.836  -1.070  0.00  0.00    -0.253 OA
ATOM      4  N   UNL     1       2.910   3.617  -0.437  0.00  0.00    -0.281 N 
ATOM      5  C   UNL     1       4.099   4.485  -0.435  0.00  0.00    +0.137 C 
ATOM      6  C   UNL     1       4.190   5.177   0.929  0.00  0.00    +0.179 C 
ATOM      7  O   UNL     1       2.942   5.811   1.220  0.00  0.00    -0.369 OA
ATOM      8  C   UNL     1       1.840   4.907   1.331  0.00  0.00    +0.168 C 
ATOM      9  C   UNL     1       1.627   4.202  -0.018  0.00  0.00    +0.145 C 
ATOM     10  H   UNL     1       1.006   1.989  -0.785  0.00  0.00    +0.150 HD
ENDROOT
BRANCH   8  11
ATOM     11  C   UNL     1       0.596   5.675   1.699  0.00  0.00    +0.018 A 
ATOM     12  C   UNL     1       0.489   7.014   1.377  0.00  0.00    +0.009 A 
ATOM     13  C   UNL     1      -0.652   7.718   1.714  0.00  0.00    +0.001 A 
ATOM     14  C   UNL     1      -1.687   7.083   2.374  0.00  0.00    +0.003 A 
ATOM     15  C   UNL     1      -1.583   5.744   2.698  0.00  0.00    +0.039 A 
ATOM     16  C   UNL     1      -0.443   5.036   2.356  0.00  0.00    +0.129 A 
ATOM     17  F   UNL     1      -0.341   3.725   2.667  0.00  0.00    -0.205 F 
ENDBRANCH   8  11
BRANCH   1  18
ATOM     18  C   UNL     1       1.975   0.150  -1.218  0.00  0.00    +0.095 C 
BRANCH  18  19
ATOM     19  C   UNL     1       0.584  -0.483  -1.152  0.00  0.00    -0.021 C 
BRANCH  19  20
ATOM     20  C   UNL     1      -0.282   0.091  -2.244  0.00  0.00    -0.059 A 
ATOM     21  C   UNL     1      -0.171  -0.385  -3.537  0.00  0.00    +0.002 A 
ATOM     22  C   UNL     1      -0.965   0.141  -4.538  0.00  0.00    +0.000 A 
ATOM     23  C   UNL     1      -1.870   1.144  -4.247  0.00  0.00    +0.000 A 
ATOM     24  C   UNL     1      -1.982   1.620  -2.954  0.00  0.00    +0.000 A 
ATOM     25  C   UNL     1      -1.191   1.090  -1.952  0.00  0.00    +0.002 A 
ENDBRANCH  19  20
BRANCH  19  27
ATOM     26  C   UNL     1       1.458  -2.509  -0.212  0.00  0.00    -0.096 C 
ATOM     27  N   UNL     1       0.698  -1.937  -1.331  0.00  0.00    +0.382 N 
ATOM     28  C   UNL     1      -0.644  -2.532  -1.367  0.00  0.00    -0.096 C 
ATOM     29  H   UNL     1       1.176  -2.132  -2.198  0.00  0.00    -0.082 HD
ENDBRANCH  19  27
ENDBRANCH  18  19
ENDBRANCH   1  18
TORSDOF 5
