REMARK  Name = ZINC02106320
REMARK  10 active torsions:
REMARK  status: ('A' for Active; 'I' for Inactive)
REMARK    1  A    between atoms: C_1  and  C_2
REMARK    2  A    between atoms: C_2  and  C_4
REMARK    3  A    between atoms: C_2  and  N_12
REMARK    4  A    between atoms: C_4  and  C_5
REMARK    5  A    between atoms: C_5  and  C_6
REMARK    6  A    between atoms: C_32  and  C_34
REMARK    7  A    between atoms: C_36  and  O_42
REMARK    8  A    between atoms: C_39  and  O_40
REMARK    9  A    between atoms: O_40  and  C_41
REMARK   10  A    between atoms: O_42  and  C_43
REMARK                            x       y       z     vdW  Elec       q    Type
REMARK                         _______ _______ _______ _____ _____    ______ ____
ROOT
ATOM      1  N   UNL     1      -5.585  -2.501   1.613  0.00  0.00    -0.288 N 
ATOM      2  C   UNL     1      -4.214  -2.968   1.741  0.00  0.00    +0.204 C 
ATOM      3  C   UNL     1      -3.237  -2.011   1.139  0.00  0.00    +0.234 C 
ATOM      4  O   UNL     1      -2.058  -2.285   1.214  0.00  0.00    -0.274 OA
ATOM      5  N   UNL     1      -3.574  -0.876   0.524  0.00  0.00    -0.276 N 
ATOM      6  C   UNL     1      -4.961  -0.469   0.300  0.00  0.00    +0.167 C 
ATOM      7  C   UNL     1      -5.930  -1.384   0.976  0.00  0.00    +0.237 C 
ATOM      8  O   UNL     1      -7.107  -1.092   0.940  0.00  0.00    -0.274 OA
ATOM      9  C   UNL     1      -5.242  -0.444  -1.209  0.00  0.00    +0.069 C 
ATOM     10  C   UNL     1      -4.096   0.242  -1.907  0.00  0.00    -0.015 A 
ATOM     11  C   UNL     1      -4.061   0.794  -3.246  0.00  0.00    +0.003 A 
ATOM     12  C   UNL     1      -5.018   0.872  -4.263  0.00  0.00    +0.010 A 
ATOM     13  C   UNL     1      -4.630   1.475  -5.434  0.00  0.00    +0.001 A 
ATOM     14  C   UNL     1      -3.355   1.988  -5.611  0.00  0.00    +0.002 A 
ATOM     15  C   UNL     1      -2.390   1.926  -4.621  0.00  0.00    +0.026 A 
ATOM     16  C   UNL     1      -2.755   1.319  -3.421  0.00  0.00    +0.047 A 
ATOM     17  N   UNL     1      -2.069   1.094  -2.262  0.00  0.00    -0.356 N 
ATOM     18  H   UNL     1      -1.148   1.351  -2.100  0.00  0.00    +0.166 HD
ATOM     19  C   UNL     1      -2.877   0.451  -1.363  0.00  0.00    +0.046 A 
ATOM     20  C   UNL     1      -2.504   0.022   0.038  0.00  0.00    +0.158 C 
ENDROOT
BRANCH  20  21
ATOM     21  C   UNL     1      -1.189  -0.714   0.015  0.00  0.00    +0.024 A 
ATOM     22  C   UNL     1      -0.845  -1.479  -1.082  0.00  0.00    +0.055 A 
ATOM     23  C   UNL     1       0.363  -2.160  -1.101  0.00  0.00    +0.121 A 
ATOM     24  C   UNL     1       1.228  -2.069  -0.020  0.00  0.00    +0.049 A 
ATOM     25  C   UNL     1       0.885  -1.300   1.075  0.00  0.00    +0.049 A 
ATOM     26  C   UNL     1      -0.323  -0.619   1.094  0.00  0.00    +0.126 A 
BRANCH  26  27
ATOM     27  O   UNL     1      -0.660   0.139   2.172  0.00  0.00    -0.495 OA
ATOM     28  C   UNL     1       0.278   0.187   3.249  0.00  0.00    +0.277 C 
ENDBRANCH  26  27
BRANCH  23  29
ATOM     29  O   UNL     1       0.700  -2.917  -2.179  0.00  0.00    -0.495 OA
ATOM     30  C   UNL     1       1.959  -3.591  -2.130  0.00  0.00    +0.277 C 
ENDBRANCH  23  29
ENDBRANCH  20  21
BRANCH   1  32
ATOM     31  C   UNL     1      -6.646  -4.704   1.601  0.00  0.00    +0.028 C 
ATOM     32  C   UNL     1      -6.647  -3.305   2.221  0.00  0.00    +0.074 C 
BRANCH  32  33
ATOM     33  C   UNL     1      -6.406  -3.415   3.728  0.00  0.00    +0.027 C 
BRANCH  33  34
ATOM     34  C   UNL     1      -6.531  -2.031   4.367  0.00  0.00    +0.037 C 
BRANCH  34  35
ATOM     35  C   UNL     1      -6.293  -2.139   5.851  0.00  0.00    -0.047 A 
ATOM     36  C   UNL     1      -7.354  -2.369   6.706  0.00  0.00    +0.003 A 
ATOM     37  C   UNL     1      -7.135  -2.472   8.067  0.00  0.00    +0.000 A 
ATOM     38  C   UNL     1      -5.856  -2.337   8.574  0.00  0.00    +0.000 A 
ATOM     39  C   UNL     1      -4.795  -2.102   7.719  0.00  0.00    +0.000 A 
ATOM     40  C   UNL     1      -5.014  -2.002   6.357  0.00  0.00    +0.003 A 
ENDBRANCH  34  35
ENDBRANCH  33  34
ENDBRANCH  32  33
ENDBRANCH   1  32
TORSDOF 7
