REMARK  Name = ZINC05551239
REMARK  5 active torsions:
REMARK  status: ('A' for Active; 'I' for Inactive)
REMARK    1  A    between atoms: C_1  and  O_2
REMARK    2  A    between atoms: O_2  and  C_3
REMARK    3  A    between atoms: C_5  and  C_10
REMARK    4  A    between atoms: C_8  and  O_9
REMARK    5  A    between atoms: N_16  and  C_17
REMARK                            x       y       z     vdW  Elec       q    Type
REMARK                         _______ _______ _______ _____ _____    ______ ____
ROOT
ATOM      1  C   UNL     1       3.260   6.088  -3.545  0.00  0.00    +0.028 C 
ATOM      2  C   UNL     1       3.707   5.003  -2.863  0.00  0.00    +0.078 C 
ATOM      3  C   UNL     1       5.006   4.784  -2.199  0.00  0.00    +0.256 C 
ATOM      4  O   UNL     1       5.875   5.636  -2.204  0.00  0.00    -0.269 OA
ATOM      5  N   UNL     1       5.184   3.620  -1.597  0.00  0.00    -0.260 N 
ATOM      6  C   UNL     1       4.188   2.667  -1.603  0.00  0.00    +0.166 C 
ATOM      7  N   UNL     1       4.199   1.471  -1.060  0.00  0.00    -0.226 NA
ATOM      8  S   UNL     1       2.882   3.452  -2.533  0.00  0.00    -0.049 S 
ATOM      9  H   UNL     1       6.024   3.434  -1.149  0.00  0.00    +0.157 HD
ENDROOT
BRANCH   7  10
ATOM     10  C   UNL     1       3.103   0.658  -1.172  0.00  0.00    +0.068 A 
ATOM     11  C   UNL     1       3.260  -0.689  -1.505  0.00  0.00    +0.031 A 
ATOM     12  C   UNL     1       2.152  -1.503  -1.617  0.00  0.00    +0.042 A 
ATOM     13  C   UNL     1       0.885  -0.988  -1.399  0.00  0.00    +0.142 A 
ATOM     14  C   UNL     1       0.722   0.349  -1.067  0.00  0.00    +0.078 A 
ATOM     15  C   UNL     1       1.824   1.173  -0.953  0.00  0.00    +0.050 A 
ATOM     16 CL   UNL     1      -0.870   0.988  -0.802  0.00  0.00    -0.081 Cl
ATOM     17  F   UNL     1      -0.196  -1.790  -1.509  0.00  0.00    -0.204 F 
ENDBRANCH   7  10
BRANCH   1  20
ATOM     18  C   UNL     1       0.238   7.118  -5.512  0.00  0.00    +0.162 A 
ATOM     19  C   UNL     1       1.432   7.186  -4.822  0.00  0.00    +0.057 A 
ATOM     20  C   UNL     1       1.988   6.023  -4.276  0.00  0.00    -0.020 A 
ATOM     21  C   UNL     1       1.325   4.799  -4.424  0.00  0.00    +0.012 A 
ATOM     22  C   UNL     1       0.132   4.742  -5.110  0.00  0.00    +0.050 A 
ATOM     23  C   UNL     1      -0.416   5.895  -5.656  0.00  0.00    +0.158 A 
BRANCH  18  25
ATOM     24  C   UNL     1       0.421   9.463  -5.863  0.00  0.00    +0.277 C 
ATOM     25  O   UNL     1      -0.303   8.245  -6.048  0.00  0.00    -0.491 OA
ENDBRANCH  18  25
BRANCH  23  26
ATOM     26  O   UNL     1      -1.593   5.832  -6.331  0.00  0.00    -0.503 OA
ATOM     27  H   UNL     1      -2.373   5.960  -5.774  0.00  0.00    +0.292 HD
ENDBRANCH  23  26
ENDBRANCH   1  20
TORSDOF 4
