REMARK  Name = ZINC08684034
REMARK  8 active torsions:
REMARK  status: ('A' for Active; 'I' for Inactive)
REMARK    1  A    between atoms: C_1  and  C_2
REMARK    2  A    between atoms: C_2  and  S_3
REMARK    3  A    between atoms: S_3  and  N_6
REMARK    4  A    between atoms: N_6  and  C_7
REMARK    5  A    between atoms: C_11  and  C_13
REMARK    6  A    between atoms: N_15  and  S_24
REMARK    7  A    between atoms: C_16  and  C_19
REMARK    8  A    between atoms: S_24  and  C_27
REMARK                            x       y       z     vdW  Elec       q    Type
REMARK                         _______ _______ _______ _____ _____    ______ ____
ROOT
ATOM      1  C   UNL     1      -3.568  -6.742   0.011  0.00  0.00    +0.070 C 
ATOM      2  N   UNL     1      -2.455  -7.390   0.008  0.00  0.00    -0.167 NA
ATOM      3  N   UNL     1      -2.603  -8.775   0.006  0.00  0.00    -0.115 N 
ATOM      4  C   UNL     1      -4.039  -9.100   0.008  0.00  0.00    +0.160 C 
ATOM      5  C   UNL     1      -4.722  -7.718   0.018  0.00  0.00    +0.089 C 
ENDROOT
BRANCH   1  10
ATOM      6  C   UNL     1      -2.684  -3.089   0.011  0.00  0.00    +0.075 A 
ATOM      7  C   UNL     1      -3.948  -2.509   0.021  0.00  0.00    +0.027 A 
ATOM      8  C   UNL     1      -5.079  -3.304   0.027  0.00  0.00    +0.003 A 
ATOM      9  C   UNL     1      -4.961  -4.679   0.024  0.00  0.00    +0.010 A 
ATOM     10  C   UNL     1      -3.696  -5.272   0.014  0.00  0.00    -0.000 A 
ATOM     11  C   UNL     1      -2.555  -4.469   0.003  0.00  0.00    +0.036 A 
BRANCH   6  12
ATOM     12  N   UNL     1      -1.545  -2.281   0.005  0.00  0.00    -0.103 NA
BRANCH  12  13
ATOM     13  S   UNL     1      -1.700  -0.632   0.015  0.00  0.00    +0.062 S 
ATOM     14  O   UNL     1      -2.322  -0.334   1.257  0.00  0.00    -0.154 OA
ATOM     15  O   UNL     1      -2.346  -0.321  -1.212  0.00  0.00    -0.154 OA
BRANCH  13  17
ATOM     16  C   UNL     1      -0.019   1.526   0.010  0.00  0.00    +0.030 C 
ATOM     17  C   UNL     1       0.002  -0.004   0.002  0.00  0.00    +0.187 C 
ENDBRANCH  13  17
ENDBRANCH  12  13
ENDBRANCH   6  12
ENDBRANCH   1  10
BRANCH   4  18
ATOM     18  C   UNL     1      -4.409  -9.875  -1.231  0.00  0.00    +0.014 A 
ATOM     19  C   UNL     1      -5.277 -10.908  -1.364  0.00  0.00    +0.013 A 
ATOM     20  C   UNL     1      -5.461 -11.471  -2.612  0.00  0.00    +0.008 A 
ATOM     21  C   UNL     1      -4.769 -10.975  -3.667  0.00  0.00    +0.045 A 
ATOM     22  S   UNL     1      -3.824  -9.666  -2.904  0.00  0.00    -0.100 S 
ENDBRANCH   4  18
BRANCH   3  23
ATOM     23  S   UNL     1      -1.367  -9.877   0.001  0.00  0.00    +0.089 S 
ATOM     24  O   UNL     1      -0.269  -9.257   0.657  0.00  0.00    -0.149 OA
ATOM     25  O   UNL     1      -1.919 -11.110   0.439  0.00  0.00    -0.149 OA
BRANCH  23  26
ATOM     26  C   UNL     1      -0.883 -10.110  -1.677  0.00  0.00    +0.110 A 
ATOM     27  C   UNL     1      -1.491 -11.088  -2.442  0.00  0.00    +0.031 A 
ATOM     28  C   UNL     1      -1.113 -11.271  -3.758  0.00  0.00    +0.040 A 
ATOM     29  C   UNL     1      -0.125 -10.475  -4.312  0.00  0.00    +0.124 A 
ATOM     30  C   UNL     1       0.483  -9.495  -3.545  0.00  0.00    +0.040 A 
ATOM     31  C   UNL     1       0.100  -9.310  -2.230  0.00  0.00    +0.031 A 
ATOM     32  F   UNL     1       0.246 -10.654  -5.599  0.00  0.00    -0.205 F 
ENDBRANCH  23  26
ENDBRANCH   3  23
TORSDOF 7
