REMARK  Name = ZINC31232266
REMARK  10 active torsions:
REMARK  status: ('A' for Active; 'I' for Inactive)
REMARK    1  A    between atoms: C_1  and  N_2
REMARK    2  A    between atoms: N_2  and  C_3
REMARK    3  A    between atoms: N_2  and  C_4
REMARK    4  A    between atoms: C_4  and  C_5
REMARK    5  A    between atoms: C_10  and  N_11
REMARK    6  A    between atoms: C_12  and  C_14
REMARK    7  A    between atoms: C_14  and  C_15
REMARK    8  A    between atoms: N_17  and  C_29
REMARK    9  A    between atoms: C_19  and  C_20
REMARK   10  A    between atoms: C_23  and  N_26
REMARK                            x       y       z     vdW  Elec       q    Type
REMARK                         _______ _______ _______ _____ _____    ______ ____
ROOT
ATOM      1  C   UNL     1       2.780   3.858   0.094  0.00  0.00    +0.007 A 
ATOM      2  C   UNL     1       3.576   4.062   1.166  0.00  0.00    +0.119 A 
ATOM      3  N   UNL     1       4.812   4.393   0.711  0.00  0.00    -0.239 N 
ATOM      4  N   UNL     1       4.770   4.400  -0.690  0.00  0.00    -0.166 NA
ATOM      5  C   UNL     1       3.550   4.079  -1.065  0.00  0.00    +0.097 A 
ENDROOT
BRANCH   5   6
ATOM      6  C   UNL     1       3.069   3.970  -2.464  0.00  0.00    +0.003 A 
ATOM      7  C   UNL     1       2.126   3.003  -2.806  0.00  0.00    +0.012 A 
ATOM      8  C   UNL     1       1.677   2.910  -4.108  0.00  0.00    +0.033 A 
ATOM      9  C   UNL     1       2.171   3.767  -5.075  0.00  0.00    +0.126 A 
ATOM     10  C   UNL     1       3.111   4.724  -4.743  0.00  0.00    +0.033 A 
ATOM     11  C   UNL     1       3.562   4.830  -3.443  0.00  0.00    +0.012 A 
BRANCH   9  12
ATOM     12  N   UNL     1       1.691   3.657  -6.471  0.00  0.00    +0.056 N 
ATOM     13  O   UNL     1       2.124   4.410  -7.325  0.00  0.00    -0.126 OA
ATOM     14  O   UNL     1       0.862   2.815  -6.766  0.00  0.00    -0.126 OA
ENDBRANCH   9  12
ENDBRANCH   5   6
BRANCH   3  15
ATOM     15  C   UNL     1       5.932   4.682   1.502  0.00  0.00    +0.065 A 
ATOM     16  C   UNL     1       5.833   4.644   2.887  0.00  0.00    +0.028 A 
ATOM     17  C   UNL     1       6.940   4.924   3.664  0.00  0.00    +0.002 A 
ATOM     18  C   UNL     1       8.142   5.253   3.065  0.00  0.00    +0.000 A 
ATOM     19  C   UNL     1       8.242   5.297   1.687  0.00  0.00    +0.002 A 
ATOM     20  C   UNL     1       7.141   5.012   0.904  0.00  0.00    +0.028 A 
ENDBRANCH   3  15
BRANCH   1  21
ATOM     21  C   UNL     1       1.324   3.470   0.132  0.00  0.00    +0.135 C 
BRANCH  21  23
ATOM     22  N   UNL     1      -0.017   1.395   0.010  0.00  0.00    -0.285 N 
ATOM     23  C   UNL     1       1.200   1.974   0.002  0.00  0.00    +0.222 C 
ATOM     24  O   UNL     1       2.196   1.290  -0.110  0.00  0.00    -0.275 OA
ATOM     25  H   UNL     1      -0.922   2.019   0.037  0.00  0.00    +0.155 HD
BRANCH  22  31
ATOM     26  C   UNL     1      -1.162  -0.627   0.667  0.00  0.00    -0.043 A 
ATOM     27  C   UNL     1      -1.269  -2.004   0.640  0.00  0.00    +0.003 A 
ATOM     28  C   UNL     1      -0.351  -2.757  -0.068  0.00  0.00    +0.000 A 
ATOM     29  C   UNL     1       0.679  -2.135  -0.750  0.00  0.00    +0.002 A 
ATOM     30  C   UNL     1       0.789  -0.758  -0.730  0.00  0.00    +0.023 A 
ATOM     31  C   UNL     1      -0.129   0.001  -0.016  0.00  0.00    +0.035 A 
BRANCH  26  32
ATOM     32  C   UNL     1      -2.164   0.193   1.438  0.00  0.00    -0.042 C 
BRANCH  32  34
ATOM     33  C   UNL     1      -3.972  -0.326  -0.087  0.00  0.00    -0.096 C 
ATOM     34  N   UNL     1      -3.162   0.744   0.511  0.00  0.00    +0.379 N 
ATOM     35  C   UNL     1      -4.013   1.735   1.183  0.00  0.00    -0.096 C 
ATOM     36  H   UNL     1      -2.624   1.255  -0.300  0.00  0.00    -0.082 HD
ENDBRANCH  32  34
ENDBRANCH  26  32
ENDBRANCH  22  31
ENDBRANCH  21  23
ENDBRANCH   1  21
TORSDOF 8
