REMARK  Name = ZINC08666421
REMARK  8 active torsions:
REMARK  status: ('A' for Active; 'I' for Inactive)
REMARK    1  A    between atoms: C_4  and  C_7
REMARK    2  A    between atoms: C_7  and  N_58
REMARK    3  A    between atoms: C_8  and  C_9
REMARK    4  A    between atoms: C_8  and  N_58
REMARK    5  A    between atoms: C_16  and  C_18
REMARK    6  A    between atoms: C_16  and  C_23
REMARK    7  A    between atoms: C_16  and  N_58
REMARK    8  A    between atoms: N_27  and  C_28
REMARK                            x       y       z     vdW  Elec       q    Type
REMARK                         _______ _______ _______ _____ _____    ______ ____
ROOT
ATOM      1  N   UNL     1       1.196   4.739   1.690  0.00  0.00    +0.395 N 
ATOM      2  H   UNL     1       1.651   4.759   2.610  0.00  0.00    -0.079 HD
ENDROOT
BRANCH   1   3
ATOM      3  C   UNL     1       2.131   5.279   0.680  0.00  0.00    -0.041 C 
BRANCH   3   7
ATOM      4  C   UNL     1       6.085   5.150   2.292  0.00  0.00    +0.000 A 
ATOM      5  C   UNL     1       5.824   4.592   1.054  0.00  0.00    +0.000 A 
ATOM      6  C   UNL     1       4.545   4.633   0.533  0.00  0.00    +0.002 A 
ATOM      7  C   UNL     1       3.526   5.234   1.249  0.00  0.00    -0.064 A 
ATOM      8  C   UNL     1       3.788   5.797   2.484  0.00  0.00    +0.002 A 
ATOM      9  C   UNL     1       5.066   5.750   3.008  0.00  0.00    +0.000 A 
ENDBRANCH   3   7
ENDBRANCH   1   3
BRANCH   1  10
ATOM     10  C   UNL     1      -0.026   5.569   1.740  0.00  0.00    -0.041 C 
BRANCH  10  11
ATOM     11  C   UNL     1       0.281   6.837   2.495  0.00  0.00    -0.064 A 
ATOM     12  C   UNL     1       0.239   6.845   3.877  0.00  0.00    +0.003 A 
ATOM     13  C   UNL     1       0.527   8.006   4.569  0.00  0.00    +0.020 A 
ATOM     14  C   UNL     1       0.844   9.163   3.880  0.00  0.00    +0.041 A 
ATOM     15  C   UNL     1       0.880   9.155   2.497  0.00  0.00    +0.020 A 
ATOM     16  C   UNL     1       0.598   7.992   1.805  0.00  0.00    +0.003 A 
ATOM     17 CL   UNL     1       1.199  10.623   4.749  0.00  0.00    -0.084 Cl
ENDBRANCH  10  11
ENDBRANCH   1  10
BRANCH   1  18
ATOM     18  C   UNL     1       0.845   3.342   1.358  0.00  0.00    +0.041 C 
BRANCH  18  19
ATOM     19  C   UNL     1       0.395   3.238  -0.077  0.00  0.00    -0.016 A 
ATOM     20  C   UNL     1      -0.511   3.993  -0.744  0.00  0.00    +0.010 A 
ATOM     21  C   UNL     1      -0.769   3.712  -2.073  0.00  0.00    +0.008 A 
ATOM     22  C   UNL     1      -0.107   2.691  -2.670  0.00  0.00    +0.045 A 
ATOM     23  S   UNL     1       0.923   2.092  -1.340  0.00  0.00    -0.103 S 
ENDBRANCH  18  19
BRANCH  18  24
ATOM     24  C   UNL     1       2.059   2.474   1.568  0.00  0.00    +0.143 A 
ATOM     25  N   UNL     1       3.163   2.487   0.861  0.00  0.00    -0.115 NA
ATOM     26  N   UNL     1       3.960   1.602   1.351  0.00  0.00    -0.023 NA
ATOM     27  N   UNL     1       3.393   1.024   2.352  0.00  0.00    -0.044 NA
ATOM     28  N   UNL     1       2.220   1.534   2.518  0.00  0.00    -0.227 N 
BRANCH  28  29
ATOM     29  C   UNL     1       1.244   1.157   3.543  0.00  0.00    +0.111 C 
ATOM     30  C   UNL     1       1.856   1.338   4.947  0.00  0.00    +0.027 C 
ATOM     31  C   UNL     1       1.289   0.149   5.764  0.00  0.00    +0.002 C 
ATOM     32  C   UNL     1       1.293  -1.007   4.733  0.00  0.00    +0.002 C 
ATOM     33  C   UNL     1       0.886  -0.333   3.407  0.00  0.00    +0.027 C 
ENDBRANCH  28  29
ENDBRANCH  18  24
ENDBRANCH   1  18
TORSDOF 8
