REMARK  Name = ZINC10748452
REMARK  6 active torsions:
REMARK  status: ('A' for Active; 'I' for Inactive)
REMARK    1  A    between atoms: C_5  and  N_7
REMARK    2  A    between atoms: C_8  and  C_10
REMARK    3  A    between atoms: C_10  and  O_11
REMARK    4  A    between atoms: O_11  and  C_12
REMARK    5  A    between atoms: C_12  and  C_14
REMARK    6  A    between atoms: C_19  and  N_20
REMARK                            x       y       z     vdW  Elec       q    Type
REMARK                         _______ _______ _______ _____ _____    ______ ____
ROOT
ATOM      1  O   UNL     1       2.458  -0.121  -0.457  0.00  0.00    -0.452 OA
ENDROOT
BRANCH   1   2
ATOM      2  C   UNL     1       2.449   1.225  -0.510  0.00  0.00    +0.342 C 
ATOM      3  O   UNL     1       3.495   1.841  -0.477  0.00  0.00    -0.245 OA
BRANCH   2   4
ATOM      4  C   UNL     1       1.167   1.952  -0.608  0.00  0.00    +0.089 A 
ATOM      5  C   UNL     1       0.245   1.616  -1.602  0.00  0.00    +0.019 A 
ATOM      6  C   UNL     1      -0.947   2.302  -1.692  0.00  0.00    +0.021 A 
ATOM      7  C   UNL     1      -1.236   3.315  -0.793  0.00  0.00    +0.043 A 
ATOM      8  C   UNL     1      -0.326   3.652   0.195  0.00  0.00    +0.053 A 
ATOM      9  C   UNL     1       0.872   2.977   0.292  0.00  0.00    +0.141 A 
ATOM     10 CL   UNL     1      -2.742   4.171  -0.909  0.00  0.00    -0.083 Cl
BRANCH   9  11
ATOM     11  N   UNL     1       1.844   3.339   1.349  0.00  0.00    +0.057 N 
ATOM     12  O   UNL     1       1.645   4.314   2.051  0.00  0.00    -0.126 OA
ATOM     13  O   UNL     1       2.842   2.661   1.516  0.00  0.00    -0.126 OA
ENDBRANCH   9  11
ENDBRANCH   2   4
ENDBRANCH   1   2
BRANCH   1  14
ATOM     14  C   UNL     1       3.754  -0.769  -0.361  0.00  0.00    +0.328 C 
BRANCH  14  16
ATOM     15  N   UNL     1       4.639  -3.074  -0.224  0.00  0.00    -0.282 N 
ATOM     16  C   UNL     1       3.567  -2.263  -0.313  0.00  0.00    +0.255 C 
ATOM     17  O   UNL     1       2.450  -2.736  -0.355  0.00  0.00    -0.272 OA
ATOM     18  H   UNL     1       5.524  -2.696  -0.104  0.00  0.00    +0.155 HD
BRANCH  15  23
ATOM     19  C   UNL     1       3.250  -6.367  -1.089  0.00  0.00    +0.002 A 
ATOM     20  C   UNL     1       4.152  -7.206  -0.460  0.00  0.00    +0.001 A 
ATOM     21  C   UNL     1       5.215  -6.676   0.248  0.00  0.00    +0.016 A 
ATOM     22  C   UNL     1       5.380  -5.307   0.328  0.00  0.00    +0.035 A 
ATOM     23  C   UNL     1       4.476  -4.462  -0.303  0.00  0.00    +0.047 A 
ATOM     24  C   UNL     1       3.406  -4.997  -1.008  0.00  0.00    +0.024 A 
ATOM     25  I   UNL     1       6.991  -4.505   1.401  0.00  0.00    -0.042 I 
ENDBRANCH  15  23
ENDBRANCH  14  16
ENDBRANCH   1  14
TORSDOF 6
