REMARK  Name = ZINC31058024
REMARK  9 active torsions:
REMARK  status: ('A' for Active; 'I' for Inactive)
REMARK    1  A    between atoms: C_1  and  C_2
REMARK    2  A    between atoms: C_5  and  C_9
REMARK    3  A    between atoms: C_6  and  C_8
REMARK    4  A    between atoms: C_9  and  C_11
REMARK    5  A    between atoms: C_9  and  N_17
REMARK    6  A    between atoms: C_18  and  C_20
REMARK    7  A    between atoms: N_25  and  C_27
REMARK    8  A    between atoms: C_27  and  C_28
REMARK    9  A    between atoms: C_30  and  C_33
REMARK                            x       y       z     vdW  Elec       q    Type
REMARK                         _______ _______ _______ _____ _____    ______ ____
ROOT
ATOM      1  N   UNL     1      -1.944   2.567   5.946  0.00  0.00    -0.304 N 
ATOM      2  C   UNL     1      -2.574   2.327   7.113  0.00  0.00    +0.215 C 
ATOM      3  O   UNL     1      -3.780   2.429   7.184  0.00  0.00    -0.276 OA
ATOM      4  H   UNL     1      -0.850   2.474   5.882  0.00  0.00    +0.150 HD
ENDROOT
BRANCH   2   5
ATOM      5  C   UNL     1      -1.779   1.933   8.331  0.00  0.00    +0.058 C 
ATOM      6  C   UNL     1      -0.780   3.042   8.671  0.00  0.00    +0.009 C 
ATOM      7  C   UNL     1      -0.019   2.661   9.944  0.00  0.00    -0.018 C 
ATOM      8  C   UNL     1      -1.017   2.432  11.081  0.00  0.00    -0.078 C 
ATOM      9  N   UNL     1      -1.950   1.362  10.707  0.00  0.00    +0.386 N 
ATOM     10  C   UNL     1      -2.726   1.726   9.515  0.00  0.00    -0.065 C 
ATOM     11  H   UNL     1      -1.355   0.470  10.460  0.00  0.00    -0.081 HD
BRANCH   9  12
ATOM     12  C   UNL     1      -2.836   1.020  11.828  0.00  0.00    +0.022 C 
BRANCH  12  13
ATOM     13  C   UNL     1      -3.736   2.190  12.131  0.00  0.00    +0.211 A 
ATOM     14  N   UNL     1      -4.912   2.422  11.605  0.00  0.00    -0.192 NA
ATOM     15  C   UNL     1      -5.344   3.573  12.174  0.00  0.00    +0.209 A 
ATOM     16  N   UNL     1      -4.406   3.971  12.998  0.00  0.00    -0.056 NA
ATOM     17  O   UNL     1      -3.480   3.188  12.983  0.00  0.00    -0.340 OA
BRANCH  15  18
ATOM     18  C   UNL     1      -6.628   4.255  11.909  0.00  0.00    +0.060 A 
ATOM     19  C   UNL     1      -7.114   5.417  12.447  0.00  0.00    +0.019 A 
ATOM     20  C   UNL     1      -8.352   5.865  12.044  0.00  0.00    +0.008 A 
ATOM     21  C   UNL     1      -9.052   5.144  11.130  0.00  0.00    +0.046 A 
ATOM     22  S   UNL     1      -7.945   3.783  10.801  0.00  0.00    -0.093 S 
ENDBRANCH  15  18
ENDBRANCH  12  13
ENDBRANCH   9  12
ENDBRANCH   2   5
BRANCH   1  23
ATOM     23  C   UNL     1      -2.717   2.951   4.762  0.00  0.00    +0.134 C 
BRANCH  23  28
ATOM     24  C   UNL     1       0.115   1.313  -0.002  0.00  0.00    +0.044 C 
ATOM     25  C   UNL     1      -0.624   1.740   1.241  0.00  0.00    -0.050 A 
ATOM     26  C   UNL     1       0.076   2.015   2.401  0.00  0.00    +0.004 A 
ATOM     27  C   UNL     1      -0.601   2.407   3.540  0.00  0.00    +0.006 A 
ATOM     28  C   UNL     1      -1.979   2.524   3.520  0.00  0.00    -0.020 A 
ATOM     29  C   UNL     1      -2.679   2.248   2.360  0.00  0.00    -0.045 A 
ATOM     30  C   UNL     1      -2.000   1.862   1.219  0.00  0.00    +0.007 A 
ATOM     31  C   UNL     1      -4.180   2.374   2.338  0.00  0.00    +0.044 C 
ENDBRANCH  23  28
BRANCH  23  32
ATOM     32  C   UNL     1      -2.904   4.446   4.747  0.00  0.00    -0.023 A 
ATOM     33  C   UNL     1      -1.865   5.276   5.127  0.00  0.00    +0.006 A 
ATOM     34  C   UNL     1      -2.035   6.648   5.109  0.00  0.00    +0.000 A 
ATOM     35  C   UNL     1      -3.245   7.189   4.719  0.00  0.00    +0.000 A 
ATOM     36  C   UNL     1      -4.285   6.359   4.343  0.00  0.00    +0.000 A 
ATOM     37  C   UNL     1      -4.114   4.988   4.358  0.00  0.00    +0.006 A 
ENDBRANCH  23  32
ENDBRANCH   1  23
TORSDOF 7
