REMARK  Name = ZINC13498655
REMARK  12 active torsions:
REMARK  status: ('A' for Active; 'I' for Inactive)
REMARK    1  A    between atoms: C_1  and  C_2
REMARK    2  A    between atoms: C_2  and  C_3
REMARK    3  A    between atoms: C_2  and  C_4
REMARK    4  A    between atoms: C_4  and  C_6
REMARK    5  A    between atoms: C_4  and  N_70
REMARK    6  A    between atoms: N_10  and  C_11
REMARK    7  A    between atoms: C_11  and  C_12
REMARK    8  A    between atoms: C_18  and  C_19
REMARK    9  A    between atoms: C_18  and  N_70
REMARK   10  A    between atoms: C_23  and  O_31
REMARK   11  A    between atoms: O_31  and  C_32
REMARK   12  A    between atoms: C_33  and  N_70
REMARK                            x       y       z     vdW  Elec       q    Type
REMARK                         _______ _______ _______ _____ _____    ______ ____
ROOT
ATOM      1  N   UNL     1      -0.882   1.082   2.027  0.00  0.00    +0.391 N 
ATOM      2  H   UNL     1      -0.856   2.050   2.370  0.00  0.00    -0.080 HD
ENDROOT
BRANCH   1   3
ATOM      3  C   UNL     1       0.305   0.841   1.180  0.00  0.00    -0.067 C 
ATOM      4  C   UNL     1       1.564   1.435   1.858  0.00  0.00    -0.015 C 
ATOM      5  C   UNL     1       2.715   0.628   1.208  0.00  0.00    -0.002 C 
ATOM      6  C   UNL     1       2.148  -0.801   1.076  0.00  0.00    -0.002 C 
ATOM      7  C   UNL     1       0.616  -0.665   1.058  0.00  0.00    -0.015 C 
ENDBRANCH   1   3
BRANCH   1   8
ATOM      8  C   UNL     1      -2.115   0.886   1.237  0.00  0.00    +0.006 C 
BRANCH   8   9
ATOM      9  C   UNL     1      -1.883  -0.124   0.143  0.00  0.00    +0.139 A 
ATOM     10  N   UNL     1      -1.177   0.052  -0.947  0.00  0.00    -0.115 NA
ATOM     11  N   UNL     1      -1.218  -1.041  -1.628  0.00  0.00    -0.023 NA
ATOM     12  N   UNL     1      -1.931  -1.910  -1.000  0.00  0.00    -0.044 NA
ATOM     13  N   UNL     1      -2.354  -1.384   0.099  0.00  0.00    -0.226 N 
BRANCH  13  14
ATOM     14  C   UNL     1      -3.193  -2.035   1.109  0.00  0.00    +0.182 C 
BRANCH  14  15
ATOM     15  C   UNL     1      -4.646  -1.799   0.782  0.00  0.00    -0.026 A 
ATOM     16  C   UNL     1      -5.298  -0.693   1.295  0.00  0.00    +0.005 A 
ATOM     17  C   UNL     1      -6.629  -0.474   0.992  0.00  0.00    +0.000 A 
ATOM     18  C   UNL     1      -7.310  -1.366   0.185  0.00  0.00    +0.000 A 
ATOM     19  C   UNL     1      -6.659  -2.474  -0.324  0.00  0.00    +0.000 A 
ATOM     20  C   UNL     1      -5.327  -2.691  -0.025  0.00  0.00    +0.005 A 
ENDBRANCH  14  15
ENDBRANCH  13  14
ENDBRANCH   8   9
BRANCH   8  22
ATOM     21  C   UNL     1      -2.890   3.210   1.727  0.00  0.00    +0.006 C 
ATOM     22  C   UNL     1      -2.514   2.227   0.617  0.00  0.00    -0.024 C 
ATOM     23  C   UNL     1      -1.337   2.788  -0.184  0.00  0.00    +0.006 C 
ENDBRANCH   8  22
ENDBRANCH   1   8
BRANCH   1  24
ATOM     24  C   UNL     1      -0.872   0.162   3.184  0.00  0.00    -0.036 C 
BRANCH  24  25
ATOM     25  C   UNL     1      -1.789   0.712   4.246  0.00  0.00    +0.001 A 
ATOM     26  C   UNL     1      -3.063   0.258   4.339  0.00  0.00    +0.017 A 
ATOM     27  C   UNL     1      -3.927   0.808   5.385  0.00  0.00    +0.002 A 
ATOM     28  C   UNL     1      -5.249   0.374   5.533  0.00  0.00    +0.055 A 
ATOM     29  C   UNL     1      -6.038   0.917   6.527  0.00  0.00    +0.121 A 
ATOM     30  C   UNL     1      -5.524   1.892   7.378  0.00  0.00    +0.047 A 
ATOM     31  C   UNL     1      -4.224   2.328   7.243  0.00  0.00    +0.030 A 
ATOM     32  C   UNL     1      -3.412   1.794   6.248  0.00  0.00    +0.049 A 
ATOM     33  N   UNL     1      -2.107   2.217   6.097  0.00  0.00    -0.322 N 
ATOM     34  H   UNL     1      -1.753   2.896   6.692  0.00  0.00    +0.169 HD
ATOM     35  C   UNL     1      -1.320   1.701   5.137  0.00  0.00    +0.251 A 
ATOM     36  O   UNL     1      -0.172   2.099   5.033  0.00  0.00    -0.268 OA
BRANCH  29  37
ATOM     37  O   UNL     1      -7.323   0.498   6.675  0.00  0.00    -0.495 OA
ATOM     38  C   UNL     1      -8.085   1.101   7.723  0.00  0.00    +0.277 C 
ENDBRANCH  29  37
ENDBRANCH  24  25
ENDBRANCH   1  24
TORSDOF 9
