REMARK  Name = ZINC01087582
REMARK  7 active torsions:
REMARK  status: ('A' for Active; 'I' for Inactive)
REMARK    1  A    between atoms: C_1  and  C_2
REMARK    2  A    between atoms: C_3  and  C_28
REMARK    3  A    between atoms: C_4  and  C_10
REMARK    4  A    between atoms: N_12  and  C_22
REMARK    5  A    between atoms: C_14  and  C_15
REMARK    6  A    between atoms: C_28  and  O_30
REMARK    7  A    between atoms: O_30  and  C_31
REMARK                            x       y       z     vdW  Elec       q    Type
REMARK                         _______ _______ _______ _____ _____    ______ ____
ROOT
ATOM      1  C   UNL     1      -4.027   3.814   0.834  0.00  0.00    +0.023 A 
ATOM      2  C   UNL     1      -3.436   2.672   1.245  0.00  0.00    +0.121 A 
ATOM      3  N   UNL     1      -2.117   2.933   1.443  0.00  0.00    -0.239 N 
ATOM      4  N   UNL     1      -1.891   4.281   1.134  0.00  0.00    -0.166 NA
ATOM      5  C   UNL     1      -3.037   4.815   0.767  0.00  0.00    +0.098 A 
ENDROOT
BRANCH   1   9
ATOM      6  C   UNL     1      -7.762   0.909   0.961  0.00  0.00    +0.061 C 
ATOM      7  C   UNL     1      -7.132   2.271   1.108  0.00  0.00    +0.019 C 
ATOM      8  C   UNL     1      -6.090   2.609   0.318  0.00  0.00    +0.078 C 
ATOM      9  C   UNL     1      -5.486   3.987   0.499  0.00  0.00    +0.145 C 
ATOM     10  N   UNL     1      -6.090   4.848   1.530  0.00  0.00    -0.315 N 
ATOM     11  C   UNL     1      -7.128   4.368   2.241  0.00  0.00    +0.135 C 
ATOM     12  S   UNL     1      -7.839   5.359   3.442  0.00  0.00    -0.019 S 
ATOM     13  N   UNL     1      -7.623   3.140   2.038  0.00  0.00    -0.300 N 
ATOM     14  H   UNL     1      -5.747   5.741   1.695  0.00  0.00    +0.149 HD
ATOM     15  H   UNL     1      -8.372   2.853   2.583  0.00  0.00    +0.154 HD
BRANCH   8  16
ATOM     16  C   UNL     1      -5.581   1.709  -0.647  0.00  0.00    +0.338 C 
ATOM     17  O   UNL     1      -6.003   0.569  -0.697  0.00  0.00    -0.245 OA
BRANCH  16  18
ATOM     18  O   UNL     1      -4.628   2.115  -1.511  0.00  0.00    -0.465 OA
ATOM     19  C   UNL     1      -4.078   1.124  -2.382  0.00  0.00    +0.280 C 
ENDBRANCH  16  18
ENDBRANCH   8  16
ENDBRANCH   1   9
BRANCH   5  20
ATOM     20  C   UNL     1      -3.249   6.224   0.354  0.00  0.00    +0.003 A 
ATOM     21  C   UNL     1      -4.008   6.515  -0.778  0.00  0.00    +0.011 A 
ATOM     22  C   UNL     1      -4.206   7.828  -1.155  0.00  0.00    +0.020 A 
ATOM     23  C   UNL     1      -3.644   8.855  -0.415  0.00  0.00    +0.041 A 
ATOM     24  C   UNL     1      -2.886   8.571   0.707  0.00  0.00    +0.020 A 
ATOM     25  C   UNL     1      -2.686   7.262   1.095  0.00  0.00    +0.011 A 
ATOM     26 CL   UNL     1      -3.892  10.504  -0.898  0.00  0.00    -0.084 Cl
ENDBRANCH   5  20
BRANCH   3  27
ATOM     27  C   UNL     1      -1.152   2.015   1.876  0.00  0.00    +0.065 A 
ATOM     28  C   UNL     1      -1.512   0.701   2.143  0.00  0.00    +0.028 A 
ATOM     29  C   UNL     1      -0.559  -0.201   2.574  0.00  0.00    +0.002 A 
ATOM     30  C   UNL     1       0.755   0.200   2.729  0.00  0.00    +0.000 A 
ATOM     31  C   UNL     1       1.118   1.507   2.459  0.00  0.00    +0.002 A 
ATOM     32  C   UNL     1       0.169   2.415   2.033  0.00  0.00    +0.028 A 
ENDBRANCH   3  27
TORSDOF 5
