REMARK  Name = ZINC66722158
REMARK  5 active torsions:
REMARK  status: ('A' for Active; 'I' for Inactive)
REMARK    1  A    between atoms: C_1  and  C_2
REMARK    2  A    between atoms: C_2  and  C_7
REMARK    3  A    between atoms: C_7  and  N_8
REMARK    4  A    between atoms: C_9  and  C_11
REMARK    5  A    between atoms: N_13  and  C_14
REMARK                            x       y       z     vdW  Elec       q    Type
REMARK                         _______ _______ _______ _____ _____    ______ ____
ROOT
ATOM      1  C   UNL     1      -4.101   0.098  -2.667  0.00  0.00    +0.303 C 
ATOM      2  O   UNL     1      -3.522   0.830  -3.443  0.00  0.00    -0.265 OA
ATOM      3  N   UNL     1      -5.380  -0.255  -2.901  0.00  0.00    -0.278 N 
ATOM      4  H   UNL     1      -5.822  -0.893  -2.318  0.00  0.00    +0.155 HD
ENDROOT
BRANCH   3   5
ATOM      5  C   UNL     1      -6.071   0.297  -3.984  0.00  0.00    +0.038 A 
ATOM      6  C   UNL     1      -7.428   0.573  -3.874  0.00  0.00    +0.027 A 
ATOM      7  C   UNL     1      -8.114   1.118  -4.943  0.00  0.00    +0.051 A 
ATOM      8  C   UNL     1      -7.449   1.390  -6.126  0.00  0.00    +0.167 A 
ATOM      9  C   UNL     1      -6.086   1.116  -6.239  0.00  0.00    +0.169 A 
ATOM     10  C   UNL     1      -5.399   0.575  -5.168  0.00  0.00    +0.073 A 
ATOM     11  O   UNL     1      -5.677   1.477  -7.497  0.00  0.00    -0.447 OA
ATOM     12  C   UNL     1      -6.891   1.490  -8.262  0.00  0.00    +0.254 C 
ATOM     13  O   UNL     1      -7.881   1.918  -7.316  0.00  0.00    -0.448 OA
ATOM     14  C   UNL     1      -7.215   0.098  -8.814  0.00  0.00    +0.093 C 
ATOM     15  C   UNL     1      -7.867   0.385 -10.192  0.00  0.00    +0.008 C 
ATOM     16  C   UNL     1      -7.058   1.601 -10.711  0.00  0.00    +0.008 C 
ATOM     17  C   UNL     1      -6.796   2.450  -9.447  0.00  0.00    +0.093 C 
ENDBRANCH   3   5
BRANCH   1  19
ATOM     18  N   UNL     1      -2.116  -0.058  -1.219  0.00  0.00    -0.307 N 
ATOM     19  C   UNL     1      -3.396  -0.411  -1.453  0.00  0.00    +0.299 C 
ATOM     20  O   UNL     1      -3.975  -1.143  -0.677  0.00  0.00    -0.265 OA
ATOM     21  H   UNL     1      -1.653   0.527  -1.839  0.00  0.00    +0.149 HD
BRANCH  18  22
ATOM     22  C   UNL     1      -1.424  -0.558  -0.028  0.00  0.00    +0.111 C 
BRANCH  22  24
ATOM     23  C   UNL     1      -0.020   1.518   0.018  0.00  0.00    +0.013 C 
ATOM     24  C   UNL     1       0.004  -0.011  -0.002  0.00  0.00    -0.017 C 
ATOM     25  C   UNL     1       0.786  -0.511  -1.234  0.00  0.00    +0.008 C 
ATOM     26  C   UNL     1       2.217  -0.765  -0.700  0.00  0.00    +0.001 C 
ATOM     27  C   UNL     1       1.957  -1.347   0.712  0.00  0.00    +0.001 C 
ATOM     28  C   UNL     1       0.749  -0.542   1.236  0.00  0.00    +0.008 C 
ENDBRANCH  22  24
ENDBRANCH  18  22
ENDBRANCH   1  19
TORSDOF 4
