REMARK  Name = ZINC49504558
REMARK  9 active torsions:
REMARK  status: ('A' for Active; 'I' for Inactive)
REMARK    1  A    between atoms: C_1  and  N_2
REMARK    2  A    between atoms: N_2  and  C_3
REMARK    3  A    between atoms: N_2  and  C_4
REMARK    4  A    between atoms: C_7  and  C_10
REMARK    5  A    between atoms: C_10  and  C_12
REMARK    6  A    between atoms: C_10  and  N_32
REMARK    7  A    between atoms: C_12  and  N_13
REMARK    8  A    between atoms: C_14  and  C_16
REMARK    9  A    between atoms: N_18  and  C_19
REMARK                            x       y       z     vdW  Elec       q    Type
REMARK                         _______ _______ _______ _____ _____    ______ ____
ROOT
ATOM      1  N   UNL     1      -4.447  -3.951   2.493  0.00  0.00    -0.309 N 
ATOM      2  C   UNL     1      -4.569  -4.312   3.785  0.00  0.00    +0.299 C 
ATOM      3  O   UNL     1      -5.508  -3.911   4.441  0.00  0.00    -0.265 OA
ATOM      4  H   UNL     1      -3.697  -4.271   1.968  0.00  0.00    +0.149 HD
ENDROOT
BRANCH   2   5
ATOM      5  C   UNL     1      -3.550  -5.207   4.410  0.00  0.00    +0.303 C 
ATOM      6  O   UNL     1      -2.611  -5.609   3.754  0.00  0.00    -0.265 OA
ATOM      7  N   UNL     1      -3.673  -5.569   5.702  0.00  0.00    -0.278 N 
ATOM      8  H   UNL     1      -4.383  -5.193   6.246  0.00  0.00    +0.155 HD
BRANCH   7   9
ATOM      9  C   UNL     1      -2.776  -6.486   6.260  0.00  0.00    +0.034 A 
ATOM     10  C   UNL     1      -3.246  -7.396   7.204  0.00  0.00    +0.028 A 
ATOM     11  C   UNL     1      -2.400  -8.322   7.766  0.00  0.00    -0.023 A 
ATOM     12  C   UNL     1      -1.072  -8.308   7.333  0.00  0.00    +0.043 A 
ATOM     13  C   UNL     1      -0.589  -7.390   6.414  0.00  0.00    -0.022 A 
ATOM     14  C   UNL     1      -1.441  -6.462   5.845  0.00  0.00    +0.028 A 
ATOM     15  C   UNL     1       0.880  -7.639   6.250  0.00  0.00    +0.056 C 
ATOM     16  C   UNL     1       1.184  -8.834   7.185  0.00  0.00    +0.118 C 
ATOM     17  N   UNL     1      -0.100  -9.207   7.770  0.00  0.00    -0.271 N 
ATOM     18  C   UNL     1      -0.440 -10.245   8.565  0.00  0.00    +0.220 C 
ATOM     19  O   UNL     1       0.410 -10.897   9.133  0.00  0.00    -0.275 OA
ATOM     20  C   UNL     1      -1.905 -10.572   8.728  0.00  0.00    +0.101 C 
ATOM     21  C   UNL     1      -2.780  -9.323   8.815  0.00  0.00    +0.046 C 
ENDBRANCH   7   9
ENDBRANCH   2   5
BRANCH   1  22
ATOM     22  C   UNL     1      -5.447  -3.073   1.880  0.00  0.00    +0.094 C 
BRANCH  22  23
ATOM     23  C   UNL     1      -5.144  -2.918   0.388  0.00  0.00    -0.020 C 
BRANCH  23  27
ATOM     24  C   UNL     1      -1.423  -0.873  -0.105  0.00  0.00    +0.029 A 
ATOM     25  C   UNL     1      -1.479  -2.256  -0.224  0.00  0.00    +0.023 A 
ATOM     26  C   UNL     1      -2.683  -2.914  -0.063  0.00  0.00    +0.004 A 
ATOM     27  C   UNL     1      -3.832  -2.197   0.215  0.00  0.00    -0.059 A 
ATOM     28  C   UNL     1      -3.780  -0.820   0.333  0.00  0.00    +0.004 A 
ATOM     29  C   UNL     1      -2.579  -0.157   0.180  0.00  0.00    +0.023 A 
BRANCH  24  31
ATOM     30  C   UNL     1      -0.150   1.253  -0.135  0.00  0.00    +0.129 C 
ATOM     31  N   UNL     1      -0.207  -0.205  -0.267  0.00  0.00    -0.336 N 
ATOM     32  C   UNL     1       1.010  -0.962  -0.567  0.00  0.00    +0.129 C 
ENDBRANCH  24  31
ENDBRANCH  23  27
BRANCH  23  33
ATOM     33  N   UNL     1      -6.216  -2.144  -0.251  0.00  0.00    +0.385 N 
ATOM     34  C   UNL     1      -6.032  -2.135  -1.725  0.00  0.00    -0.078 C 
ATOM     35  C   UNL     1      -7.451  -1.812  -2.258  0.00  0.00    -0.020 C 
ATOM     36  C   UNL     1      -8.370  -2.584  -1.283  0.00  0.00    -0.020 C 
ATOM     37  C   UNL     1      -7.525  -2.791  -0.013  0.00  0.00    -0.078 C 
ATOM     38  H   UNL     1      -6.225  -1.200   0.105  0.00  0.00    -0.081 HD
ENDBRANCH  23  33
ENDBRANCH  22  23
ENDBRANCH   1  22
TORSDOF 7
