REMARK  Name = ZINC08008168
REMARK  8 active torsions:
REMARK  status: ('A' for Active; 'I' for Inactive)
REMARK    1  A    between atoms: C_1  and  C_2
REMARK    2  A    between atoms: C_2  and  C_4
REMARK    3  A    between atoms: C_2  and  N_11
REMARK    4  A    between atoms: C_12  and  C_14
REMARK    5  A    between atoms: C_14  and  C_16
REMARK    6  A    between atoms: C_14  and  O_17
REMARK    7  A    between atoms: O_17  and  C_18
REMARK    8  A    between atoms: C_18  and  C_20
REMARK                            x       y       z     vdW  Elec       q    Type
REMARK                         _______ _______ _______ _____ _____    ______ ____
ROOT
ATOM      1  O   UNL     1      -5.330   2.041  -1.334  0.00  0.00    -0.449 OA
ENDROOT
BRANCH   1   2
ATOM      2  C   UNL     1      -6.638   2.521  -0.923  0.00  0.00    +0.259 C 
ATOM      3  C   UNL     1      -7.386   3.066  -2.141  0.00  0.00    +0.062 C 
BRANCH   2   5
ATOM      4  N   UNL     1      -8.674   1.597   0.136  0.00  0.00    -0.306 N 
ATOM      5  C   UNL     1      -7.423   1.385  -0.319  0.00  0.00    +0.254 C 
ATOM      6  O   UNL     1      -6.929   0.280  -0.241  0.00  0.00    -0.272 OA
ATOM      7  H   UNL     1      -9.069   2.481   0.074  0.00  0.00    +0.149 HD
BRANCH   4   9
ATOM      8  C   UNL     1     -10.132  -0.295  -0.388  0.00  0.00    +0.033 C 
ATOM      9  C   UNL     1      -9.437   0.493   0.724  0.00  0.00    +0.100 C 
BRANCH   9  10
ATOM     10  C   UNL     1     -10.471   1.046   1.670  0.00  0.00    -0.027 A 
ATOM     11  C   UNL     1     -11.163   2.196   1.342  0.00  0.00    +0.008 A 
ATOM     12  C   UNL     1     -12.116   2.701   2.207  0.00  0.00    +0.038 A 
ATOM     13  C   UNL     1     -12.369   2.059   3.408  0.00  0.00    +0.123 A 
ATOM     14  C   UNL     1     -11.671   0.910   3.738  0.00  0.00    +0.038 A 
ATOM     15  C   UNL     1     -10.723   0.404   2.869  0.00  0.00    +0.008 A 
ATOM     16  F   UNL     1     -13.295   2.555   4.257  0.00  0.00    -0.205 F 
ENDBRANCH   9  10
ENDBRANCH   4   9
ENDBRANCH   2   5
ENDBRANCH   1   2
BRANCH   1  17
ATOM     17  C   UNL     1      -4.316   2.927  -1.303  0.00  0.00    +0.341 C 
ATOM     18  O   UNL     1      -4.519   4.069  -0.944  0.00  0.00    -0.245 OA
BRANCH  17  19
ATOM     19  C   UNL     1      -2.958   2.509  -1.708  0.00  0.00    +0.073 A 
ATOM     20  C   UNL     1      -2.530   2.620  -3.054  0.00  0.00    +0.015 A 
ATOM     21  C   UNL     1      -3.372   3.129  -4.051  0.00  0.00    +0.011 A 
ATOM     22  C   UNL     1      -2.921   3.220  -5.333  0.00  0.00    +0.001 A 
ATOM     23  C   UNL     1      -1.631   2.812  -5.667  0.00  0.00    +0.002 A 
ATOM     24  C   UNL     1      -0.787   2.312  -4.724  0.00  0.00    +0.028 A 
ATOM     25  C   UNL     1      -1.217   2.204  -3.388  0.00  0.00    +0.072 A 
ATOM     26  N   UNL     1      -0.410   1.719  -2.443  0.00  0.00    -0.251 NA
ATOM     27  C   UNL     1      -0.785   1.608  -1.188  0.00  0.00    +0.046 A 
ATOM     28  C   UNL     1      -2.060   1.996  -0.779  0.00  0.00    -0.012 A 
ATOM     29  C   UNL     1      -2.216   1.759   0.707  0.00  0.00    +0.038 C 
ATOM     30  C   UNL     1      -0.775   1.603   1.245  0.00  0.00    +0.011 C 
ATOM     31  C   UNL     1      -0.013   1.086   0.008  0.00  0.00    +0.056 C 
ENDBRANCH  17  19
ENDBRANCH   1  17
TORSDOF 6
