REMARK  Name = ZINC12132199
REMARK  7 active torsions:
REMARK  status: ('A' for Active; 'I' for Inactive)
REMARK    1  A    between atoms: C_1  and  C_2
REMARK    2  A    between atoms: C_5  and  C_7
REMARK    3  A    between atoms: N_9  and  C_10
REMARK    4  A    between atoms: N_9  and  C_29
REMARK    5  A    between atoms: C_10  and  C_11
REMARK    6  A    between atoms: C_19  and  N_20
REMARK    7  A    between atoms: C_29  and  C_30
REMARK                            x       y       z     vdW  Elec       q    Type
REMARK                         _______ _______ _______ _____ _____    ______ ____
ROOT
ATOM      1  C   UNL     1      -2.904   5.302   4.013  0.00  0.00    +0.008 A 
ATOM      2  C   UNL     1      -3.688   6.239   3.411  0.00  0.00    +0.018 A 
ATOM      3  C   UNL     1      -4.827   6.701   4.100  0.00  0.00    -0.001 A 
ATOM      4  C   UNL     1      -5.681   7.661   3.539  0.00  0.00    +0.014 A 
ATOM      5  C   UNL     1      -6.775   8.091   4.233  0.00  0.00    -0.043 A 
ATOM      6  C   UNL     1      -7.056   7.583   5.501  0.00  0.00    -0.042 A 
ATOM      7  C   UNL     1      -6.243   6.649   6.075  0.00  0.00    +0.030 A 
ATOM      8  C   UNL     1      -5.109   6.186   5.389  0.00  0.00    +0.048 A 
ATOM      9  C   UNL     1      -3.235   4.832   5.292  0.00  0.00    +0.104 A 
ATOM     10  C   UNL     1      -8.318   8.229   6.036  0.00  0.00    +0.036 C 
ATOM     11  C   UNL     1      -9.014   8.841   4.803  0.00  0.00    +0.009 C 
ATOM     12  C   UNL     1      -7.833   9.104   3.847  0.00  0.00    +0.036 C 
ATOM     13  N   UNL     1      -4.314   5.243   6.004  0.00  0.00    -0.343 N 
ATOM     14  H   UNL     1      -4.525   4.876   6.939  0.00  0.00    +0.167 HD
ENDROOT
BRANCH   9  15
ATOM     15  N   UNL     1      -2.424   3.883   5.896  0.00  0.00    -0.312 N 
ATOM     16  C   UNL     1      -3.141   2.612   6.072  0.00  0.00    +0.134 C 
ATOM     17  C   UNL     1      -2.193   1.578   6.685  0.00  0.00    +0.178 C 
ATOM     18  O   UNL     1      -1.678   2.084   7.920  0.00  0.00    -0.377 OA
ATOM     19  C   UNL     1      -0.973   3.321   7.785  0.00  0.00    +0.178 C 
ATOM     20  C   UNL     1      -1.908   4.372   7.183  0.00  0.00    +0.134 C 
ENDBRANCH   9  15
BRANCH   1  21
ATOM     21  C   UNL     1      -1.680   4.776   3.309  0.00  0.00    +0.146 C 
BRANCH  21  24
ATOM     22  C   UNL     1      -2.188   4.934   0.932  0.00  0.00    +0.254 C 
ATOM     23  O   UNL     1      -2.005   5.423  -0.168  0.00  0.00    -0.269 OA
ATOM     24  N   UNL     1      -1.546   5.432   2.007  0.00  0.00    -0.290 N 
BRANCH  22  29
ATOM     25  C   UNL     1      -5.522   0.752   2.555  0.00  0.00    +0.051 C 
ATOM     26  C   UNL     1      -4.699   1.809   1.867  0.00  0.00    -0.013 A 
ATOM     27  C   UNL     1      -4.586   2.057   0.535  0.00  0.00    +0.011 A 
ATOM     28  C   UNL     1      -3.773   3.079   0.111  0.00  0.00    +0.021 A 
ATOM     29  C   UNL     1      -3.109   3.804   1.087  0.00  0.00    +0.074 A 
ATOM     30  S   UNL     1      -3.659   2.999   2.580  0.00  0.00    -0.089 S 
ENDBRANCH  22  29
BRANCH  24  31
ATOM     31  C   UNL     1      -0.713   6.630   1.872  0.00  0.00    +0.140 C 
BRANCH  31  32
ATOM     32  C   UNL     1       0.744   6.217   1.656  0.00  0.00    +0.136 C 
ATOM     33  C   UNL     1       1.667   7.461   1.635  0.00  0.00    +0.035 C 
ATOM     34  C   UNL     1       2.875   6.956   0.809  0.00  0.00    +0.031 C 
ATOM     35  C   UNL     1       2.317   5.756   0.020  0.00  0.00    +0.160 C 
ATOM     36  O   UNL     1       0.921   5.641   0.341  0.00  0.00    -0.375 OA
ENDBRANCH  31  32
ENDBRANCH  24  31
ENDBRANCH  21  24
ENDBRANCH   1  21
TORSDOF 6
