REMARK  Name = ZINC03639533
REMARK  12 active torsions:
REMARK  status: ('A' for Active; 'I' for Inactive)
REMARK    1  A    between atoms: C_1  and  C_2
REMARK    2  A    between atoms: C_2  and  S_3
REMARK    3  A    between atoms: S_3  and  C_4
REMARK    4  A    between atoms: C_4  and  C_5
REMARK    5  A    between atoms: C_5  and  O_6
REMARK    6  A    between atoms: O_6  and  C_7
REMARK    7  A    between atoms: C_7  and  C_9
REMARK    8  A    between atoms: C_10  and  C_37
REMARK    9  A    between atoms: C_14  and  C_16
REMARK   10  A    between atoms: C_19  and  C_25
REMARK   11  A    between atoms: C_20  and  N_22
REMARK   12  A    between atoms: C_29  and  C_32
REMARK                            x       y       z     vdW  Elec       q    Type
REMARK                         _______ _______ _______ _____ _____    ______ ____
ROOT
ATOM      1  C   UNL     1       5.473   8.048   2.256  0.00  0.00    +0.065 C 
ATOM      2  C   UNL     1       4.663   7.395   3.107  0.00  0.00    +0.016 C 
ATOM      3  N   UNL     1       3.616   6.653   2.636  0.00  0.00    -0.321 N 
ATOM      4  C   UNL     1       3.592   6.229   1.334  0.00  0.00    +0.016 C 
ATOM      5  C   UNL     1       4.364   6.829   0.403  0.00  0.00    +0.024 C 
ATOM      6  C   UNL     1       5.253   7.990   0.773  0.00  0.00    +0.092 C 
ATOM      7  C   UNL     1       4.359   6.394  -0.933  0.00  0.00    +0.162 C 
ATOM      8  O   UNL     1       5.059   6.963  -1.748  0.00  0.00    -0.292 OA
ATOM      9  C   UNL     1       3.503   5.239  -1.374  0.00  0.00    +0.088 C 
ATOM     10  C   UNL     1       3.296   4.290  -0.189  0.00  0.00    +0.039 C 
ATOM     11  C   UNL     1       2.681   5.084   0.967  0.00  0.00    +0.060 C 
ATOM     12  C   UNL     1       4.910   7.483   4.591  0.00  0.00    +0.061 C 
ATOM     13  H   UNL     1       2.783   6.391   3.304  0.00  0.00    +0.152 HD
ENDROOT
BRANCH   6  14
ATOM     14  C   UNL     1       4.607   9.273   0.318  0.00  0.00    -0.033 A 
ATOM     15  C   UNL     1       3.364   9.631   0.805  0.00  0.00    +0.005 A 
ATOM     16  C   UNL     1       2.771  10.808   0.388  0.00  0.00    +0.006 A 
ATOM     17  C   UNL     1       3.422  11.627  -0.516  0.00  0.00    -0.020 A 
ATOM     18  C   UNL     1       4.665  11.270  -1.002  0.00  0.00    +0.129 A 
ATOM     19  C   UNL     1       5.260  10.095  -0.582  0.00  0.00    +0.037 A 
ATOM     20  C   UNL     1       2.775  12.911  -0.970  0.00  0.00    +0.046 C 
BRANCH  18  21
ATOM     21  N   UNL     1       5.361  12.147  -1.970  0.00  0.00    +0.057 N 
ATOM     22  O   UNL     1       6.006  11.658  -2.881  0.00  0.00    -0.126 OA
ATOM     23  O   UNL     1       5.290  13.357  -1.856  0.00  0.00    -0.126 OA
ENDBRANCH  18  21
ENDBRANCH   6  14
BRANCH  10  24
ATOM     24  C   UNL     1       2.364   3.175  -0.589  0.00  0.00    -0.006 A 
ATOM     25  C   UNL     1       2.590   1.839  -0.607  0.00  0.00    +0.011 A 
ATOM     26  C   UNL     1       1.576   0.993  -1.016  0.00  0.00    +0.008 A 
ATOM     27  C   UNL     1       0.388   1.525  -1.393  0.00  0.00    +0.045 A 
ATOM     28  S   UNL     1       0.676   3.272  -1.163  0.00  0.00    -0.101 S 
ENDBRANCH  10  24
BRANCH   1  29
ATOM     29  C   UNL     1       6.553   8.805   2.768  0.00  0.00    +0.338 C 
ATOM     30  O   UNL     1       6.684   8.942   3.970  0.00  0.00    -0.245 OA
BRANCH  29  31
ATOM     31  O   UNL     1       7.438   9.374   1.923  0.00  0.00    -0.460 OA
BRANCH  31  32
ATOM     32  C   UNL     1       8.504  10.124   2.510  0.00  0.00    +0.243 C 
BRANCH  32  33
ATOM     33  C   UNL     1       9.399  10.689   1.405  0.00  0.00    +0.110 C 
BRANCH  33  34
ATOM     34  S   UNL     1      10.752  11.641   2.149  0.00  0.00    -0.158 S 
BRANCH  34  36
ATOM     35  C   UNL     1      12.894  13.063   1.217  0.00  0.00    +0.015 C 
ATOM     36  C   UNL     1      11.706  12.234   0.725  0.00  0.00    +0.066 C 
ENDBRANCH  34  36
ENDBRANCH  33  34
ENDBRANCH  32  33
ENDBRANCH  31  32
ENDBRANCH  29  31
ENDBRANCH   1  29
TORSDOF 9
