REMARK  Name = ZINC63526315
REMARK  8 active torsions:
REMARK  status: ('A' for Active; 'I' for Inactive)
REMARK    1  A    between atoms: C_1  and  O_2
REMARK    2  A    between atoms: O_2  and  C_3
REMARK    3  A    between atoms: C_10  and  C_18
REMARK    4  A    between atoms: C_21  and  O_26
REMARK    5  A    between atoms: C_22  and  O_24
REMARK    6  A    between atoms: O_24  and  C_25
REMARK    7  A    between atoms: O_26  and  C_27
REMARK    8  A    between atoms: C_27  and  C_28
REMARK                            x       y       z     vdW  Elec       q    Type
REMARK                         _______ _______ _______ _____ _____    ______ ____
ROOT
ATOM      1  C   UNL     1       2.454  -4.994  -6.069  0.00  0.00    -0.024 A 
ATOM      2  C   UNL     1       3.453  -5.950  -6.044  0.00  0.00    +0.009 A 
ATOM      3  C   UNL     1       4.257  -6.142  -7.152  0.00  0.00    +0.050 A 
ATOM      4  C   UNL     1       4.063  -5.377  -8.290  0.00  0.00    +0.162 A 
ATOM      5  C   UNL     1       3.058  -4.415  -8.316  0.00  0.00    +0.162 A 
ATOM      6  C   UNL     1       2.252  -4.231  -7.204  0.00  0.00    +0.054 A 
ENDROOT
BRANCH   1  13
ATOM      7  C   UNL     1       0.606  -0.607  -1.056  0.00  0.00    +0.121 A 
ATOM      8  C   UNL     1       1.172   0.195  -2.062  0.00  0.00    +0.047 A 
ATOM      9  C   UNL     1       1.794  -0.326  -3.141  0.00  0.00    +0.029 A 
ATOM     10  C   UNL     1       1.895  -1.780  -3.294  0.00  0.00    +0.043 A 
ATOM     11  N   UNL     1       2.416  -2.527  -4.240  0.00  0.00    -0.376 N 
ATOM     12  C   UNL     1       2.317  -3.924  -3.831  0.00  0.00    +0.128 C 
ATOM     13  C   UNL     1       1.580  -4.788  -4.859  0.00  0.00    +0.111 C 
ATOM     14  N   UNL     1       1.276  -6.088  -4.239  0.00  0.00    -0.307 NA
ATOM     15  C   UNL     1       0.306  -5.993  -3.144  0.00  0.00    +0.086 C 
ATOM     16  C   UNL     1       0.903  -5.185  -1.977  0.00  0.00    +0.048 C 
ATOM     17  C   UNL     1       1.472  -3.914  -2.567  0.00  0.00    -0.035 C 
ATOM     18  C   UNL     1       1.289  -2.630  -2.238  0.00  0.00    +0.003 A 
ATOM     19  C   UNL     1       0.646  -1.960  -1.101  0.00  0.00    +0.055 A 
ATOM     20  H   UNL     1       0.976  -6.757  -4.931  0.00  0.00    +0.123 HD
ATOM     21  H   UNL     1       2.801  -2.205  -5.070  0.00  0.00    +0.160 HD
BRANCH   7  23
ATOM     22  C   UNL     1      -0.017   1.425   0.010  0.00  0.00    +0.277 C 
ATOM     23  O   UNL     1       0.002  -0.004   0.002  0.00  0.00    -0.495 OA
ENDBRANCH   7  23
ENDBRANCH   1  13
BRANCH   5  24
ATOM     24  O   UNL     1       2.863  -3.662  -9.431  0.00  0.00    -0.491 OA
ATOM     25  C   UNL     1       1.813  -2.694  -9.385  0.00  0.00    +0.277 C 
ENDBRANCH   5  24
BRANCH   4  26
ATOM     26  O   UNL     1       4.854  -5.565  -9.381  0.00  0.00    -0.484 OA
BRANCH  26  27
ATOM     27  C   UNL     1       5.866  -6.569  -9.283  0.00  0.00    +0.264 C 
BRANCH  27  28
ATOM     28  C   UNL     1       6.636  -6.634 -10.577  0.00  0.00    -0.009 A 
ATOM     29  C   UNL     1       6.216  -7.476 -11.589  0.00  0.00    +0.008 A 
ATOM     30  C   UNL     1       6.922  -7.537 -12.776  0.00  0.00    +0.022 A 
ATOM     31  C   UNL     1       8.049  -6.754 -12.951  0.00  0.00    +0.059 A 
ATOM     32  C   UNL     1       8.470  -5.910 -11.937  0.00  0.00    +0.060 A 
ATOM     33  C   UNL     1       7.759  -5.847 -10.752  0.00  0.00    +0.028 A 
ATOM     34 CL   UNL     1       9.884  -4.928 -12.155  0.00  0.00    -0.082 Cl
ATOM     35 CL   UNL     1       8.937  -6.830 -14.441  0.00  0.00    -0.082 Cl
ENDBRANCH  27  28
ENDBRANCH  26  27
ENDBRANCH   4  26
TORSDOF 6
