REMARK  Name = ZINC11974295
REMARK  11 active torsions:
REMARK  status: ('A' for Active; 'I' for Inactive)
REMARK    1  A    between atoms: C_1  and  C_2
REMARK    2  A    between atoms: C_3  and  C_4
REMARK    3  A    between atoms: C_4  and  N_5
REMARK    4  A    between atoms: C_8  and  C_12
REMARK    5  A    between atoms: C_8  and  C_20
REMARK    6  A    between atoms: C_12  and  C_13
REMARK    7  A    between atoms: C_13  and  C_14
REMARK    8  A    between atoms: C_25  and  C_26
REMARK    9  A    between atoms: C_25  and  N_66
REMARK   10  A    between atoms: N_29  and  C_32
REMARK   11  A    between atoms: C_30  and  C_31
REMARK                            x       y       z     vdW  Elec       q    Type
REMARK                         _______ _______ _______ _____ _____    ______ ____
ROOT
ATOM      1  N   UNL     1      -2.023   4.252   3.614  0.00  0.00    -0.212 N 
ATOM      2  C   UNL     1      -2.978   5.006   3.034  0.00  0.00    +0.248 C 
ATOM      3  O   UNL     1      -3.999   4.617   2.508  0.00  0.00    -0.273 OA
ATOM      4  C   UNL     1      -2.511   6.440   3.179  0.00  0.00    +0.115 C 
ATOM      5  N   UNL     1      -1.227   6.317   3.889  0.00  0.00    -0.285 N 
ATOM      6  C   UNL     1      -1.030   5.003   4.103  0.00  0.00    +0.310 C 
ATOM      7  O   UNL     1      -0.058   4.550   4.675  0.00  0.00    -0.252 OA
ATOM      8  H   UNL     1      -0.639   7.041   4.155  0.00  0.00    +0.151 HD
ENDROOT
BRANCH   4   9
ATOM      9  C   UNL     1      -2.307   7.081   1.804  0.00  0.00    +0.018 C 
ATOM     10  C   UNL     1      -3.654   7.192   1.086  0.00  0.00    -0.013 C 
ATOM     11  C   UNL     1      -3.434   7.775  -0.312  0.00  0.00    -0.078 C 
ATOM     12  C   UNL     1      -1.208   6.825  -0.423  0.00  0.00    -0.078 C 
ATOM     13  C   UNL     1      -1.361   6.212   0.971  0.00  0.00    -0.013 C 
ATOM     14  N   UNL     1      -2.535   6.880  -1.071  0.00  0.00    +0.382 N 
ATOM     15  H   UNL     1      -2.939   5.936  -1.084  0.00  0.00    -0.081 HD
BRANCH  14  16
ATOM     16  C   UNL     1      -2.399   7.363  -2.461  0.00  0.00    -0.040 C 
BRANCH  16  17
ATOM     17  C   UNL     1      -3.772   7.530  -3.060  0.00  0.00    -0.024 A 
ATOM     18  C   UNL     1      -4.416   8.744  -3.317  0.00  0.00    +0.136 A 
ATOM     19  N   UNL     1      -5.586   8.484  -3.840  0.00  0.00    -0.179 NA
ATOM     20  N   UNL     1      -5.728   7.093  -3.925  0.00  0.00    -0.271 N 
ATOM     21  C   UNL     1      -4.601   6.530  -3.440  0.00  0.00    +0.037 A 
ATOM     22  C   UNL     1      -4.318   5.054  -3.338  0.00  0.00    +0.065 C 
ATOM     23  C   UNL     1      -6.893   6.375  -4.447  0.00  0.00    +0.172 C 
ENDBRANCH  16  17
ENDBRANCH  14  16
ENDBRANCH   4   9
BRANCH   1  24
ATOM     24  C   UNL     1      -2.069   2.790   3.701  0.00  0.00    +0.206 C 
BRANCH  24  27
ATOM     25  C   UNL     1      -0.258   1.157   0.384  0.00  0.00    +0.106 C 
ATOM     26  C   UNL     1      -0.905   1.741   1.569  0.00  0.00    -0.104 C 
ATOM     27  C   UNL     1      -1.422   2.206   2.515  0.00  0.00    -0.083 C 
ENDBRANCH  24  27
ENDBRANCH   1  24
BRANCH   4  28
ATOM     28  C   UNL     1      -3.510   7.250   4.008  0.00  0.00    +0.040 C 
BRANCH  28  29
ATOM     29  C   UNL     1      -3.559   6.694   5.433  0.00  0.00    +0.038 C 
BRANCH  29  30
ATOM     30  C   UNL     1      -4.543   7.492   6.250  0.00  0.00    -0.047 A 
ATOM     31  C   UNL     1      -4.116   8.603   6.952  0.00  0.00    +0.003 A 
ATOM     32  C   UNL     1      -5.019   9.338   7.698  0.00  0.00    +0.000 A 
ATOM     33  C   UNL     1      -6.346   8.955   7.750  0.00  0.00    +0.000 A 
ATOM     34  C   UNL     1      -6.772   7.840   7.051  0.00  0.00    +0.000 A 
ATOM     35  C   UNL     1      -5.870   7.108   6.301  0.00  0.00    +0.003 A 
ENDBRANCH  29  30
ENDBRANCH  28  29
ENDBRANCH   4  28
TORSDOF 8
