REMARK  Name = ZINC49240651
REMARK  8 active torsions:
REMARK  status: ('A' for Active; 'I' for Inactive)
REMARK    1  A    between atoms: C_3  and  O_8
REMARK    2  A    between atoms: O_8  and  C_9
REMARK    3  A    between atoms: C_9  and  C_10
REMARK    4  A    between atoms: C_10  and  C_12
REMARK    5  A    between atoms: C_10  and  O_29
REMARK    6  A    between atoms: C_12  and  N_13
REMARK    7  A    between atoms: N_16  and  C_17
REMARK    8  A    between atoms: C_17  and  C_18
REMARK                            x       y       z     vdW  Elec       q    Type
REMARK                         _______ _______ _______ _____ _____    ______ ____
ROOT
ATOM      1  N   UNL     1       8.397   2.394  -0.193  0.00  0.00    -0.297 N 
ATOM      2  C   UNL     1       9.645   1.900  -0.309  0.00  0.00    +0.300 C 
ATOM      3  O   UNL     1       9.818   0.701  -0.408  0.00  0.00    -0.253 OA
ATOM      4  N   UNL     1      10.702   2.736  -0.315  0.00  0.00    -0.295 N 
ATOM      5  H   UNL     1       8.259   3.350  -0.113  0.00  0.00    +0.150 HD
ATOM      6  H   UNL     1      10.565   3.693  -0.236  0.00  0.00    +0.151 HD
ENDROOT
BRANCH   1   7
ATOM      7  C   UNL     1       7.247   1.485  -0.186  0.00  0.00    +0.140 C 
BRANCH   7   8
ATOM      8  C   UNL     1       5.957   2.295  -0.043  0.00  0.00    +0.169 C 
BRANCH   8   9
ATOM      9  O   UNL     1       5.990   3.031   1.181  0.00  0.00    -0.387 OA
ATOM     10  H   UNL     1       6.068   2.478   1.970  0.00  0.00    +0.210 HD
ENDBRANCH   8   9
BRANCH   8  11
ATOM     11  C   UNL     1       4.757   1.346  -0.037  0.00  0.00    +0.261 C 
BRANCH  11  12
ATOM     12  O   UNL     1       3.548   2.107  -0.021  0.00  0.00    -0.489 OA
BRANCH  12  15
ATOM     13  C   UNL     1      -0.017   1.378   0.010  0.00  0.00    +0.006 A 
ATOM     14  C   UNL     1       1.169   2.087   0.002  0.00  0.00    +0.046 A 
ATOM     15  C   UNL     1       2.381   1.411  -0.013  0.00  0.00    +0.123 A 
ATOM     16  C   UNL     1       2.400   0.024  -0.021  0.00  0.00    +0.084 A 
ATOM     17  C   UNL     1       1.210  -0.682  -0.013  0.00  0.00    +0.127 A 
ATOM     18  C   UNL     1       0.002  -0.004   0.002  0.00  0.00    +0.038 A 
ATOM     19  F   UNL     1       1.226  -2.033  -0.021  0.00  0.00    -0.205 F 
ENDBRANCH  12  15
ENDBRANCH  11  12
ENDBRANCH   8  11
ENDBRANCH   7   8
ENDBRANCH   1   7
BRANCH   4  20
ATOM     20  C   UNL     1      12.060   2.200  -0.442  0.00  0.00    +0.141 C 
BRANCH  20  21
ATOM     21  C   UNL     1      13.052   3.334  -0.421  0.00  0.00    -0.026 A 
ATOM     22  C   UNL     1      13.439   3.960  -1.599  0.00  0.00    +0.023 A 
ATOM     23  C   UNL     1      14.349   4.996  -1.547  0.00  0.00    +0.084 A 
ATOM     24  N   UNL     1      14.854   5.396  -0.395  0.00  0.00    -0.350 N 
ATOM     25  C   UNL     1      14.510   4.825   0.749  0.00  0.00    +0.099 A 
ATOM     26  C   UNL     1      13.593   3.779   0.771  0.00  0.00    +0.047 A 
ATOM     27  N   UNL     1      15.066   5.279   1.940  0.00  0.00    -0.317 N 
ATOM     28  C   UNL     1      14.785   4.738   3.277  0.00  0.00    +0.106 C 
ATOM     29  C   UNL     1      15.605   5.567   4.288  0.00  0.00    +0.020 C 
ATOM     30  C   UNL     1      15.866   6.891   3.522  0.00  0.00    +0.020 C 
ATOM     31  C   UNL     1      16.041   6.377   2.069  0.00  0.00    +0.106 C 
ATOM     32  H   UNL     1      15.492   6.127  -0.386  0.00  0.00    +0.166 HD
ENDBRANCH  20  21
ENDBRANCH   4  20
TORSDOF 8
