REMARK  Name = ZINC39697717
REMARK  8 active torsions:
REMARK  status: ('A' for Active; 'I' for Inactive)
REMARK    1  A    between atoms: C_1  and  C_2
REMARK    2  A    between atoms: C_7  and  C_15
REMARK    3  A    between atoms: C_13  and  C_14
REMARK    4  A    between atoms: C_15  and  N_16
REMARK    5  A    between atoms: N_16  and  C_17
REMARK    6  A    between atoms: C_17  and  C_18
REMARK    7  A    between atoms: N_25  and  C_26
REMARK    8  A    between atoms: C_26  and  C_27
REMARK                            x       y       z     vdW  Elec       q    Type
REMARK                         _______ _______ _______ _____ _____    ______ ____
ROOT
ATOM      1  N   UNL     1      -1.041  -6.678   2.477  0.00  0.00    -0.280 N 
ATOM      2  C   UNL     1      -0.327  -7.818   2.394  0.00  0.00    +0.303 C 
ATOM      3  O   UNL     1       0.216  -8.121   1.349  0.00  0.00    -0.253 OA
ATOM      4  N   UNL     1      -0.214  -8.622   3.470  0.00  0.00    -0.295 N 
ATOM      5  H   UNL     1      -0.647  -8.380   4.304  0.00  0.00    +0.151 HD
ENDROOT
BRANCH   1   6
ATOM      6  C   UNL     1      -1.163  -5.804   1.307  0.00  0.00    +0.126 C 
BRANCH   6  13
ATOM      7  C   UNL     1       4.609  -3.635  -2.957  0.00  0.00    +0.044 C 
ATOM      8  C   UNL     1       3.706  -4.081  -1.837  0.00  0.00    -0.046 A 
ATOM      9  C   UNL     1       4.164  -5.064  -0.958  0.00  0.00    +0.004 A 
ATOM     10  C   UNL     1       3.396  -5.506   0.070  0.00  0.00    +0.010 A 
ATOM     11  C   UNL     1       2.062  -4.933   0.253  0.00  0.00    -0.007 A 
ATOM     12  C   UNL     1       1.256  -5.346   1.272  0.00  0.00    -0.003 C 
ATOM     13  C   UNL     1      -0.110  -4.697   1.385  0.00  0.00    +0.116 C 
ATOM     14  C   UNL     1      -0.467  -3.646   0.358  0.00  0.00    +0.226 C 
ATOM     15  O   UNL     1      -1.549  -3.092   0.402  0.00  0.00    -0.275 OA
ATOM     16  N   UNL     1       0.403  -3.329  -0.586  0.00  0.00    -0.284 N 
ATOM     17  C   UNL     1       1.604  -3.897  -0.689  0.00  0.00    +0.043 A 
ATOM     18  C   UNL     1       2.481  -3.506  -1.719  0.00  0.00    -0.026 A 
ATOM     19  C   UNL     1       2.054  -2.446  -2.701  0.00  0.00    +0.046 C 
ATOM     20  H   UNL     1       0.154  -2.652  -1.235  0.00  0.00    +0.155 HD
ENDBRANCH   6  13
ENDBRANCH   1   6
BRANCH   1  21
ATOM     21  C   UNL     1      -1.695  -6.312   3.736  0.00  0.00    +0.151 C 
BRANCH  21  22
ATOM     22  C   UNL     1      -3.048  -6.971   3.809  0.00  0.00    +0.007 A 
ATOM     23  C   UNL     1      -3.382  -8.180   4.323  0.00  0.00    +0.013 A 
ATOM     24  C   UNL     1      -4.703  -8.584   4.282  0.00  0.00    +0.008 A 
ATOM     25  C   UNL     1      -5.626  -7.760   3.728  0.00  0.00    +0.045 A 
ATOM     26  S   UNL     1      -4.628  -6.359   3.247  0.00  0.00    -0.100 S 
ENDBRANCH  21  22
ENDBRANCH   1  21
BRANCH   4  27
ATOM     27  C   UNL     1       0.562  -9.861   3.381  0.00  0.00    +0.141 C 
BRANCH  27  28
ATOM     28  C   UNL     1       0.531 -10.570   4.710  0.00  0.00    -0.030 A 
ATOM     29  C   UNL     1       1.497 -10.300   5.661  0.00  0.00    +0.005 A 
ATOM     30  C   UNL     1       1.469 -10.950   6.880  0.00  0.00    +0.000 A 
ATOM     31  C   UNL     1       0.474 -11.871   7.149  0.00  0.00    +0.000 A 
ATOM     32  C   UNL     1      -0.493 -12.141   6.198  0.00  0.00    +0.000 A 
ATOM     33  C   UNL     1      -0.467 -11.488   4.980  0.00  0.00    +0.005 A 
ENDBRANCH  27  28
ENDBRANCH   4  27
TORSDOF 6
