REMARK  Name = ZINC15016157
REMARK  4 active torsions:
REMARK  status: ('A' for Active; 'I' for Inactive)
REMARK    1  A    between atoms: C_2  and  C_3
REMARK    2  A    between atoms: C_3  and  S_4
REMARK    3  A    between atoms: S_4  and  C_5
REMARK    4  A    between atoms: C_18  and  C_21
REMARK                            x       y       z     vdW  Elec       q    Type
REMARK                         _______ _______ _______ _____ _____    ______ ____
ROOT
ATOM      1  C   UNL     1       0.065   1.120   2.742  0.00  0.00    +0.213 A 
ATOM      2  N   UNL     1      -0.183   1.329   4.032  0.00  0.00    -0.184 NA
ATOM      3  C   UNL     1       0.553   0.712   4.940  0.00  0.00    +0.248 A 
ATOM      4  C   UNL     1       1.595  -0.139   4.506  0.00  0.00    +0.156 A 
ATOM      5  N   UNL     1       1.792  -0.301   3.206  0.00  0.00    -0.141 NA
ATOM      6  N   UNL     1       1.044   0.313   2.355  0.00  0.00    -0.122 NA
ATOM      7  C   UNL     1       2.442  -0.824   5.504  0.00  0.00    +0.029 A 
ATOM      8  C   UNL     1       2.722  -2.182   5.412  0.00  0.00    +0.027 A 
ATOM      9  C   UNL     1       3.530  -2.782   6.359  0.00  0.00    +0.019 A 
ATOM     10  C   UNL     1       4.063  -2.038   7.398  0.00  0.00    +0.017 A 
ATOM     11  C   UNL     1       3.788  -0.687   7.505  0.00  0.00    +0.025 A 
ATOM     12  C   UNL     1       2.975  -0.074   6.569  0.00  0.00    +0.040 A 
ATOM     13  N   UNL     1       2.647   1.282   6.666  0.00  0.00    -0.305 N 
ATOM     14  C   UNL     1       1.274   1.652   6.996  0.00  0.00    +0.295 C 
ATOM     15  O   UNL     1       0.329   0.880   6.265  0.00  0.00    -0.449 OA
ATOM     16 BR   UNL     1       3.909  -4.631   6.234  0.00  0.00    -0.050 Br
ATOM     17  H   UNL     1       3.320   1.965   6.517  0.00  0.00    +0.150 HD
ENDROOT
BRANCH  14  18
ATOM     18  C   UNL     1       1.048   1.434   8.470  0.00  0.00    +0.033 A 
ATOM     19  C   UNL     1       0.495   0.248   8.916  0.00  0.00    +0.060 A 
ATOM     20  C   UNL     1       0.290   0.044  10.270  0.00  0.00    +0.167 A 
ATOM     21  C   UNL     1       0.632   1.040  11.181  0.00  0.00    +0.168 A 
ATOM     22  C   UNL     1       1.181   2.229  10.729  0.00  0.00    +0.070 A 
ATOM     23  C   UNL     1       1.388   2.424   9.374  0.00  0.00    +0.053 A 
ATOM     24 CL   UNL     1       2.076   3.914   8.809  0.00  0.00    -0.083 Cl
ATOM     25  O   UNL     1       0.331   0.604  12.439  0.00  0.00    -0.453 OA
ATOM     26  C   UNL     1      -0.575  -0.500  12.256  0.00  0.00    +0.466 C 
ATOM     27  O   UNL     1      -0.227  -1.017  10.958  0.00  0.00    -0.453 OA
ENDBRANCH  14  18
BRANCH   1  28
ATOM     28  S   UNL     1      -0.918   1.935   1.527  0.00  0.00    -0.080 S 
BRANCH  28  29
ATOM     29  C   UNL     1      -0.144   1.300   0.019  0.00  0.00    +0.104 C 
BRANCH  29  31
ATOM     30  C   UNL     1      -0.194   2.679  -1.994  0.00  0.00    +0.005 C 
ATOM     31  C   UNL     1      -0.841   1.878  -1.185  0.00  0.00    -0.023 C 
ENDBRANCH  29  31
ENDBRANCH  28  29
ENDBRANCH   1  28
TORSDOF 4
