REMARK  Name = ZINC15131496
REMARK  10 active torsions:
REMARK  status: ('A' for Active; 'I' for Inactive)
REMARK    1  A    between atoms: C_1  and  N_58
REMARK    2  A    between atoms: C_2  and  N_58
REMARK    3  A    between atoms: C_3  and  C_5
REMARK    4  A    between atoms: C_3  and  C_25
REMARK    5  A    between atoms: C_3  and  N_58
REMARK    6  A    between atoms: C_5  and  N_6
REMARK    7  A    between atoms: N_6  and  C_7
REMARK    8  A    between atoms: C_10  and  S_16
REMARK    9  A    between atoms: C_12  and  N_13
REMARK   10  A    between atoms: S_16  and  N_19
REMARK                            x       y       z     vdW  Elec       q    Type
REMARK                         _______ _______ _______ _____ _____    ______ ____
ROOT
ATOM      1  C   UNL     1       6.006  -4.149  -1.901  0.00  0.00    +0.058 A 
ATOM      2  C   UNL     1       5.582  -5.437  -1.600  0.00  0.00    +0.027 A 
ATOM      3  C   UNL     1       5.301  -5.782  -0.292  0.00  0.00    +0.030 A 
ATOM      4  C   UNL     1       5.430  -4.843   0.715  0.00  0.00    +0.108 A 
ATOM      5  C   UNL     1       5.851  -3.559   0.418  0.00  0.00    +0.063 A 
ATOM      6  C   UNL     1       6.139  -3.210  -0.887  0.00  0.00    +0.149 A 
ENDROOT
BRANCH   6   7
ATOM      7  N   UNL     1       6.591  -1.836  -1.203  0.00  0.00    +0.058 N 
ATOM      8  O   UNL     1       7.347  -1.254  -0.447  0.00  0.00    -0.126 OA
ATOM      9  O   UNL     1       6.206  -1.288  -2.220  0.00  0.00    -0.126 OA
ENDBRANCH   6   7
BRANCH   4  10
ATOM     10  S   UNL     1       5.064  -5.284   2.381  0.00  0.00    +0.061 S 
ATOM     11  O   UNL     1       5.791  -4.387   3.208  0.00  0.00    -0.153 OA
ATOM     12  O   UNL     1       5.214  -6.694   2.469  0.00  0.00    -0.153 OA
BRANCH  10  13
ATOM     13  N   UNL     1       3.458  -4.963   2.631  0.00  0.00    -0.177 NA
ATOM     14  C   UNL     1       2.440  -5.989   2.369  0.00  0.00    +0.109 C 
ATOM     15  C   UNL     1       1.385  -5.406   1.423  0.00  0.00    +0.017 C 
ATOM     16  C   UNL     1       0.833  -4.109   2.017  0.00  0.00    +0.003 C 
ATOM     17  C   UNL     1       1.965  -3.090   2.165  0.00  0.00    +0.017 C 
ATOM     18  C   UNL     1       3.026  -3.646   3.119  0.00  0.00    +0.109 C 
ENDBRANCH  10  13
ENDBRANCH   4  10
BRANCH   1  19
ATOM     19  N   UNL     1       6.297  -3.799  -3.222  0.00  0.00    -0.343 N 
ATOM     20  H   UNL     1       6.621  -2.908  -3.427  0.00  0.00    +0.146 HD
BRANCH  19  21
ATOM     21  C   UNL     1       6.113  -4.777  -4.296  0.00  0.00    +0.091 C 
BRANCH  21  22
ATOM     22  C   UNL     1       6.501  -4.145  -5.634  0.00  0.00    -0.021 C 
BRANCH  22  23
ATOM     23  C   UNL     1       6.429  -5.185  -6.722  0.00  0.00    -0.059 A 
ATOM     24  C   UNL     1       7.337  -6.227  -6.743  0.00  0.00    +0.002 A 
ATOM     25  C   UNL     1       7.268  -7.184  -7.738  0.00  0.00    +0.000 A 
ATOM     26  C   UNL     1       6.297  -7.094  -8.717  0.00  0.00    +0.000 A 
ATOM     27  C   UNL     1       5.392  -6.050  -8.700  0.00  0.00    +0.000 A 
ATOM     28  C   UNL     1       5.458  -5.095  -7.702  0.00  0.00    +0.002 A 
ENDBRANCH  22  23
BRANCH  22  31
ATOM     29  C   UNL     1       8.662  -4.372  -4.567  0.00  0.00    -0.096 C 
ATOM     30  C   UNL     1       8.520  -3.626  -6.866  0.00  0.00    -0.096 C 
ATOM     31  N   UNL     1       7.868  -3.592  -5.540  0.00  0.00    +0.382 N 
ATOM     32  H   UNL     1       7.813  -2.618  -5.220  0.00  0.00    -0.082 HD
ENDBRANCH  22  31
ENDBRANCH  21  22
ENDBRANCH  19  21
ENDBRANCH   1  19
TORSDOF 8
