REMARK  Name = ZINC36346090
REMARK  17 active torsions:
REMARK  status: ('A' for Active; 'I' for Inactive)
REMARK    1  A    between atoms: C_1  and  C_2
REMARK    2  A    between atoms: C_3  and  C_21
REMARK    3  A    between atoms: C_4  and  O_13
REMARK    4  A    between atoms: N_5  and  C_7
REMARK    5  A    between atoms: O_13  and  C_14
REMARK    6  A    between atoms: C_21  and  N_22
REMARK    7  A    between atoms: N_22  and  C_23
REMARK    8  A    between atoms: N_22  and  C_27
REMARK    9  A    between atoms: C_23  and  C_24
REMARK   10  A    between atoms: C_27  and  C_28
REMARK   11  A    between atoms: C_28  and  C_30
REMARK   12  A    between atoms: C_28  and  O_36
REMARK   13  A    between atoms: C_30  and  O_31
REMARK   14  A    between atoms: O_31  and  C_32
REMARK   15  A    between atoms: C_32  and  C_33
REMARK   16  A    between atoms: C_33  and  C_34
REMARK   17  A    between atoms: C_33  and  C_35
REMARK                            x       y       z     vdW  Elec       q    Type
REMARK                         _______ _______ _______ _____ _____    ______ ____
ROOT
ATOM      1  C   UNL     1       0.937  -3.705  -2.201  0.00  0.00    +0.068 C 
ATOM      2  C   UNL     1      -0.055  -3.188  -3.211  0.00  0.00    +0.065 A 
ATOM      3  C   UNL     1      -0.442  -1.853  -3.368  0.00  0.00    +0.021 A 
ATOM      4  C   UNL     1      -1.348  -1.797  -4.380  0.00  0.00    +0.225 A 
ATOM      5  N   UNL     1      -1.522  -3.064  -4.843  0.00  0.00    -0.200 N 
ATOM      6  N   UNL     1      -0.695  -3.911  -4.095  0.00  0.00    -0.168 NA
ENDROOT
BRANCH   5   7
ATOM      7  C   UNL     1      -2.373  -3.452  -5.887  0.00  0.00    +0.069 A 
ATOM      8  C   UNL     1      -3.651  -2.917  -5.978  0.00  0.00    +0.028 A 
ATOM      9  C   UNL     1      -4.487  -3.301  -7.008  0.00  0.00    +0.002 A 
ATOM     10  C   UNL     1      -4.053  -4.218  -7.947  0.00  0.00    +0.000 A 
ATOM     11  C   UNL     1      -2.781  -4.753  -7.859  0.00  0.00    +0.002 A 
ATOM     12  C   UNL     1      -1.938  -4.369  -6.835  0.00  0.00    +0.028 A 
ENDBRANCH   5   7
BRANCH   4  13
ATOM     13  O   UNL     1      -1.966  -0.681  -4.843  0.00  0.00    -0.435 OA
BRANCH  13  14
ATOM     14  C   UNL     1      -3.106  -0.279  -4.222  0.00  0.00    +0.165 A 
ATOM     15  C   UNL     1      -3.545  -0.935  -3.082  0.00  0.00    +0.049 A 
ATOM     16  C   UNL     1      -4.704  -0.525  -2.452  0.00  0.00    +0.004 A 
ATOM     17  C   UNL     1      -5.428   0.540  -2.957  0.00  0.00    +0.003 A 
ATOM     18  C   UNL     1      -4.995   1.197  -4.093  0.00  0.00    +0.042 A 
ATOM     19  C   UNL     1      -3.832   0.794  -4.725  0.00  0.00    +0.165 A 
ATOM     20  F   UNL     1      -3.405   1.439  -5.833  0.00  0.00    -0.202 F 
ENDBRANCH  13  14
ENDBRANCH   4  13
BRANCH   3  21
ATOM     21  C   UNL     1       0.057  -0.684  -2.558  0.00  0.00    -0.036 C 
BRANCH  21  22
ATOM     22  N   UNL     1       1.321  -0.198  -3.127  0.00  0.00    +0.384 N 
ATOM     23  H   UNL     1       1.978  -0.961  -3.188  0.00  0.00    -0.081 HD
BRANCH  22  24
ATOM     24  C   UNL     1       1.873   0.856  -2.264  0.00  0.00    -0.075 C 
BRANCH  24  25
ATOM     25  C   UNL     1       2.256   0.257  -0.910  0.00  0.00    -0.028 C 
ATOM     26  C   UNL     1       1.520   0.778   0.327  0.00  0.00    +0.002 C 
ATOM     27  C   UNL     1       2.981   1.166   0.085  0.00  0.00    +0.002 C 
ENDBRANCH  24  25
ENDBRANCH  22  24
BRANCH  22  28
ATOM     28  C   UNL     1       1.076   0.346  -4.469  0.00  0.00    -0.044 C 
BRANCH  28  29
ATOM     29  C   UNL     1       2.409   0.738  -5.111  0.00  0.00    +0.124 C 
BRANCH  29  30
ATOM     30  O   UNL     1       3.201  -0.433  -5.316  0.00  0.00    -0.391 OA
ATOM     31  H   UNL     1       2.789  -1.091  -5.893  0.00  0.00    +0.210 HD
ENDBRANCH  29  30
BRANCH  29  32
ATOM     32  C   UNL     1       2.146   1.418  -6.456  0.00  0.00    +0.189 C 
BRANCH  32  33
ATOM     33  O   UNL     1       3.381   1.888  -7.001  0.00  0.00    -0.377 OA
BRANCH  33  34
ATOM     34  C   UNL     1       3.247   2.543  -8.264  0.00  0.00    +0.163 C 
BRANCH  34  35
ATOM     35  C   UNL     1       4.623   3.002  -8.749  0.00  0.00    +0.009 C 
ATOM     36  C   UNL     1       4.498   3.591 -10.156  0.00  0.00    +0.009 C 
ATOM     37  C   UNL     1       5.171   4.067  -7.797  0.00  0.00    +0.009 C 
ENDBRANCH  34  35
ENDBRANCH  33  34
ENDBRANCH  32  33
ENDBRANCH  29  32
ENDBRANCH  28  29
ENDBRANCH  22  28
ENDBRANCH  21  22
ENDBRANCH   3  21
TORSDOF 14
