REMARK  Name = ZINC01820944
REMARK  10 active torsions:
REMARK  status: ('A' for Active; 'I' for Inactive)
REMARK    1  A    between atoms: C_1  and  C_2
REMARK    2  A    between atoms: C_2  and  O_3
REMARK    3  A    between atoms: O_3  and  C_4
REMARK    4  A    between atoms: C_7  and  N_10
REMARK    5  A    between atoms: C_11  and  C_29
REMARK    6  A    between atoms: C_14  and  S_15
REMARK    7  A    between atoms: S_15  and  C_16
REMARK    8  A    between atoms: C_16  and  C_17
REMARK    9  A    between atoms: N_19  and  N_20
REMARK   10  A    between atoms: C_21  and  C_22
REMARK                            x       y       z     vdW  Elec       q    Type
REMARK                         _______ _______ _______ _____ _____    ______ ____
ROOT
ATOM      1  N   UNL     1       1.285   1.733  -0.001  0.00  0.00    -0.270 N 
ATOM      2  C   UNL     1       2.047   0.585  -0.014  0.00  0.00    +0.169 A 
ATOM      3  N   UNL     1       1.214  -0.430  -0.012  0.00  0.00    -0.128 NA
ATOM      4  N   UNL     1       0.002  -0.004   0.002  0.00  0.00    -0.122 NA
ATOM      5  C   UNL     1      -0.016   1.310   0.009  0.00  0.00    +0.197 A 
ENDROOT
BRANCH   2   6
ATOM      6  C   UNL     1       3.523   0.511  -0.028  0.00  0.00    +0.020 A 
ATOM      7  C   UNL     1       4.285   1.640   0.278  0.00  0.00    +0.013 A 
ATOM      8  C   UNL     1       5.662   1.563   0.268  0.00  0.00    +0.021 A 
ATOM      9  C   UNL     1       6.289   0.372  -0.055  0.00  0.00    +0.041 A 
ATOM     10  C   UNL     1       5.539  -0.751  -0.364  0.00  0.00    +0.021 A 
ATOM     11  C   UNL     1       4.162  -0.688  -0.353  0.00  0.00    +0.013 A 
ATOM     12 CL   UNL     1       8.023   0.284  -0.073  0.00  0.00    -0.084 Cl
ENDBRANCH   2   6
BRANCH   1  16
ATOM     13  C   UNL     1       2.658   5.672   0.007  0.00  0.00    +0.121 A 
ATOM     14  C   UNL     1       1.962   5.178   1.101  0.00  0.00    +0.047 A 
ATOM     15  C   UNL     1       1.507   3.874   1.098  0.00  0.00    +0.030 A 
ATOM     16  C   UNL     1       1.747   3.058   0.002  0.00  0.00    +0.051 A 
ATOM     17  C   UNL     1       2.449   3.550  -1.089  0.00  0.00    +0.030 A 
ATOM     18  C   UNL     1       2.899   4.856  -1.088  0.00  0.00    +0.047 A 
BRANCH  13  19
ATOM     19  O   UNL     1       3.106   6.956   0.010  0.00  0.00    -0.492 OA
BRANCH  19  21
ATOM     20  C   UNL     1       4.237   8.857  -0.963  0.00  0.00    +0.048 C 
ATOM     21  C   UNL     1       3.816   7.398  -1.149  0.00  0.00    +0.225 C 
ENDBRANCH  19  21
ENDBRANCH  13  19
ENDBRANCH   1  16
BRANCH   5  22
ATOM     22  S   UNL     1      -1.448   2.336   0.022  0.00  0.00    -0.076 S 
BRANCH  22  23
ATOM     23  C   UNL     1      -2.742   1.070   0.022  0.00  0.00    +0.174 C 
BRANCH  23  24
ATOM     24  C   UNL     1      -4.094   1.734   0.033  0.00  0.00    +0.242 C 
ATOM     25  O   UNL     1      -4.176   2.945   0.039  0.00  0.00    -0.273 OA
ATOM     26  N   UNL     1      -5.214   0.984   0.035  0.00  0.00    -0.206 N 
ATOM     27  H   UNL     1      -5.149   0.016   0.029  0.00  0.00    +0.177 HD
BRANCH  26  28
ATOM     28  N   UNL     1      -6.471   1.601   0.044  0.00  0.00    -0.188 NA
ATOM     29  C   UNL     1      -7.549   0.878   0.046  0.00  0.00    +0.141 C 
BRANCH  29  30
ATOM     30  C   UNL     1      -8.873   1.528   0.057  0.00  0.00    +0.030 A 
ATOM     31  C   UNL     1     -10.035   0.753   0.053  0.00  0.00    +0.012 A 
ATOM     32  C   UNL     1     -11.270   1.367   0.069  0.00  0.00    +0.001 A 
ATOM     33  C   UNL     1     -11.360   2.748   0.076  0.00  0.00    +0.003 A 
ATOM     34  C   UNL     1     -10.215   3.524   0.074  0.00  0.00    +0.039 A 
ATOM     35  C   UNL     1      -8.971   2.923   0.064  0.00  0.00    +0.132 A 
ATOM     36  F   UNL     1      -7.852   3.681   0.062  0.00  0.00    -0.205 F 
ENDBRANCH  29  30
ENDBRANCH  26  28
ENDBRANCH  23  24
ENDBRANCH  22  23
ENDBRANCH   5  22
TORSDOF 9
