REMARK  Name = ZINC62539867
REMARK  8 active torsions:
REMARK  status: ('A' for Active; 'I' for Inactive)
REMARK    1  A    between atoms: C_1  and  C_2
REMARK    2  A    between atoms: C_2  and  C_3
REMARK    3  A    between atoms: C_2  and  C_4
REMARK    4  A    between atoms: C_6  and  N_20
REMARK    5  A    between atoms: C_11  and  C_17
REMARK    6  A    between atoms: N_15  and  C_16
REMARK    7  A    between atoms: C_17  and  C_18
REMARK    8  A    between atoms: C_17  and  C_19
REMARK                            x       y       z     vdW  Elec       q    Type
REMARK                         _______ _______ _______ _____ _____    ______ ____
ROOT
ATOM      1  C   UNL     1      -1.412  -0.526   0.013  0.00  0.00    +0.000 A 
ATOM      2  C   UNL     1      -2.260  -0.204   1.057  0.00  0.00    +0.030 A 
ATOM      3  C   UNL     1      -3.563  -0.683   1.070  0.00  0.00    +0.027 A 
ATOM      4  C   UNL     1      -4.020  -1.486   0.033  0.00  0.00    +0.050 A 
ATOM      5  C   UNL     1      -3.171  -1.807  -1.012  0.00  0.00    +0.080 A 
ATOM      6  C   UNL     1      -1.863  -1.321  -1.025  0.00  0.00    +0.146 A 
ATOM      7  O   UNL     1      -1.040  -1.644  -2.060  0.00  0.00    -0.477 OA
ATOM      8  C   UNL     1      -1.233  -2.928  -2.658  0.00  0.00    +0.262 C 
ATOM      9  C   UNL     1      -2.702  -3.156  -2.905  0.00  0.00    +0.261 C 
ATOM     10  O   UNL     1      -3.063  -3.832  -3.846  0.00  0.00    -0.271 OA
ATOM     11  N   UNL     1      -3.611  -2.616  -2.070  0.00  0.00    -0.268 N 
ATOM     12  C   UNL     1      -5.042  -2.858  -2.274  0.00  0.00    +0.138 C 
ENDROOT
BRANCH   1  14
ATOM     13  C   UNL     1      -0.019   1.526   0.010  0.00  0.00    +0.012 C 
ATOM     14  C   UNL     1       0.002  -0.004   0.002  0.00  0.00    +0.017 C 
ATOM     15  C   UNL     1       0.742  -0.511   1.242  0.00  0.00    +0.012 C 
ENDBRANCH   1  14
BRANCH   8  16
ATOM     16  C   UNL     1      -0.700  -4.012  -1.719  0.00  0.00    +0.033 C 
ATOM     17  C   UNL     1       0.792  -3.784  -1.470  0.00  0.00    +0.011 C 
ATOM     18  C   UNL     1      -1.455  -3.951  -0.389  0.00  0.00    +0.011 C 
ENDBRANCH   8  16
BRANCH   3  19
ATOM     19  N   UNL     1      -4.417  -0.356   2.129  0.00  0.00    -0.358 N 
ATOM     20  H   UNL     1      -4.099   0.205   2.854  0.00  0.00    +0.142 HD
ATOM     21  H   UNL     1      -5.328  -0.690   2.139  0.00  0.00    +0.142 HD
ENDBRANCH   3  19
TORSDOF 3
