REMARK  Name = ZINC09868059
REMARK  9 active torsions:
REMARK  status: ('A' for Active; 'I' for Inactive)
REMARK    1  A    between atoms: C_1  and  N_2
REMARK    2  A    between atoms: N_2  and  C_3
REMARK    3  A    between atoms: N_2  and  S_9
REMARK    4  A    between atoms: S_9  and  C_12
REMARK    5  A    between atoms: C_15  and  C_18
REMARK    6  A    between atoms: N_20  and  C_21
REMARK    7  A    between atoms: C_21  and  C_22
REMARK    8  A    between atoms: C_22  and  C_24
REMARK    9  A    between atoms: C_22  and  N_59
REMARK                            x       y       z     vdW  Elec       q    Type
REMARK                         _______ _______ _______ _____ _____    ______ ____
ROOT
ATOM      1  C   UNL     1       2.208  -2.090  -5.651  0.00  0.00    +0.109 A 
ATOM      2  C   UNL     1       1.143  -1.269  -5.974  0.00  0.00    +0.029 A 
ATOM      3  C   UNL     1       0.734  -0.286  -5.097  0.00  0.00    +0.015 A 
ATOM      4  C   UNL     1       1.399  -0.120  -3.881  0.00  0.00    +0.037 A 
ATOM      5  C   UNL     1       2.476  -0.948  -3.563  0.00  0.00    +0.015 A 
ATOM      6  C   UNL     1       2.871  -1.931  -4.447  0.00  0.00    +0.029 A 
ENDROOT
BRANCH   4   7
ATOM      7  C   UNL     1       0.967   0.932  -2.936  0.00  0.00    +0.244 C 
ATOM      8  O   UNL     1       0.031   1.655  -3.218  0.00  0.00    -0.270 OA
ATOM      9  N   UNL     1       1.610   1.089  -1.763  0.00  0.00    -0.313 N 
ATOM     10  H   UNL     1       2.357   0.512  -1.538  0.00  0.00    +0.149 HD
BRANCH   9  11
ATOM     11  C   UNL     1       1.182   2.132  -0.827  0.00  0.00    +0.094 C 
BRANCH  11  12
ATOM     12  C   UNL     1       2.173   2.211   0.337  0.00  0.00    -0.013 C 
BRANCH  12  17
ATOM     13  C   UNL     1       4.425   2.916   0.940  0.00  0.00    -0.078 C 
ATOM     14  C   UNL     1       5.824   2.761   0.294  0.00  0.00    -0.020 C 
ATOM     15  C   UNL     1       5.641   1.545  -0.642  0.00  0.00    -0.020 C 
ATOM     16  C   UNL     1       4.125   1.461  -0.900  0.00  0.00    -0.078 C 
ATOM     17  N   UNL     1       3.526   2.583  -0.177  0.00  0.00    +0.386 N 
ATOM     18  H   UNL     1       3.437   3.392  -0.803  0.00  0.00    -0.081 HD
ENDBRANCH  12  17
BRANCH  12  19
ATOM     19  C   UNL     1       1.704   3.246   1.327  0.00  0.00    -0.022 A 
ATOM     20  C   UNL     1       1.136   3.067   2.544  0.00  0.00    +0.009 A 
ATOM     21  C   UNL     1       0.782   4.176   3.288  0.00  0.00    +0.008 A 
ATOM     22  C   UNL     1       1.014   5.411   2.779  0.00  0.00    +0.045 A 
ATOM     23  S   UNL     1       1.761   5.026   1.204  0.00  0.00    -0.103 S 
ENDBRANCH  12  19
ENDBRANCH  11  12
ENDBRANCH   9  11
ENDBRANCH   4   7
BRANCH   1  24
ATOM     24  S   UNL     1       2.723  -3.344  -6.777  0.00  0.00    +0.074 S 
ATOM     25  O   UNL     1       3.392  -4.332  -6.006  0.00  0.00    -0.150 OA
ATOM     26  O   UNL     1       1.599  -3.645  -7.592  0.00  0.00    -0.150 OA
BRANCH  24  28
ATOM     27  C   UNL     1       5.285  -2.796  -7.449  0.00  0.00    +0.157 C 
ATOM     28  N   UNL     1       3.862  -2.670  -7.772  0.00  0.00    -0.206 N 
BRANCH  28  29
ATOM     29  C   UNL     1       3.465  -1.980  -8.921  0.00  0.00    +0.051 A 
ATOM     30  C   UNL     1       2.829  -2.656  -9.954  0.00  0.00    +0.025 A 
ATOM     31  C   UNL     1       2.434  -1.970 -11.085  0.00  0.00    +0.002 A 
ATOM     32  C   UNL     1       2.681  -0.614 -11.195  0.00  0.00    +0.000 A 
ATOM     33  C   UNL     1       3.319   0.061 -10.171  0.00  0.00    +0.002 A 
ATOM     34  C   UNL     1       3.712  -0.618  -9.034  0.00  0.00    +0.025 A 
ENDBRANCH  28  29
ENDBRANCH  24  28
ENDBRANCH   1  24
TORSDOF 8
