REMARK  Name = ZINC63405931
REMARK  7 active torsions:
REMARK  status: ('A' for Active; 'I' for Inactive)
REMARK    1  A    between atoms: N_9  and  C_12
REMARK    2  A    between atoms: C_12  and  C_13
REMARK    3  A    between atoms: C_13  and  C_14
REMARK    4  A    between atoms: C_17  and  O_23
REMARK    5  A    between atoms: O_23  and  C_24
REMARK    6  A    between atoms: C_24  and  C_25
REMARK    7  A    between atoms: C_25  and  N_26
REMARK                            x       y       z     vdW  Elec       q    Type
REMARK                         _______ _______ _______ _____ _____    ______ ____
ROOT
ATOM      1  C   UNL     1       4.740  -5.145  -1.515  0.00  0.00    -0.040 C 
ATOM      2  C   UNL     1       4.241  -6.397  -1.616  0.00  0.00    +0.002 A 
ATOM      3  C   UNL     1       2.874  -6.917  -1.738  0.00  0.00    +0.055 A 
ATOM      4  C   UNL     1       2.675  -8.255  -1.822  0.00  0.00    +0.121 A 
ATOM      5  C   UNL     1       3.737  -9.175  -1.798  0.00  0.00    +0.047 A 
ATOM      6  C   UNL     1       5.027  -8.794  -1.688  0.00  0.00    +0.029 A 
ATOM      7  C   UNL     1       5.359  -7.369  -1.591  0.00  0.00    +0.043 A 
ATOM      8  N   UNL     1       6.503  -6.741  -1.478  0.00  0.00    -0.380 N 
ATOM      9  C   UNL     1       6.242  -5.298  -1.426  0.00  0.00    +0.144 C 
ATOM     10  H   UNL     1       7.377  -7.160  -1.440  0.00  0.00    +0.160 HD
ENDROOT
BRANCH   1  11
ATOM     11  C   UNL     1       3.959  -3.857  -1.501  0.00  0.00    +0.052 C 
BRANCH  11  12
ATOM     12  C   UNL     1       3.709  -3.428  -0.053  0.00  0.00    +0.121 C 
BRANCH  12  21
ATOM     13  C   UNL     1      -0.017   1.382   0.010  0.00  0.00    +0.001 A 
ATOM     14  C   UNL     1       1.165   2.099   0.002  0.00  0.00    +0.001 A 
ATOM     15  C   UNL     1       2.385   1.442  -0.013  0.00  0.00    +0.014 A 
ATOM     16  C   UNL     1       2.420   0.056  -0.021  0.00  0.00    +0.049 A 
ATOM     17  C   UNL     1       1.215  -0.675  -0.013  0.00  0.00    +0.049 A 
ATOM     18  C   UNL     1       0.002  -0.004   0.002  0.00  0.00    +0.014 A 
ATOM     19  C   UNL     1       1.606  -2.100  -0.025  0.00  0.00    +0.254 C 
ATOM     20  O   UNL     1       0.843  -3.045  -0.023  0.00  0.00    -0.270 OA
ATOM     21  N   UNL     1       2.949  -2.175  -0.039  0.00  0.00    -0.234 N 
ATOM     22  C   UNL     1       3.503  -0.949  -0.038  0.00  0.00    +0.254 C 
ATOM     23  O   UNL     1       4.693  -0.709  -0.049  0.00  0.00    -0.270 OA
ENDBRANCH  12  21
ENDBRANCH  11  12
ENDBRANCH   1  11
BRANCH   4  24
ATOM     24  O   UNL     1       1.403  -8.722  -1.933  0.00  0.00    -0.490 OA
BRANCH  24  25
ATOM     25  C   UNL     1       1.238 -10.139  -2.019  0.00  0.00    +0.248 C 
BRANCH  25  26
ATOM     26  C   UNL     1      -0.250 -10.473  -2.139  0.00  0.00    +0.158 C 
BRANCH  26  27
ATOM     27  N   UNL     1      -0.769  -9.945  -3.403  0.00  0.00    -0.231 N 
ATOM     28  C   UNL     1      -1.288  -8.714  -3.557  0.00  0.00    +0.254 C 
ATOM     29  O   UNL     1      -1.400  -7.877  -2.684  0.00  0.00    -0.270 OA
ATOM     30  C   UNL     1      -1.700  -8.550  -4.967  0.00  0.00    +0.049 A 
ATOM     31  C   UNL     1      -2.281  -7.522  -5.692  0.00  0.00    +0.014 A 
ATOM     32  C   UNL     1      -2.546  -7.697  -7.042  0.00  0.00    +0.001 A 
ATOM     33  C   UNL     1      -2.235  -8.889  -7.668  0.00  0.00    +0.001 A 
ATOM     34  C   UNL     1      -1.653  -9.926  -6.955  0.00  0.00    +0.014 A 
ATOM     35  C   UNL     1      -1.383  -9.766  -5.606  0.00  0.00    +0.049 A 
ATOM     36  C   UNL     1      -0.784 -10.626  -4.563  0.00  0.00    +0.254 C 
ATOM     37  O   UNL     1      -0.376 -11.758  -4.726  0.00  0.00    -0.270 OA
ENDBRANCH  26  27
ENDBRANCH  25  26
ENDBRANCH  24  25
ENDBRANCH   4  24
TORSDOF 7
