REMARK  Name = ZINC35863065
REMARK  10 active torsions:
REMARK  status: ('A' for Active; 'I' for Inactive)
REMARK    1  A    between atoms: C_1  and  C_2
REMARK    2  A    between atoms: C_2  and  C_3
REMARK    3  A    between atoms: C_11  and  O_23
REMARK    4  A    between atoms: C_14  and  C_16
REMARK    5  A    between atoms: O_23  and  C_24
REMARK    6  A    between atoms: C_24  and  C_25
REMARK    7  A    between atoms: C_28  and  C_30
REMARK    8  A    between atoms: N_32  and  C_33
REMARK    9  A    between atoms: N_32  and  C_34
REMARK   10  A    between atoms: C_34  and  C_35
REMARK                            x       y       z     vdW  Elec       q    Type
REMARK                         _______ _______ _______ _____ _____    ______ ____
ROOT
ATOM      1  C   UNL     1      -3.770   0.532  -1.419  0.00  0.00    +0.216 C 
ATOM      2  O   UNL     1      -4.796   1.125  -1.164  0.00  0.00    -0.276 OA
ATOM      3  N   UNL     1      -3.677  -0.790  -1.173  0.00  0.00    -0.290 N 
ATOM      4  C   UNL     1      -2.476  -1.556  -1.546  0.00  0.00    +0.113 C 
ATOM      5  C   UNL     1      -1.829  -2.070  -0.261  0.00  0.00    +0.054 C 
ATOM      6  C   UNL     1      -2.856  -2.700   0.642  0.00  0.00    -0.040 A 
ATOM      7  C   UNL     1      -2.401  -3.577   1.621  0.00  0.00    +0.007 A 
ATOM      8  C   UNL     1      -3.285  -4.182   2.488  0.00  0.00    +0.046 A 
ATOM      9  C   UNL     1      -4.643  -3.914   2.386  0.00  0.00    +0.121 A 
ATOM     10  C   UNL     1      -5.097  -3.043   1.410  0.00  0.00    +0.051 A 
ATOM     11  C   UNL     1      -4.204  -2.441   0.535  0.00  0.00    -0.016 A 
ATOM     12  C   UNL     1      -4.765  -1.522  -0.516  0.00  0.00    +0.137 C 
ENDROOT
BRANCH  12  13
ATOM     13  C   UNL     1      -5.712  -0.543   0.128  0.00  0.00    -0.022 A 
ATOM     14  C   UNL     1      -5.223   0.432   0.979  0.00  0.00    +0.008 A 
ATOM     15  C   UNL     1      -6.090   1.331   1.570  0.00  0.00    +0.038 A 
ATOM     16  C   UNL     1      -7.448   1.256   1.310  0.00  0.00    +0.123 A 
ATOM     17  C   UNL     1      -7.936   0.280   0.458  0.00  0.00    +0.038 A 
ATOM     18  C   UNL     1      -7.067  -0.616  -0.136  0.00  0.00    +0.008 A 
ATOM     19  F   UNL     1      -8.297   2.134   1.887  0.00  0.00    -0.205 F 
ENDBRANCH  12  13
BRANCH   1  21
ATOM     20  C   UNL     1      -2.964   2.747  -2.188  0.00  0.00    +0.013 C 
ATOM     21  C   UNL     1      -2.598   1.272  -2.010  0.00  0.00    +0.092 C 
ENDBRANCH   1  21
BRANCH   9  22
ATOM     22  O   UNL     1      -5.522  -4.502   3.240  0.00  0.00    -0.484 OA
BRANCH  22  23
ATOM     23  C   UNL     1      -4.979  -5.388   4.221  0.00  0.00    +0.303 C 
BRANCH  23  24
ATOM     24  C   UNL     1      -6.095  -5.941   5.070  0.00  0.00    +0.143 A 
ATOM     25  C   UNL     1      -6.787  -7.074   4.819  0.00  0.00    +0.049 A 
ATOM     26  C   UNL     1      -7.727  -7.220   5.851  0.00  0.00    +0.055 A 
ATOM     27  C   UNL     1      -7.558  -6.156   6.690  0.00  0.00    +0.190 A 
ATOM     28  O   UNL     1      -6.559  -5.393   6.201  0.00  0.00    -0.452 OA
BRANCH  27  29
ATOM     29  C   UNL     1      -8.326  -5.891   7.912  0.00  0.00    +0.282 C 
ATOM     30  O   UNL     1      -9.275  -6.596   8.199  0.00  0.00    -0.267 OA
ATOM     31  N   UNL     1      -7.980  -4.866   8.716  0.00  0.00    -0.294 N 
ATOM     32  C   UNL     1      -6.771  -4.088   8.432  0.00  0.00    +0.133 C 
BRANCH  31  33
ATOM     33  C   UNL     1      -8.812  -4.530   9.873  0.00  0.00    +0.143 C 
BRANCH  33  34
ATOM     34  C   UNL     1      -8.336  -5.303  11.076  0.00  0.00    -0.030 A 
ATOM     35  C   UNL     1      -8.862  -6.553  11.345  0.00  0.00    +0.005 A 
ATOM     36  C   UNL     1      -8.425  -7.263  12.448  0.00  0.00    +0.000 A 
ATOM     37  C   UNL     1      -7.463  -6.723  13.281  0.00  0.00    +0.000 A 
ATOM     38  C   UNL     1      -6.937  -5.473  13.011  0.00  0.00    +0.000 A 
ATOM     39  C   UNL     1      -7.371  -4.766  11.906  0.00  0.00    +0.005 A 
ENDBRANCH  33  34
ENDBRANCH  31  33
ENDBRANCH  27  29
ENDBRANCH  23  24
ENDBRANCH  22  23
ENDBRANCH   9  22
TORSDOF 8
