REMARK  Name = ZINC03037348
REMARK  5 active torsions:
REMARK  status: ('A' for Active; 'I' for Inactive)
REMARK    1  A    between atoms: C_1  and  C_2
REMARK    2  A    between atoms: C_2  and  C_3
REMARK    3  A    between atoms: C_6  and  N_9
REMARK    4  A    between atoms: C_19  and  C_20
REMARK    5  A    between atoms: C_19  and  O_34
REMARK                            x       y       z     vdW  Elec       q    Type
REMARK                         _______ _______ _______ _____ _____    ______ ____
ROOT
ATOM      1  N   UNL     1       2.690  -1.950  -4.213  0.00  0.00    -0.214 N 
ATOM      2  C   UNL     1       1.702  -2.191  -5.093  0.00  0.00    +0.314 C 
ATOM      3  O   UNL     1       0.553  -2.163  -4.697  0.00  0.00    -0.252 OA
ATOM      4  N   UNL     1       1.925  -2.461  -6.386  0.00  0.00    -0.269 N 
ATOM      5  C   UNL     1       3.204  -2.516  -6.941  0.00  0.00    +0.043 A 
ATOM      6  C   UNL     1       3.381  -2.801  -8.288  0.00  0.00    +0.024 A 
ATOM      7  C   UNL     1       4.655  -2.852  -8.818  0.00  0.00    +0.002 A 
ATOM      8  C   UNL     1       5.756  -2.621  -8.013  0.00  0.00    +0.001 A 
ATOM      9  C   UNL     1       5.585  -2.338  -6.669  0.00  0.00    +0.010 A 
ATOM     10  C   UNL     1       4.316  -2.285  -6.139  0.00  0.00    +0.033 A 
ATOM     11  C   UNL     1       4.087  -1.973  -4.678  0.00  0.00    +0.247 C 
ATOM     12  H   UNL     1       1.162  -2.625  -6.963  0.00  0.00    +0.156 HD
ENDROOT
BRANCH  11  13
ATOM     13  C   UNL     1       4.698  -0.627  -4.384  0.00  0.00    +0.272 C 
ATOM     14  O   UNL     1       5.567  -0.526  -3.545  0.00  0.00    -0.270 OA
ATOM     15  N   UNL     1       4.277   0.464  -5.054  0.00  0.00    -0.294 N 
ATOM     16  C   UNL     1       3.147   0.378  -5.989  0.00  0.00    +0.127 C 
ATOM     17  C   UNL     1       2.091   1.412  -5.579  0.00  0.00    +0.125 C 
ATOM     18  N   UNL     1       2.753   2.709  -5.386  0.00  0.00    -0.314 N 
ATOM     19  C   UNL     1       3.884   2.795  -4.450  0.00  0.00    +0.125 C 
ATOM     20  C   UNL     1       4.936   1.763  -4.856  0.00  0.00    +0.127 C 
ATOM     21  C   UNL     1       2.320   3.835  -6.076  0.00  0.00    +0.099 A 
ATOM     22  C   UNL     1       1.331   3.709  -7.048  0.00  0.00    +0.042 A 
ATOM     23  C   UNL     1       0.909   4.838  -7.727  0.00  0.00    +0.005 A 
ATOM     24  C   UNL     1       1.491   6.058  -7.411  0.00  0.00    +0.018 A 
ATOM     25  C   UNL     1       2.466   6.110  -6.435  0.00  0.00    +0.084 A 
ATOM     26  N   UNL     1       2.846   5.018  -5.799  0.00  0.00    -0.350 N 
ATOM     27  H   UNL     1       3.531   5.082  -5.115  0.00  0.00    +0.166 HD
ENDBRANCH  11  13
BRANCH   1  31
ATOM     28  C   UNL     1       1.807  -1.129  -0.225  0.00  0.00    -0.048 A 
ATOM     29  C   UNL     1       2.028  -0.090  -1.111  0.00  0.00    +0.005 A 
ATOM     30  C   UNL     1       2.321  -0.359  -2.433  0.00  0.00    +0.024 A 
ATOM     31  C   UNL     1       2.394  -1.674  -2.873  0.00  0.00    +0.041 A 
ATOM     32  C   UNL     1       2.172  -2.715  -1.982  0.00  0.00    +0.024 A 
ATOM     33  C   UNL     1       1.885  -2.440  -0.659  0.00  0.00    +0.005 A 
BRANCH  28  35
ATOM     34  C   UNL     1       2.787  -0.754   2.022  0.00  0.00    +0.009 C 
ATOM     35  C   UNL     1       1.488  -0.833   1.218  0.00  0.00    +0.032 C 
ENDBRANCH  28  35
ENDBRANCH   1  31
BRANCH  11  36
ATOM     36  O   UNL     1       4.792  -2.949  -3.908  0.00  0.00    -0.360 OA
ATOM     37  H   UNL     1       5.726  -3.037  -4.144  0.00  0.00    +0.213 HD
ENDBRANCH  11  36
TORSDOF 4
