REMARK  Name = ZINC64958758
REMARK  7 active torsions:
REMARK  status: ('A' for Active; 'I' for Inactive)
REMARK    1  A    between atoms: C_1  and  C_2
REMARK    2  A    between atoms: C_5  and  C_9
REMARK    3  A    between atoms: C_6  and  C_8
REMARK    4  A    between atoms: C_22  and  C_25
REMARK    5  A    between atoms: N_27  and  C_28
REMARK    6  A    between atoms: C_28  and  C_29
REMARK    7  A    between atoms: C_28  and  C_30
REMARK                            x       y       z     vdW  Elec       q    Type
REMARK                         _______ _______ _______ _____ _____    ______ ____
ROOT
ATOM      1  C   UNL     1      -0.896  -4.407   0.026  0.00  0.00    +0.094 A 
ATOM      2  C   UNL     1      -0.708  -5.143  -1.146  0.00  0.00    +0.061 A 
ATOM      3  C   UNL     1      -0.184  -6.372  -0.787  0.00  0.00    +0.107 A 
ATOM      4  C   UNL     1       0.208  -7.519  -1.519  0.00  0.00    +0.147 A 
ATOM      5  N   UNL     1       0.685  -8.566  -0.876  0.00  0.00    -0.237 NA
ATOM      6  C   UNL     1       0.805  -8.565   0.456  0.00  0.00    +0.132 A 
ATOM      7  C   UNL     1       0.445  -7.496   1.194  0.00  0.00    +0.133 A 
ATOM      8  N   UNL     1      -0.058  -6.378   0.580  0.00  0.00    -0.234 N 
ATOM      9  N   UNL     1      -0.503  -5.141   1.055  0.00  0.00    -0.166 NA
ATOM     10  N   UNL     1       0.091  -7.540  -2.899  0.00  0.00    -0.313 N 
ATOM     11  C   UNL     1       0.075  -6.289  -3.668  0.00  0.00    +0.106 C 
ATOM     12  C   UNL     1       1.154  -6.364  -4.754  0.00  0.00    +0.020 C 
ATOM     13  C   UNL     1       0.936  -7.623  -5.597  0.00  0.00    +0.016 C 
ATOM     14  C   UNL     1       1.059  -8.862  -4.707  0.00  0.00    +0.092 C 
ATOM     15  C   UNL     1      -0.014  -8.815  -3.621  0.00  0.00    +0.119 C 
ENDROOT
BRANCH   1  20
ATOM     16  C   UNL     1      -3.010   0.942   0.329  0.00  0.00    +0.044 C 
ATOM     17  C   UNL     1      -2.458  -0.458   0.249  0.00  0.00    -0.050 A 
ATOM     18  C   UNL     1      -1.477  -0.760  -0.679  0.00  0.00    +0.004 A 
ATOM     19  C   UNL     1      -0.967  -2.040  -0.756  0.00  0.00    +0.010 A 
ATOM     20  C   UNL     1      -1.441  -3.029   0.104  0.00  0.00    +0.005 A 
ATOM     21  C   UNL     1      -2.428  -2.719   1.037  0.00  0.00    -0.041 A 
ATOM     22  C   UNL     1      -2.928  -1.434   1.109  0.00  0.00    +0.007 A 
ATOM     23  C   UNL     1      -2.946  -3.783   1.970  0.00  0.00    +0.044 C 
ENDBRANCH   1  20
BRANCH  14  24
ATOM     24  C   UNL     1       0.878 -10.102  -5.544  0.00  0.00    +0.218 C 
ATOM     25  O   UNL     1      -0.024 -10.875  -5.295  0.00  0.00    -0.275 OA
ATOM     26  N   UNL     1       1.717 -10.353  -6.568  0.00  0.00    -0.313 N 
ATOM     27  H   UNL     1       2.438  -9.735  -6.767  0.00  0.00    +0.149 HD
BRANCH  26  28
ATOM     28  C   UNL     1       1.541 -11.558  -7.381  0.00  0.00    +0.067 C 
ATOM     29  C   UNL     1       0.514 -11.285  -8.482  0.00  0.00    +0.027 C 
ATOM     30  C   UNL     1       2.878 -11.945  -8.016  0.00  0.00    +0.027 C 
ENDBRANCH  26  28
ENDBRANCH  14  24
TORSDOF 3
