REMARK  Name = ZINC24953486
REMARK  6 active torsions:
REMARK  status: ('A' for Active; 'I' for Inactive)
REMARK    1  A    between atoms: C_1  and  C_2
REMARK    2  A    between atoms: C_2  and  C_4
REMARK    3  A    between atoms: C_2  and  S_14
REMARK    4  A    between atoms: N_10  and  C_11
REMARK    5  A    between atoms: N_10  and  C_12
REMARK    6  A    between atoms: S_14  and  C_15
REMARK                            x       y       z     vdW  Elec       q    Type
REMARK                         _______ _______ _______ _____ _____    ______ ____
ROOT
ATOM      1  C   UNL     1      -1.970   1.978  -1.374  0.00  0.00    +0.028 C 
ATOM      2  C   UNL     1      -1.334   2.048   0.016  0.00  0.00    +0.119 C 
ENDROOT
BRANCH   2   3
ATOM      3  C   UNL     1      -0.019   1.313   0.004  0.00  0.00    +0.149 A 
ATOM      4  N   UNL     1      -0.002  -0.008  -0.004  0.00  0.00    -0.198 NA
ATOM      5  C   UNL     1       1.157  -0.661  -0.020  0.00  0.00    +0.217 A 
ATOM      6  N   UNL     1       2.300   0.018  -0.029  0.00  0.00    -0.181 NA
ATOM      7  C   UNL     1       2.279   1.346  -0.022  0.00  0.00    +0.222 A 
ATOM      8  N   UNL     1       1.115   1.992  -0.006  0.00  0.00    -0.198 NA
ATOM      9  N   UNL     1       3.463   2.055  -0.031  0.00  0.00    -0.306 N 
ATOM     10  C   UNL     1       4.743   1.344  -0.048  0.00  0.00    +0.132 C 
ATOM     11  C   UNL     1       3.439   3.520  -0.023  0.00  0.00    +0.132 C 
ATOM     12  N   UNL     1       1.174  -2.041  -0.026  0.00  0.00    -0.327 N 
ATOM     13  H   UNL     1       2.133  -2.580  -0.040  0.00  0.00    +0.145 HD
ATOM     14  H   UNL     1       0.228  -2.602  -0.019  0.00  0.00    +0.145 HD
ENDBRANCH   2   3
BRANCH   2  15
ATOM     15  S   UNL     1      -2.445   1.281   1.228  0.00  0.00    -0.073 S 
BRANCH  15  16
ATOM     16  C   UNL     1      -3.862   2.328   1.230  0.00  0.00    +0.211 A 
ATOM     17  N   UNL     1      -4.987   2.155   1.987  0.00  0.00    -0.188 NA
ATOM     18  H   UNL     1      -5.624   4.860   0.298  0.00  0.00    +0.192 HD
ATOM     19  C   UNL     1      -5.849   3.175   1.700  0.00  0.00    +0.209 A 
ATOM     20  N   UNL     1      -5.283   3.944   0.803  0.00  0.00    -0.246 N 
ATOM     21  N   UNL     1      -4.022   3.409   0.507  0.00  0.00    -0.144 NA
ATOM     22  N   UNL     1      -7.105   3.365   2.261  0.00  0.00    -0.328 N 
ATOM     23  H   UNL     1      -7.720   4.225   1.957  0.00  0.00    +0.145 HD
ATOM     24  H   UNL     1      -7.486   2.655   3.010  0.00  0.00    +0.145 HD
ENDBRANCH  15  16
ENDBRANCH   2  15
TORSDOF 3
