REMARK  Name = ZINC20293900
REMARK  10 active torsions:
REMARK  status: ('A' for Active; 'I' for Inactive)
REMARK    1  A    between atoms: C_1  and  C_2
REMARK    2  A    between atoms: C_3  and  C_32
REMARK    3  A    between atoms: C_4  and  C_31
REMARK    4  A    between atoms: C_5  and  S_10
REMARK    5  A    between atoms: C_6  and  C_9
REMARK    6  A    between atoms: C_7  and  C_8
REMARK    7  A    between atoms: S_10  and  N_13
REMARK    8  A    between atoms: C_16  and  C_19
REMARK    9  A    between atoms: N_21  and  N_22
REMARK   10  A    between atoms: C_23  and  C_24
REMARK                            x       y       z     vdW  Elec       q    Type
REMARK                         _______ _______ _______ _____ _____    ______ ____
ROOT
ATOM      1  N   UNL     1       0.058  -0.572   0.857  0.00  0.00    -0.177 NA
ATOM      2  C   UNL     1      -1.214  -0.400   0.143  0.00  0.00    +0.110 C 
ATOM      3  C   UNL     1      -1.525   1.097   0.043  0.00  0.00    +0.030 C 
ATOM      4  C   UNL     1      -0.340   1.819  -0.602  0.00  0.00    +0.079 C 
ATOM      5  C   UNL     1       0.904   1.641   0.272  0.00  0.00    +0.030 C 
ATOM      6  C   UNL     1       1.243   0.151   0.374  0.00  0.00    +0.110 C 
ENDROOT
BRANCH   4   7
ATOM      7  C   UNL     1      -0.656   3.286  -0.733  0.00  0.00    +0.235 C 
ATOM      8  O   UNL     1      -1.725   3.713  -0.348  0.00  0.00    -0.274 OA
ATOM      9  N   UNL     1       0.248   4.124  -1.277  0.00  0.00    -0.207 N 
ATOM     10  H   UNL     1       1.217   3.737  -1.626  0.00  0.00    +0.177 HD
BRANCH   9  11
ATOM     11  N   UNL     1      -0.046   5.489  -1.399  0.00  0.00    -0.188 NA
ATOM     12  C   UNL     1       0.824   6.296  -1.923  0.00  0.00    +0.139 C 
BRANCH  12  13
ATOM     13  C   UNL     1       0.514   7.732  -2.051  0.00  0.00    +0.008 A 
ATOM     14  C   UNL     1       1.451   8.605  -2.609  0.00  0.00    +0.010 A 
ATOM     15  C   UNL     1       1.153   9.946  -2.730  0.00  0.00    +0.001 A 
ATOM     16  C   UNL     1      -0.067  10.430  -2.291  0.00  0.00    +0.001 A 
ATOM     17  C   UNL     1      -0.998   9.573  -1.732  0.00  0.00    +0.016 A 
ATOM     18  C   UNL     1      -0.716   8.227  -1.609  0.00  0.00    +0.027 A 
ATOM     19 BR   UNL     1      -1.989   7.057  -0.844  0.00  0.00    -0.050 Br
ENDBRANCH  12  13
ENDBRANCH   9  11
ENDBRANCH   4   7
BRANCH   1  20
ATOM     20  S   UNL     1       0.155  -1.560   2.183  0.00  0.00    +0.061 S 
ATOM     21  O   UNL     1       1.262  -1.106   2.948  0.00  0.00    -0.153 OA
ATOM     22  O   UNL     1      -1.158  -1.648   2.720  0.00  0.00    -0.153 OA
BRANCH  20  27
ATOM     23  C   UNL     1       1.577  -7.076   0.193  0.00  0.00    +0.044 C 
ATOM     24  C   UNL     1       1.222  -5.698   0.690  0.00  0.00    -0.044 A 
ATOM     25  C   UNL     1      -0.088  -5.260   0.633  0.00  0.00    -0.043 A 
ATOM     26  C   UNL     1      -0.414  -3.996   1.089  0.00  0.00    -0.021 A 
ATOM     27  C   UNL     1       0.570  -3.171   1.602  0.00  0.00    +0.112 A 
ATOM     28  C   UNL     1       1.880  -3.608   1.654  0.00  0.00    -0.021 A 
ATOM     29  C   UNL     1       2.205  -4.873   1.202  0.00  0.00    -0.043 A 
ATOM     30  C   UNL     1       3.633  -5.352   1.264  0.00  0.00    +0.044 C 
ATOM     31  C   UNL     1       2.954  -2.706   2.207  0.00  0.00    +0.046 C 
ATOM     32  C   UNL     1      -1.841  -3.517   1.027  0.00  0.00    +0.046 C 
ATOM     33  C   UNL     1      -1.161  -6.159   0.075  0.00  0.00    +0.044 C 
ENDBRANCH  20  27
ENDBRANCH   1  20
TORSDOF 5
