REMARK  Name = ZINC40921714
REMARK  10 active torsions:
REMARK  status: ('A' for Active; 'I' for Inactive)
REMARK    1  A    between atoms: C_1  and  C_2
REMARK    2  A    between atoms: C_2  and  C_3
REMARK    3  A    between atoms: C_3  and  O_4
REMARK    4  A    between atoms: O_4  and  C_5
REMARK    5  A    between atoms: C_5  and  C_7
REMARK    6  A    between atoms: C_8  and  C_32
REMARK    7  A    between atoms: C_15  and  C_17
REMARK    8  A    between atoms: C_20  and  O_23
REMARK    9  A    between atoms: O_23  and  C_24
REMARK   10  A    between atoms: C_24  and  C_25
REMARK                            x       y       z     vdW  Elec       q    Type
REMARK                         _______ _______ _______ _____ _____    ______ ____
ROOT
ATOM      1  C   UNL     1       1.587  -3.945  -2.311  0.00  0.00    +0.082 C 
ATOM      2  C   UNL     1       1.909  -4.499  -3.490  0.00  0.00    +0.020 C 
ATOM      3  N   UNL     1       1.813  -5.849  -3.717  0.00  0.00    -0.286 N 
ATOM      4  C   UNL     1       1.616  -6.668  -2.615  0.00  0.00    +0.240 A 
ATOM      5  N   UNL     1       1.696  -7.962  -2.487  0.00  0.00    -0.092 NA
ATOM      6  N   UNL     1       1.437  -8.309  -1.273  0.00  0.00    -0.021 NA
ATOM      7  N   UNL     1       1.175  -7.266  -0.553  0.00  0.00    -0.042 NA
ATOM      8  N   UNL     1       1.278  -6.164  -1.399  0.00  0.00    -0.201 N 
ATOM      9  C   UNL     1       1.087  -4.744  -1.136  0.00  0.00    +0.181 C 
ATOM     10  C   UNL     1       2.394  -3.607  -4.604  0.00  0.00    +0.061 C 
ATOM     11  H   UNL     1       1.879  -6.216  -4.612  0.00  0.00    +0.155 HD
ENDROOT
BRANCH   9  12
ATOM     12  C   UNL     1      -0.380  -4.469  -0.929  0.00  0.00    -0.018 A 
ATOM     13  C   UNL     1      -1.285  -4.758  -1.933  0.00  0.00    +0.009 A 
ATOM     14  C   UNL     1      -2.630  -4.506  -1.746  0.00  0.00    +0.046 A 
ATOM     15  C   UNL     1      -3.073  -3.963  -0.548  0.00  0.00    +0.121 A 
ATOM     16  C   UNL     1      -2.163  -3.675   0.459  0.00  0.00    +0.046 A 
ATOM     17  C   UNL     1      -0.819  -3.933   0.268  0.00  0.00    +0.009 A 
BRANCH  15  18
ATOM     18  O   UNL     1      -4.396  -3.714  -0.361  0.00  0.00    -0.487 OA
BRANCH  18  19
ATOM     19  C   UNL     1      -4.779  -3.155   0.897  0.00  0.00    +0.264 C 
BRANCH  19  20
ATOM     20  C   UNL     1      -6.272  -2.949   0.921  0.00  0.00    -0.010 A 
ATOM     21  C   UNL     1      -6.812  -1.755   0.481  0.00  0.00    +0.008 A 
ATOM     22  C   UNL     1      -8.181  -1.566   0.502  0.00  0.00    +0.015 A 
ATOM     23  C   UNL     1      -9.011  -2.572   0.964  0.00  0.00    +0.018 A 
ATOM     24  C   UNL     1      -8.470  -3.767   1.405  0.00  0.00    +0.015 A 
ATOM     25  C   UNL     1      -7.101  -3.957   1.378  0.00  0.00    +0.008 A 
ATOM     26 BR   UNL     1     -10.884  -2.314   0.994  0.00  0.00    -0.050 Br
ENDBRANCH  19  20
ENDBRANCH  18  19
ENDBRANCH  15  18
ENDBRANCH   9  12
BRANCH   1  27
ATOM     27  C   UNL     1       1.729  -2.547  -2.163  0.00  0.00    +0.339 C 
ATOM     28  O   UNL     1       2.713  -2.091  -1.612  0.00  0.00    -0.245 OA
BRANCH  27  29
ATOM     29  O   UNL     1       0.772  -1.719  -2.632  0.00  0.00    -0.461 OA
BRANCH  29  30
ATOM     30  C   UNL     1       0.981  -0.317  -2.447  0.00  0.00    +0.232 C 
BRANCH  30  32
ATOM     31  C   UNL     1       0.024   1.957  -2.842  0.00  0.00    +0.007 C 
ATOM     32  C   UNL     1      -0.199   0.456  -3.039  0.00  0.00    +0.038 C 
ENDBRANCH  30  32
ENDBRANCH  29  30
ENDBRANCH  27  29
ENDBRANCH   1  27
TORSDOF 8
