REMARK  Name = ZINC08986949
REMARK  8 active torsions:
REMARK  status: ('A' for Active; 'I' for Inactive)
REMARK    1  A    between atoms: C_1  and  N_2
REMARK    2  A    between atoms: C_3  and  N_14
REMARK    3  A    between atoms: C_5  and  C_7
REMARK    4  A    between atoms: C_15  and  C_17
REMARK    5  A    between atoms: C_17  and  O_18
REMARK    6  A    between atoms: O_18  and  C_19
REMARK    7  A    between atoms: C_19  and  C_21
REMARK    8  A    between atoms: C_21  and  N_22
REMARK                            x       y       z     vdW  Elec       q    Type
REMARK                         _______ _______ _______ _____ _____    ______ ____
ROOT
ATOM      1  N   UNL     1       1.469   4.750   0.013  0.00  0.00    -0.268 N 
ATOM      2  C   UNL     1       2.812   4.634  -0.000  0.00  0.00    +0.256 C 
ATOM      3  O   UNL     1       3.325   3.535  -0.011  0.00  0.00    -0.272 OA
ATOM      4  H   UNL     1       1.058   5.629   0.021  0.00  0.00    +0.156 HD
ENDROOT
BRANCH   1   7
ATOM      5  C   UNL     1      -1.574   4.745   0.040  0.00  0.00    +0.174 C 
ATOM      6  N   UNL     1      -0.689   3.578   0.026  0.00  0.00    -0.253 N 
ATOM      7  C   UNL     1       0.670   3.607   0.014  0.00  0.00    +0.123 A 
ATOM      8  C   UNL     1       1.110   2.321   0.004  0.00  0.00    +0.073 A 
ATOM      9  C   UNL     1      -0.018   1.480   0.010  0.00  0.00    +0.095 A 
ATOM     10  N   UNL     1      -1.094   2.238   0.019  0.00  0.00    -0.170 NA
BRANCH   9  11
ATOM     11  C   UNL     1       0.002  -0.004   0.002  0.00  0.00    +0.002 A 
ATOM     12  C   UNL     1       1.217  -0.686  -0.019  0.00  0.00    +0.011 A 
ATOM     13  C   UNL     1       1.230  -2.066  -0.021  0.00  0.00    +0.020 A 
ATOM     14  C   UNL     1       0.040  -2.773  -0.014  0.00  0.00    +0.041 A 
ATOM     15  C   UNL     1      -1.170  -2.099   0.002  0.00  0.00    +0.020 A 
ATOM     16  C   UNL     1      -1.194  -0.719   0.010  0.00  0.00    +0.011 A 
ATOM     17 CL   UNL     1       0.063  -4.508  -0.024  0.00  0.00    -0.084 Cl
ENDBRANCH   9  11
ENDBRANCH   1   7
BRANCH   2  18
ATOM     18  C   UNL     1       3.675   5.869  -0.002  0.00  0.00    +0.328 C 
BRANCH  18  19
ATOM     19  O   UNL     1       5.074   5.482  -0.016  0.00  0.00    -0.454 OA
BRANCH  19  20
ATOM     20  C   UNL     1       5.980   6.472  -0.019  0.00  0.00    +0.326 C 
ATOM     21  O   UNL     1       5.617   7.624  -0.010  0.00  0.00    -0.249 OA
BRANCH  20  22
ATOM     22  C   UNL     1       7.452   6.146  -0.035  0.00  0.00    +0.234 C 
BRANCH  22  23
ATOM     23  N   UNL     1       8.227   7.389  -0.035  0.00  0.00    -0.255 N 
ATOM     24  C   UNL     1       8.597   7.997  -1.244  0.00  0.00    +0.079 A 
ATOM     25  C   UNL     1       7.989   7.634  -2.434  0.00  0.00    +0.027 A 
ATOM     26  C   UNL     1       8.370   8.244  -3.615  0.00  0.00    +0.002 A 
ATOM     27  C   UNL     1       9.355   9.214  -3.610  0.00  0.00    +0.004 A 
ATOM     28  C   UNL     1       9.957   9.588  -2.426  0.00  0.00    +0.047 A 
ATOM     29  C   UNL     1       9.585   8.978  -1.240  0.00  0.00    +0.143 A 
ATOM     30  O   UNL     1      10.179   9.324  -0.067  0.00  0.00    -0.481 OA
ATOM     31  C   UNL     1       9.365   9.264   1.108  0.00  0.00    +0.325 C 
ATOM     32  C   UNL     1       8.600   7.965   1.128  0.00  0.00    +0.258 C 
ATOM     33  O   UNL     1       8.321   7.440   2.185  0.00  0.00    -0.271 OA
ENDBRANCH  22  23
ENDBRANCH  20  22
ENDBRANCH  19  20
ENDBRANCH  18  19
ENDBRANCH   2  18
TORSDOF 7
