REMARK  Name = ZINC24653608
REMARK  12 active torsions:
REMARK  status: ('A' for Active; 'I' for Inactive)
REMARK    1  A    between atoms: C_1  and  C_2
REMARK    2  A    between atoms: C_2  and  C_4
REMARK    3  A    between atoms: C_2  and  O_16
REMARK    4  A    between atoms: C_4  and  C_6
REMARK    5  A    between atoms: O_16  and  C_17
REMARK    6  A    between atoms: C_17  and  C_19
REMARK    7  A    between atoms: C_22  and  S_25
REMARK    8  A    between atoms: S_25  and  N_28
REMARK    9  A    between atoms: N_28  and  C_29
REMARK   10  A    between atoms: C_29  and  C_30
REMARK   11  A    between atoms: C_29  and  C_31
REMARK   12  A    between atoms: C_29  and  C_32
REMARK                            x       y       z     vdW  Elec       q    Type
REMARK                         _______ _______ _______ _____ _____    ______ ____
ROOT
ATOM      1  C   UNL     1      -0.320  -2.020   0.029  0.00  0.00    +0.340 C 
ATOM      2  O   UNL     1      -1.348  -2.322  -0.542  0.00  0.00    -0.245 OA
ENDROOT
BRANCH   1   3
ATOM      3  C   UNL     1       0.105  -0.606   0.085  0.00  0.00    +0.059 A 
ATOM      4  C   UNL     1      -0.672   0.385  -0.518  0.00  0.00    +0.017 A 
ATOM      5  C   UNL     1      -0.269   1.703  -0.462  0.00  0.00    +0.029 A 
ATOM      6  C   UNL     1       0.903   2.044   0.189  0.00  0.00    +0.105 A 
ATOM      7  C   UNL     1       1.679   1.067   0.788  0.00  0.00    +0.029 A 
ATOM      8  C   UNL     1       1.287  -0.255   0.741  0.00  0.00    +0.017 A 
BRANCH   6   9
ATOM      9  S   UNL     1       1.411   3.730   0.255  0.00  0.00    +0.059 S 
ATOM     10  O   UNL     1       2.826   3.734   0.123  0.00  0.00    -0.153 OA
ATOM     11  O   UNL     1       0.561   4.445  -0.632  0.00  0.00    -0.153 OA
BRANCH   9  12
ATOM     12  N   UNL     1       1.076   4.283   1.780  0.00  0.00    -0.185 NA
ATOM     13  H   UNL     1       1.889   4.705   2.388  0.00  0.00    +0.149 HD
BRANCH  12  14
ATOM     14  C   UNL     1      -0.314   4.409   2.224  0.00  0.00    +0.032 C 
ATOM     15  C   UNL     1      -1.007   3.049   2.123  0.00  0.00    +0.029 C 
ATOM     16  C   UNL     1      -0.343   4.889   3.677  0.00  0.00    +0.029 C 
ATOM     17  C   UNL     1      -1.043   5.421   1.338  0.00  0.00    +0.029 C 
ENDBRANCH  12  14
ENDBRANCH   9  12
ENDBRANCH   6   9
ENDBRANCH   1   3
BRANCH   1  18
ATOM     18  O   UNL     1       0.433  -2.973   0.612  0.00  0.00    -0.450 OA
BRANCH  18  20
ATOM     19  C   UNL     1       0.519  -4.993  -0.745  0.00  0.00    +0.061 C 
ATOM     20  C   UNL     1      -0.046  -4.340   0.518  0.00  0.00    +0.244 C 
BRANCH  20  21
ATOM     21  C   UNL     1       0.405  -5.115   1.729  0.00  0.00    +0.205 C 
ATOM     22  O   UNL     1       1.278  -4.669   2.445  0.00  0.00    -0.288 OA
BRANCH  21  23
ATOM     23  C   UNL     1      -0.190  -6.366   2.032  0.00  0.00    +0.046 A 
ATOM     24  C   UNL     1      -1.185  -7.003   1.322  0.00  0.00    +0.095 A 
ATOM     25  N   UNL     1      -1.489  -8.171   1.919  0.00  0.00    -0.360 N 
ATOM     26  H   UNL     1      -2.267  -8.821   1.491  0.00  0.00    +0.165 HD
ATOM     27  C   UNL     1      -0.714  -8.360   3.045  0.00  0.00    +0.047 A 
ATOM     28  C   UNL     1       0.136  -7.250   3.168  0.00  0.00    +0.010 A 
ATOM     29  C   UNL     1       1.041  -7.176   4.222  0.00  0.00    +0.011 A 
ATOM     30  C   UNL     1       1.101  -8.199   5.144  0.00  0.00    +0.001 A 
ATOM     31  C   UNL     1       0.264  -9.298   5.023  0.00  0.00    +0.002 A 
ATOM     32  C   UNL     1      -0.642  -9.380   3.988  0.00  0.00    +0.026 A 
ENDBRANCH  21  23
ENDBRANCH  20  21
ENDBRANCH  18  20
ENDBRANCH   1  18
TORSDOF 8
