REMARK  Name = ZINC19898575
REMARK  12 active torsions:
REMARK  status: ('A' for Active; 'I' for Inactive)
REMARK    1  A    between atoms: C_1  and  C_2
REMARK    2  A    between atoms: C_2  and  C_3
REMARK    3  A    between atoms: C_3  and  O_4
REMARK    4  A    between atoms: O_4  and  C_5
REMARK    5  A    between atoms: C_5  and  C_7
REMARK    6  A    between atoms: C_8  and  C_38
REMARK    7  A    between atoms: C_12  and  C_14
REMARK    8  A    between atoms: C_25  and  C_28
REMARK    9  A    between atoms: C_31  and  O_36
REMARK   10  A    between atoms: C_32  and  O_34
REMARK   11  A    between atoms: O_34  and  C_35
REMARK   12  A    between atoms: O_36  and  C_37
REMARK                            x       y       z     vdW  Elec       q    Type
REMARK                         _______ _______ _______ _____ _____    ______ ____
ROOT
ATOM      1  C   UNL     1      -2.551   4.720   2.401  0.00  0.00    +0.065 C 
ATOM      2  C   UNL     1      -2.582   5.306   1.192  0.00  0.00    +0.016 C 
ATOM      3  N   UNL     1      -2.264   4.595   0.069  0.00  0.00    -0.321 N 
ATOM      4  C   UNL     1      -1.544   3.434   0.159  0.00  0.00    +0.016 C 
ATOM      5  C   UNL     1      -1.467   2.764   1.329  0.00  0.00    +0.024 C 
ATOM      6  C   UNL     1      -2.178   3.275   2.557  0.00  0.00    +0.096 C 
ATOM      7  C   UNL     1      -0.728   1.572   1.437  0.00  0.00    +0.162 C 
ATOM      8  O   UNL     1      -0.661   1.004   2.509  0.00  0.00    -0.292 OA
ATOM      9  C   UNL     1      -0.019   0.987   0.246  0.00  0.00    +0.088 C 
ATOM     10  C   UNL     1      -0.761   1.398  -1.030  0.00  0.00    +0.032 C 
ATOM     11  C   UNL     1      -0.838   2.926  -1.074  0.00  0.00    +0.059 C 
ATOM     12  C   UNL     1      -2.969   6.758   1.073  0.00  0.00    +0.061 C 
ATOM     13  H   UNL     1      -2.587   4.953  -0.920  0.00  0.00    +0.152 HD
ENDROOT
BRANCH   6  14
ATOM     14  C   UNL     1      -3.428   2.463   2.779  0.00  0.00    +0.018 A 
ATOM     15  C   UNL     1      -4.416   2.433   1.810  0.00  0.00    +0.129 A 
ATOM     16  C   UNL     1      -5.561   1.682   2.013  0.00  0.00    +0.039 A 
ATOM     17  C   UNL     1      -5.723   0.972   3.188  0.00  0.00    +0.004 A 
ATOM     18  C   UNL     1      -4.739   1.007   4.158  0.00  0.00    +0.020 A 
ATOM     19  C   UNL     1      -3.591   1.752   3.954  0.00  0.00    +0.048 A 
ATOM     20 CL   UNL     1      -2.356   1.795   5.173  0.00  0.00    -0.083 Cl
ATOM     21  F   UNL     1      -4.260   3.132   0.664  0.00  0.00    -0.205 F 
ENDBRANCH   6  14
BRANCH  10  22
ATOM     22  C   UNL     1      -0.013   0.894  -2.236  0.00  0.00    -0.040 A 
ATOM     23  C   UNL     1       1.289   1.304  -2.462  0.00  0.00    +0.008 A 
ATOM     24  C   UNL     1       1.980   0.843  -3.567  0.00  0.00    +0.049 A 
ATOM     25  C   UNL     1       1.369  -0.031  -4.452  0.00  0.00    +0.161 A 
ATOM     26  C   UNL     1       0.059  -0.443  -4.225  0.00  0.00    +0.162 A 
ATOM     27  C   UNL     1      -0.626   0.018  -3.113  0.00  0.00    +0.053 A 
BRANCH  26  28
ATOM     28  O   UNL     1      -0.545  -1.300  -5.091  0.00  0.00    -0.491 OA
ATOM     29  C   UNL     1      -1.890  -1.680  -4.795  0.00  0.00    +0.277 C 
ENDBRANCH  26  28
BRANCH  25  30
ATOM     30  O   UNL     1       2.048  -0.485  -5.539  0.00  0.00    -0.491 OA
ATOM     31  C   UNL     1       3.389  -0.021  -5.707  0.00  0.00    +0.277 C 
ENDBRANCH  25  30
ENDBRANCH  10  22
BRANCH   1  32
ATOM     32  C   UNL     1      -2.876   5.481   3.549  0.00  0.00    +0.338 C 
ATOM     33  O   UNL     1      -3.078   6.676   3.449  0.00  0.00    -0.245 OA
BRANCH  32  34
ATOM     34  O   UNL     1      -2.963   4.880   4.754  0.00  0.00    -0.461 OA
BRANCH  34  35
ATOM     35  C   UNL     1      -3.296   5.708   5.870  0.00  0.00    +0.232 C 
BRANCH  35  37
ATOM     36  C   UNL     1      -3.704   5.744   8.334  0.00  0.00    +0.007 C 
ATOM     37  C   UNL     1      -3.347   4.856   7.139  0.00  0.00    +0.038 C 
ENDBRANCH  35  37
ENDBRANCH  34  35
ENDBRANCH  32  34
ENDBRANCH   1  32
TORSDOF 8
