REMARK  Name = ZINC08590242
REMARK  11 active torsions:
REMARK  status: ('A' for Active; 'I' for Inactive)
REMARK    1  A    between atoms: C_1  and  C_2
REMARK    2  A    between atoms: C_2  and  N_3
REMARK    3  A    between atoms: C_9  and  N_29
REMARK    4  A    between atoms: C_10  and  C_11
REMARK    5  A    between atoms: C_11  and  C_13
REMARK    6  A    between atoms: C_11  and  N_14
REMARK    7  A    between atoms: N_17  and  C_18
REMARK    8  A    between atoms: C_21  and  O_26
REMARK    9  A    between atoms: C_23  and  O_24
REMARK   10  A    between atoms: O_24  and  C_25
REMARK   11  A    between atoms: O_26  and  C_27
REMARK                            x       y       z     vdW  Elec       q    Type
REMARK                         _______ _______ _______ _____ _____    ______ ____
ROOT
ATOM      1  C   UNL     1       3.254  -3.864  -4.315  0.00  0.00    +0.104 C 
ATOM      2  C   UNL     1       2.518  -3.993  -5.650  0.00  0.00    +0.033 C 
ENDROOT
BRANCH   1  10
ATOM      3  N   UNL     1      -0.588  -0.695  -2.930  0.00  0.00    +0.383 N 
ATOM      4  C   UNL     1      -0.455  -2.110  -2.561  0.00  0.00    -0.074 C 
ATOM      5  C   UNL     1       0.580  -2.797  -3.456  0.00  0.00    +0.018 C 
ATOM      6  C   UNL     1       1.867  -1.977  -3.405  0.00  0.00    -0.034 A 
ATOM      7  C   UNL     1       1.818  -0.694  -2.950  0.00  0.00    -0.021 A 
ATOM      8  S   UNL     1       3.498  -0.142  -3.059  0.00  0.00    -0.077 S 
ATOM      9  C   UNL     1       4.205  -1.647  -3.713  0.00  0.00    +0.090 A 
ATOM     10  C   UNL     1       3.114  -2.455  -3.798  0.00  0.00    +0.007 A 
ATOM     11  C   UNL     1       0.608   0.044  -2.482  0.00  0.00    -0.035 C 
ATOM     12  H   UNL     1      -0.677  -0.615  -3.932  0.00  0.00    -0.081 HD
BRANCH   9  13
ATOM     13  N   UNL     1       5.535  -1.923  -4.050  0.00  0.00    -0.317 N 
ATOM     14  C   UNL     1       5.960  -2.478  -5.223  0.00  0.00    +0.092 A 
ATOM     15  C   UNL     1       7.304  -2.586  -5.174  0.00  0.00    +0.019 A 
ATOM     16  C   UNL     1       7.724  -2.082  -3.928  0.00  0.00    +0.019 A 
ATOM     17  C   UNL     1       6.623  -1.677  -3.262  0.00  0.00    +0.092 A 
ENDBRANCH   9  13
BRANCH   3  19
ATOM     18  C   UNL     1      -1.990   1.306  -2.767  0.00  0.00    -0.017 C 
ATOM     19  C   UNL     1      -1.782  -0.131  -2.286  0.00  0.00    -0.082 C 
ENDBRANCH   3  19
ENDBRANCH   1  10
BRANCH   1  20
ATOM     20  N   UNL     1       2.677  -4.800  -3.347  0.00  0.00    -0.292 N 
ATOM     21  C   UNL     1       2.855  -6.126  -3.503  0.00  0.00    +0.304 C 
ATOM     22  O   UNL     1       3.495  -6.547  -4.448  0.00  0.00    -0.252 OA
ATOM     23  N   UNL     1       2.324  -6.987  -2.613  0.00  0.00    -0.266 N 
ATOM     24  H   UNL     1       2.167  -4.464  -2.593  0.00  0.00    +0.151 HD
ATOM     25  H   UNL     1       1.864  -6.651  -1.828  0.00  0.00    +0.156 HD
BRANCH  23  26
ATOM     26  C   UNL     1       2.437  -8.371  -2.821  0.00  0.00    +0.078 A 
ATOM     27  C   UNL     1       3.508  -8.880  -3.540  0.00  0.00    +0.050 A 
ATOM     28  C   UNL     1       3.618 -10.242  -3.746  0.00  0.00    +0.084 A 
ATOM     29  C   UNL     1       2.658 -11.104  -3.233  0.00  0.00    +0.142 A 
ATOM     30  C   UNL     1       1.586 -10.599  -2.513  0.00  0.00    +0.094 A 
ATOM     31  C   UNL     1       1.476  -9.234  -2.300  0.00  0.00    +0.145 A 
ATOM     32 CL   UNL     1       4.959 -10.877  -4.647  0.00  0.00    -0.080 Cl
BRANCH  31  33
ATOM     33  O   UNL     1       0.428  -8.738  -1.590  0.00  0.00    -0.493 OA
ATOM     34  C   UNL     1      -0.519  -9.682  -1.086  0.00  0.00    +0.277 C 
ENDBRANCH  31  33
BRANCH  29  35
ATOM     35  O   UNL     1       2.769 -12.444  -3.437  0.00  0.00    -0.494 OA
ATOM     36  C   UNL     1       1.745 -13.271  -2.881  0.00  0.00    +0.277 C 
ENDBRANCH  29  35
ENDBRANCH  23  26
ENDBRANCH   1  20
TORSDOF 7
