REMARK  Name = ZINC38487719
REMARK  4 active torsions:
REMARK  status: ('A' for Active; 'I' for Inactive)
REMARK    1  A    between atoms: C_5  and  C_7
REMARK    2  A    between atoms: C_7  and  N_8
REMARK    3  A    between atoms: C_14  and  C_21
REMARK    4  A    between atoms: C_23  and  C_26
REMARK                            x       y       z     vdW  Elec       q    Type
REMARK                         _______ _______ _______ _____ _____    ______ ____
ROOT
ATOM      1  N   UNL     1       1.488  -2.679   1.333  0.00  0.00    -0.256 N 
ATOM      2  C   UNL     1       2.762  -2.880   1.732  0.00  0.00    +0.265 A 
ATOM      3  O   UNL     1       3.693  -2.657   0.981  0.00  0.00    -0.267 OA
ATOM      4  C   UNL     1       2.997  -3.376   3.100  0.00  0.00    +0.063 A 
ATOM      5  C   UNL     1       4.284  -3.606   3.583  0.00  0.00    +0.016 A 
ATOM      6  C   UNL     1       4.460  -4.066   4.857  0.00  0.00    +0.014 A 
ATOM      7  C   UNL     1       3.357  -4.307   5.682  0.00  0.00    +0.041 A 
ATOM      8  C   UNL     1       2.064  -4.080   5.212  0.00  0.00    +0.039 A 
ATOM      9  C   UNL     1       1.880  -3.615   3.921  0.00  0.00    +0.056 A 
ATOM     10  N   UNL     1       0.612  -3.374   3.410  0.00  0.00    -0.307 N 
ATOM     11  H   UNL     1      -0.167  -3.534   3.964  0.00  0.00    +0.170 HD
ATOM     12  C   UNL     1       0.454  -2.917   2.156  0.00  0.00    +0.330 A 
ATOM     13  O   UNL     1      -0.673  -2.715   1.748  0.00  0.00    -0.246 OA
ENDROOT
BRANCH   7  14
ATOM     14  C   UNL     1       3.562  -4.804   7.060  0.00  0.00    +0.259 A 
ATOM     15  N   UNL     1       4.721  -5.053   7.623  0.00  0.00    -0.187 NA
ATOM     16  C   UNL     1       4.535  -5.490   8.878  0.00  0.00    +0.202 A 
ATOM     17  N   UNL     1       3.249  -5.526   9.128  0.00  0.00    -0.056 NA
ATOM     18  O   UNL     1       2.594  -5.075   7.952  0.00  0.00    -0.332 OA
BRANCH  16  19
ATOM     19  C   UNL     1       5.610  -5.872   9.827  0.00  0.00    +0.023 A 
ATOM     20  C   UNL     1       6.946  -5.785   9.442  0.00  0.00    +0.013 A 
ATOM     21  C   UNL     1       7.942  -6.141  10.328  0.00  0.00    +0.016 A 
ATOM     22  C   UNL     1       7.616  -6.584  11.598  0.00  0.00    +0.018 A 
ATOM     23  C   UNL     1       6.290  -6.673  11.986  0.00  0.00    +0.016 A 
ATOM     24  C   UNL     1       5.287  -6.314  11.109  0.00  0.00    +0.013 A 
ATOM     25 BR   UNL     1       8.986  -7.070  12.808  0.00  0.00    -0.050 Br
ENDBRANCH  16  19
ENDBRANCH   7  14
BRANCH   1  26
ATOM     26  C   UNL     1       1.228  -2.186  -0.022  0.00  0.00    +0.168 C 
BRANCH  26  31
ATOM     27  C   UNL     1      -0.017   1.378   0.010  0.00  0.00    +0.000 A 
ATOM     28  C   UNL     1       1.171   2.087   0.002  0.00  0.00    +0.003 A 
ATOM     29  C   UNL     1       2.377   1.414  -0.013  0.00  0.00    +0.039 A 
ATOM     30  C   UNL     1       2.397   0.029  -0.021  0.00  0.00    +0.128 A 
ATOM     31  C   UNL     1       1.208  -0.679  -0.013  0.00  0.00    +0.008 A 
ATOM     32  C   UNL     1       0.002  -0.004   0.002  0.00  0.00    +0.008 A 
ATOM     33  F   UNL     1       3.577  -0.630  -0.036  0.00  0.00    -0.205 F 
ENDBRANCH  26  31
ENDBRANCH   1  26
TORSDOF 4
