REMARK  Name = ZINC08583716
REMARK  5 active torsions:
REMARK  status: ('A' for Active; 'I' for Inactive)
REMARK    1  A    between atoms: C_1  and  C_2
REMARK    2  A    between atoms: C_5  and  N_9
REMARK    3  A    between atoms: C_10  and  C_12
REMARK    4  A    between atoms: N_15  and  S_18
REMARK    5  A    between atoms: S_18  and  C_21
REMARK                            x       y       z     vdW  Elec       q    Type
REMARK                         _______ _______ _______ _____ _____    ______ ____
ROOT
ATOM      1  C   UNL     1      -0.136  -6.343  -1.190  0.00  0.00    +0.078 C 
ATOM      2  C   UNL     1      -1.377  -6.777  -0.407  0.00  0.00    +0.030 C 
ATOM      3  C   UNL     1      -1.451  -8.307  -0.381  0.00  0.00    +0.110 C 
ATOM      4  N   UNL     1      -1.403  -8.806  -1.762  0.00  0.00    -0.177 NA
ATOM      5  C   UNL     1      -0.299  -8.377  -2.630  0.00  0.00    +0.110 C 
ATOM      6  C   UNL     1      -0.238  -6.847  -2.631  0.00  0.00    +0.030 C 
ENDROOT
BRANCH   1   8
ATOM      7  N   UNL     1       0.057  -4.171  -0.023  0.00  0.00    -0.284 N 
ATOM      8  C   UNL     1      -0.042  -4.839  -1.189  0.00  0.00    +0.220 C 
ATOM      9  O   UNL     1      -0.055  -4.230  -2.238  0.00  0.00    -0.275 OA
ATOM     10  H   UNL     1       0.149  -4.660   0.810  0.00  0.00    +0.155 HD
BRANCH   7  15
ATOM     11  C   UNL     1      -0.064   1.502   0.016  0.00  0.00    +0.044 C 
ATOM     12  C   UNL     1      -0.031  -0.005   0.006  0.00  0.00    -0.049 A 
ATOM     13  C   UNL     1      -0.622  -0.701  -1.033  0.00  0.00    +0.005 A 
ATOM     14  C   UNL     1      -0.594  -2.081  -1.045  0.00  0.00    +0.024 A 
ATOM     15  C   UNL     1       0.028  -2.771  -0.013  0.00  0.00    +0.047 A 
ATOM     16  C   UNL     1       0.621  -2.070   1.029  0.00  0.00    +0.039 A 
ATOM     17  C   UNL     1       0.595  -0.688   1.032  0.00  0.00    +0.020 A 
ATOM     18 BR   UNL     1       1.470  -3.004   2.437  0.00  0.00    -0.048 Br
ENDBRANCH   7  15
ENDBRANCH   1   8
BRANCH   4  19
ATOM     19  S   UNL     1      -2.572  -9.834  -2.328  0.00  0.00    +0.061 S 
ATOM     20  O   UNL     1      -1.993 -10.552  -3.408  0.00  0.00    -0.153 OA
ATOM     21  O   UNL     1      -3.127 -10.483  -1.192  0.00  0.00    -0.153 OA
BRANCH  19  22
ATOM     22  C   UNL     1      -3.853  -8.838  -3.015  0.00  0.00    +0.106 A 
ATOM     23  C   UNL     1      -4.901  -8.405  -2.222  0.00  0.00    +0.030 A 
ATOM     24  C   UNL     1      -5.889  -7.626  -2.772  0.00  0.00    +0.025 A 
ATOM     25  C   UNL     1      -5.865  -7.259  -4.129  0.00  0.00    +0.037 A 
ATOM     26  C   UNL     1      -4.820  -7.696  -4.915  0.00  0.00    -0.024 A 
ATOM     27  C   UNL     1      -3.816  -8.478  -4.342  0.00  0.00    +0.034 A 
ATOM     28  C   UNL     1      -4.658  -7.405  -6.371  0.00  0.00    +0.037 C 
ATOM     29  C   UNL     1      -5.923  -7.350  -7.169  0.00  0.00    +0.014 C 
ATOM     30  C   UNL     1      -6.692  -6.063  -6.989  0.00  0.00    +0.096 C 
ATOM     31  C   UNL     1      -7.361  -5.998  -5.663  0.00  0.00    +0.217 C 
ATOM     32  O   UNL     1      -8.444  -5.452  -5.631  0.00  0.00    -0.275 OA
ATOM     33  N   UNL     1      -6.912  -6.463  -4.532  0.00  0.00    -0.285 N 
ATOM     34  H   UNL     1      -7.456  -6.175  -3.782  0.00  0.00    +0.155 HD
ENDBRANCH  19  22
ENDBRANCH   4  19
TORSDOF 4
