REMARK  Name = ZINC01582069
REMARK  5 active torsions:
REMARK  status: ('A' for Active; 'I' for Inactive)
REMARK    1  A    between atoms: N_7  and  C_19
REMARK    2  A    between atoms: C_10  and  C_15
REMARK    3  A    between atoms: C_19  and  C_20
REMARK    4  A    between atoms: C_20  and  C_21
REMARK    5  A    between atoms: C_21  and  N_47
REMARK                            x       y       z     vdW  Elec       q    Type
REMARK                         _______ _______ _______ _____ _____    ______ ____
ROOT
ATOM      1  C   UNL     1       1.107  -0.750  -0.298  0.00  0.00    +0.002 A 
ATOM      2  C   UNL     1       2.323  -0.093  -0.306  0.00  0.00    +0.001 A 
ATOM      3  C   UNL     1       2.363   1.286  -0.208  0.00  0.00    +0.017 A 
ATOM      4  C   UNL     1       1.185   2.011  -0.102  0.00  0.00    +0.034 A 
ATOM      5  C   UNL     1      -0.042   1.353  -0.088  0.00  0.00    +0.048 A 
ATOM      6  C   UNL     1      -0.070  -0.035  -0.190  0.00  0.00    +0.024 A 
ATOM      7  N   UNL     1      -1.245   2.042   0.032  0.00  0.00    -0.298 N 
ATOM      8  C   UNL     1      -1.439   3.373  -0.328  0.00  0.00    +0.048 A 
ATOM      9  C   UNL     1      -2.724   3.804  -0.641  0.00  0.00    +0.037 A 
ATOM     10  C   UNL     1      -2.953   5.121  -0.991  0.00  0.00    +0.057 A 
ATOM     11  C   UNL     1      -1.906   6.022  -1.033  0.00  0.00    +0.013 A 
ATOM     12  C   UNL     1      -0.624   5.604  -0.726  0.00  0.00    +0.017 A 
ATOM     13  C   UNL     1      -0.386   4.283  -0.375  0.00  0.00    +0.034 A 
ATOM     14  S   UNL     1       1.254   3.768   0.008  0.00  0.00    -0.086 S 
ENDROOT
BRANCH  10  15
ATOM     15  C   UNL     1      -4.350   5.576  -1.327  0.00  0.00    +0.417 C 
ATOM     16  F   UNL     1      -4.990   6.018  -0.164  0.00  0.00    -0.166 F 
ATOM     17  F   UNL     1      -4.288   6.624  -2.252  0.00  0.00    -0.166 F 
ATOM     18  F   UNL     1      -5.068   4.510  -1.879  0.00  0.00    -0.166 F 
ENDBRANCH  10  15
BRANCH   7  19
ATOM     19  C   UNL     1      -2.393   1.313   0.577  0.00  0.00    +0.109 C 
BRANCH  19  20
ATOM     20  C   UNL     1      -3.163   0.647  -0.565  0.00  0.00    +0.001 C 
BRANCH  20  21
ATOM     21  C   UNL     1      -4.362  -0.115   0.004  0.00  0.00    -0.076 C 
BRANCH  21  30
ATOM     22  C   UNL     1      -4.186  -1.454  -2.007  0.00  0.00    +0.020 C 
ATOM     23  C   UNL     1      -4.982  -2.084  -3.120  0.00  0.00    +0.203 C 
ATOM     24  O   UNL     1      -4.473  -2.242  -4.208  0.00  0.00    -0.277 OA
ATOM     25  N   UNL     1      -6.253  -2.475  -2.917  0.00  0.00    -0.259 N 
ATOM     26  C   UNL     1      -6.855  -2.309  -1.727  0.00  0.00    +0.203 C 
ATOM     27  O   UNL     1      -8.004  -2.664  -1.580  0.00  0.00    -0.277 OA
ATOM     28  C   UNL     1      -6.114  -1.685  -0.572  0.00  0.00    +0.020 C 
ATOM     29  H   UNL     1      -6.746  -2.885  -3.646  0.00  0.00    +0.157 HD
ATOM     30  N   UNL     1      -5.114  -0.739  -1.107  0.00  0.00    +0.391 N 
ATOM     31  H   UNL     1      -5.597  -0.005  -1.637  0.00  0.00    -0.080 HD
ENDBRANCH  21  30
ENDBRANCH  20  21
ENDBRANCH  19  20
ENDBRANCH   7  19
TORSDOF 5
