REMARK  Name = ZINC21755451
REMARK  9 active torsions:
REMARK  status: ('A' for Active; 'I' for Inactive)
REMARK    1  A    between atoms: C_1  and  N_2
REMARK    2  A    between atoms: N_2  and  C_3
REMARK    3  A    between atoms: N_2  and  C_4
REMARK    4  A    between atoms: C_7  and  C_10
REMARK    5  A    between atoms: C_10  and  C_12
REMARK    6  A    between atoms: C_10  and  N_27
REMARK    7  A    between atoms: C_12  and  N_13
REMARK    8  A    between atoms: N_13  and  S_14
REMARK    9  A    between atoms: S_14  and  C_17
REMARK                            x       y       z     vdW  Elec       q    Type
REMARK                         _______ _______ _______ _____ _____    ______ ____
ROOT
ATOM      1  C   UNL     1      -2.714   6.373   3.520  0.00  0.00    -0.021 C 
ENDROOT
BRANCH   1   2
ATOM      2  N   UNL     1      -3.018   5.690   4.785  0.00  0.00    +0.388 N 
ATOM      3  C   UNL     1      -2.912   6.617   5.923  0.00  0.00    -0.073 C 
ATOM      4  C   UNL     1      -3.581   5.973   7.137  0.00  0.00    +0.017 C 
ATOM      5  C   UNL     1      -3.055   4.574   7.332  0.00  0.00    -0.048 A 
ATOM      6  C   UNL     1      -3.259   3.955   8.556  0.00  0.00    +0.004 A 
ATOM      7  C   UNL     1      -2.801   2.671   8.774  0.00  0.00    +0.000 A 
ATOM      8  C   UNL     1      -2.135   1.999   7.766  0.00  0.00    +0.000 A 
ATOM      9  C   UNL     1      -1.928   2.615   6.548  0.00  0.00    +0.002 A 
ATOM     10  C   UNL     1      -2.387   3.906   6.328  0.00  0.00    -0.061 A 
ATOM     11  C   UNL     1      -2.134   4.537   4.985  0.00  0.00    -0.042 C 
ATOM     12  H   UNL     1      -4.053   5.324   4.726  0.00  0.00    -0.080 HD
ENDBRANCH   1   2
BRANCH   1  16
ATOM     13  C   UNL     1       0.392   9.239   4.158  0.00  0.00    +0.029 A 
ATOM     14  C   UNL     1      -0.899   9.664   3.870  0.00  0.00    +0.023 A 
ATOM     15  C   UNL     1      -1.900   8.735   3.665  0.00  0.00    +0.004 A 
ATOM     16  C   UNL     1      -1.619   7.383   3.745  0.00  0.00    -0.060 A 
ATOM     17  C   UNL     1      -0.336   6.957   4.036  0.00  0.00    +0.004 A 
ATOM     18  C   UNL     1       0.671   7.881   4.237  0.00  0.00    +0.023 A 
BRANCH  13  20
ATOM     19  C   UNL     1       1.097  11.607   4.350  0.00  0.00    +0.129 C 
ATOM     20  N   UNL     1       1.407  10.176   4.367  0.00  0.00    -0.336 N 
ATOM     21  C   UNL     1       2.781   9.726   4.602  0.00  0.00    +0.129 C 
ENDBRANCH  13  20
ENDBRANCH   1  16
BRANCH   1  22
ATOM     22  C   UNL     1      -2.255   5.346   2.483  0.00  0.00    +0.095 C 
BRANCH  22  23
ATOM     23  N   UNL     1      -3.269   4.297   2.352  0.00  0.00    -0.191 NA
ATOM     24  H   UNL     1      -3.889   4.020   3.217  0.00  0.00    +0.148 HD
BRANCH  23  25
ATOM     25  S   UNL     1      -3.320   3.360   0.988  0.00  0.00    +0.059 S 
ATOM     26  O   UNL     1      -3.369   4.253  -0.117  0.00  0.00    -0.153 OA
ATOM     27  O   UNL     1      -4.315   2.370   1.212  0.00  0.00    -0.153 OA
BRANCH  25  28
ATOM     28  C   UNL     1      -1.780   2.511   0.881  0.00  0.00    +0.113 A 
ATOM     29  C   UNL     1      -0.901   2.810  -0.115  0.00  0.00    +0.029 A 
ATOM     30  C   UNL     1       0.319   2.145  -0.218  0.00  0.00    +0.003 A 
ATOM     31  C   UNL     1       0.673   1.186   0.681  0.00  0.00    +0.008 A 
ATOM     32  C   UNL     1      -0.206   0.854   1.726  0.00  0.00    -0.016 A 
ATOM     33  C   UNL     1      -1.450   1.526   1.828  0.00  0.00    +0.008 A 
ATOM     34  C   UNL     1      -2.328   1.195   2.873  0.00  0.00    +0.010 A 
ATOM     35  C   UNL     1      -1.974   0.236   3.772  0.00  0.00    +0.001 A 
ATOM     36  C   UNL     1      -0.751  -0.425   3.672  0.00  0.00    +0.001 A 
ATOM     37  C   UNL     1       0.125  -0.130   2.673  0.00  0.00    +0.008 A 
ENDBRANCH  25  28
ENDBRANCH  23  25
ENDBRANCH  22  23
ENDBRANCH   1  22
TORSDOF 7
