REMARK  Name = ZINC38963764
REMARK  7 active torsions:
REMARK  status: ('A' for Active; 'I' for Inactive)
REMARK    1  A    between atoms: C_1  and  O_2
REMARK    2  A    between atoms: O_2  and  C_3
REMARK    3  A    between atoms: C_6  and  O_34
REMARK    4  A    between atoms: C_7  and  N_9
REMARK    5  A    between atoms: C_10  and  S_33
REMARK    6  A    between atoms: C_14  and  C_17
REMARK    7  A    between atoms: O_34  and  C_35
REMARK                            x       y       z     vdW  Elec       q    Type
REMARK                         _______ _______ _______ _____ _____    ______ ____
ROOT
ATOM      1  N   UNL     1      -2.539  -4.084  -0.011  0.00  0.00    -0.239 N 
ATOM      2  C   UNL     1      -2.564  -4.788  -1.283  0.00  0.00    +0.225 C 
ATOM      3  N   UNL     1      -2.143  -6.174  -1.151  0.00  0.00    -0.288 N 
ATOM      4  C   UNL     1      -2.160  -6.840   0.008  0.00  0.00    +0.229 C 
ATOM      5  C   UNL     1      -2.604  -6.201   1.291  0.00  0.00    +0.184 C 
ATOM      6  C   UNL     1      -2.559  -4.705   1.173  0.00  0.00    +0.236 C 
ATOM      7  O   UNL     1      -2.545  -4.037   2.186  0.00  0.00    -0.274 OA
ATOM      8  O   UNL     1      -1.805  -8.000   0.022  0.00  0.00    -0.275 OA
ATOM      9  H   UNL     1      -1.835  -6.639  -1.945  0.00  0.00    +0.151 HD
ENDROOT
BRANCH   5  10
ATOM     10  C   UNL     1      -4.033  -6.645   1.610  0.00  0.00    +0.122 C 
ATOM     11  C   UNL     1      -4.444  -6.104   2.959  0.00  0.00    +0.039 A 
ATOM     12  H   UNL     1      -2.792  -6.425   4.188  0.00  0.00    +0.166 HD
ATOM     13  C   UNL     1      -5.656  -5.553   3.194  0.00  0.00    -0.016 A 
ATOM     14  C   UNL     1      -5.682  -5.153   4.583  0.00  0.00    +0.003 A 
ATOM     15  C   UNL     1      -6.656  -4.540   5.378  0.00  0.00    +0.010 A 
ATOM     16  C   UNL     1      -6.328  -4.304   6.690  0.00  0.00    +0.001 A 
ATOM     17  C   UNL     1      -5.094  -4.652   7.215  0.00  0.00    +0.002 A 
ATOM     18  C   UNL     1      -4.112  -5.260   6.451  0.00  0.00    +0.026 A 
ATOM     19  C   UNL     1      -4.416  -5.512   5.116  0.00  0.00    +0.047 A 
ATOM     20  N   UNL     1      -3.697  -6.084   4.105  0.00  0.00    -0.356 N 
ATOM     21  C   UNL     1      -6.728  -5.421   2.141  0.00  0.00    +0.052 C 
ATOM     22  C   UNL     1      -6.357  -6.341   0.970  0.00  0.00    +0.086 C 
ATOM     23  N   UNL     1      -4.954  -6.117   0.591  0.00  0.00    -0.307 NA
ATOM     24  H   UNL     1      -4.780  -5.138   0.418  0.00  0.00    +0.123 HD
ENDBRANCH   5  10
BRANCH   1  29
ATOM     25  C   UNL     1      -1.211  -0.650  -0.053  0.00  0.00    +0.122 A 
ATOM     26  C   UNL     1      -2.386   0.087  -0.057  0.00  0.00    +0.049 A 
ATOM     27  C   UNL     1      -3.609  -0.557  -0.046  0.00  0.00    +0.051 A 
ATOM     28  C   UNL     1      -3.664  -1.941  -0.031  0.00  0.00    +0.142 A 
ATOM     29  C   UNL     1      -2.486  -2.684  -0.026  0.00  0.00    +0.084 A 
ATOM     30  C   UNL     1      -1.260  -2.035  -0.043  0.00  0.00    +0.073 A 
BRANCH  25  32
ATOM     31  C   UNL     1      -0.033   1.416  -0.073  0.00  0.00    +0.277 C 
ATOM     32  O   UNL     1      -0.010  -0.013  -0.064  0.00  0.00    -0.495 OA
ENDBRANCH  25  32
BRANCH  28  33
ATOM     33  O   UNL     1      -4.869  -2.575  -0.019  0.00  0.00    -0.493 OA
ATOM     34  C   UNL     1      -6.035  -1.750  -0.024  0.00  0.00    +0.277 C 
ENDBRANCH  28  33
ENDBRANCH   1  29
BRANCH   2  35
ATOM     35  S   UNL     1      -4.252  -4.748  -1.946  0.00  0.00    -0.136 S 
ATOM     36  H   UNL     1      -4.162  -5.419  -3.108  0.00  0.00    +0.105 HD
ENDBRANCH   2  35
TORSDOF 5
