REMARK  Name = ZINC03384378
REMARK  15 active torsions:
REMARK  status: ('A' for Active; 'I' for Inactive)
REMARK    1  A    between atoms: C_1  and  C_2
REMARK    2  A    between atoms: C_2  and  C_3
REMARK    3  A    between atoms: C_2  and  C_4
REMARK    4  A    between atoms: C_2  and  C_10
REMARK    5  A    between atoms: C_13  and  O_16
REMARK    6  A    between atoms: O_16  and  C_17
REMARK    7  A    between atoms: C_17  and  C_18
REMARK    8  A    between atoms: C_18  and  C_20
REMARK    9  A    between atoms: C_18  and  O_41
REMARK   10  A    between atoms: C_20  and  N_74
REMARK   11  A    between atoms: C_21  and  C_23
REMARK   12  A    between atoms: C_21  and  C_30
REMARK   13  A    between atoms: C_21  and  N_74
REMARK   14  A    between atoms: C_23  and  C_24
REMARK   15  A    between atoms: C_32  and  C_35
REMARK                            x       y       z     vdW  Elec       q    Type
REMARK                         _______ _______ _______ _____ _____    ______ ____
ROOT
ATOM      1  N   UNL     1       7.933   9.732  -0.293  0.00  0.00    +0.389 N 
ATOM      2  H   UNL     1       8.330   9.776  -1.239  0.00  0.00    -0.085 HD
ATOM      3  H   UNL     1       8.646   9.389   0.362  0.00  0.00    -0.085 HD
ENDROOT
BRANCH   1   4
ATOM      4  C   UNL     1       6.785   8.806  -0.290  0.00  0.00    -0.046 C 
BRANCH   4   5
ATOM      5  C   UNL     1       7.282   7.390  -0.592  0.00  0.00    +0.135 C 
BRANCH   5   6
ATOM      6  O   UNL     1       7.913   7.370  -1.874  0.00  0.00    -0.390 OA
ATOM      7  H   UNL     1       7.332   7.630  -2.602  0.00  0.00    +0.210 HD
ENDBRANCH   5   6
BRANCH   5   8
ATOM      8  C   UNL     1       6.097   6.423  -0.591  0.00  0.00    +0.258 C 
BRANCH   8   9
ATOM      9  O   UNL     1       6.573   5.086  -0.757  0.00  0.00    -0.489 OA
BRANCH   9  13
ATOM     10  C   UNL     1       3.744   2.084  -0.821  0.00  0.00    -0.037 A 
ATOM     11  C   UNL     1       3.350   3.400  -0.669  0.00  0.00    +0.008 A 
ATOM     12  C   UNL     1       4.296   4.407  -0.642  0.00  0.00    +0.046 A 
ATOM     13  C   UNL     1       5.641   4.097  -0.778  0.00  0.00    +0.121 A 
ATOM     14  C   UNL     1       6.034   2.776  -0.936  0.00  0.00    +0.046 A 
ATOM     15  C   UNL     1       5.085   1.772  -0.957  0.00  0.00    +0.008 A 
BRANCH  10  17
ATOM     16  C   UNL     1       3.385  -0.342  -1.189  0.00  0.00    +0.021 C 
ATOM     17  C   UNL     1       2.711   0.987  -0.844  0.00  0.00    +0.015 C 
ATOM     18  C   UNL     1       1.649   1.309  -1.898  0.00  0.00    +0.021 C 
BRANCH  17  19
ATOM     19  C   UNL     1       2.059   0.883   0.510  0.00  0.00    -0.037 A 
ATOM     20  C   UNL     1       0.997   0.019   0.701  0.00  0.00    +0.004 A 
ATOM     21  C   UNL     1       0.395  -0.073   1.942  0.00  0.00    +0.000 A 
ATOM     22  C   UNL     1       0.862   0.691   2.995  0.00  0.00    +0.000 A 
ATOM     23  C   UNL     1       1.924   1.556   2.804  0.00  0.00    +0.000 A 
ATOM     24  C   UNL     1       2.522   1.651   1.562  0.00  0.00    +0.004 A 
ENDBRANCH  17  19
ENDBRANCH  10  17
ENDBRANCH   9  13
ENDBRANCH   8   9
ENDBRANCH   5   8
ENDBRANCH   4   5
ENDBRANCH   1   4
BRANCH   1  25
ATOM     25  C   UNL     1       7.503  11.082   0.118  0.00  0.00    +0.023 C 
BRANCH  25  26
ATOM     26  C   UNL     1       7.024  11.846  -1.089  0.00  0.00    +0.214 A 
ATOM     27  N   UNL     1       5.943  12.581  -1.166  0.00  0.00    -0.193 NA
ATOM     28  C   UNL     1       5.923  13.067  -2.428  0.00  0.00    +0.202 A 
ATOM     29  N   UNL     1       6.983  12.603  -3.037  0.00  0.00    -0.056 NA
ATOM     30  O   UNL     1       7.626  11.906  -2.281  0.00  0.00    -0.339 OA
BRANCH  28  31
ATOM     31  C   UNL     1       4.891  13.960  -3.011  0.00  0.00    +0.022 A 
ATOM     32  C   UNL     1       3.806  14.372  -2.241  0.00  0.00    +0.012 A 
ATOM     33  C   UNL     1       2.852  15.206  -2.787  0.00  0.00    +0.001 A 
ATOM     34  C   UNL     1       2.966  15.624  -4.101  0.00  0.00    +0.000 A 
ATOM     35  C   UNL     1       4.038  15.214  -4.872  0.00  0.00    +0.001 A 
ATOM     36  C   UNL     1       5.001  14.384  -4.334  0.00  0.00    +0.012 A 
ENDBRANCH  28  31
ENDBRANCH  25  26
BRANCH  25  37
ATOM     37  C   UNL     1       8.688  11.816   0.749  0.00  0.00    +0.029 C 
BRANCH  37  38
ATOM     38  C   UNL     1       9.085  11.123   2.027  0.00  0.00    -0.048 A 
ATOM     39  C   UNL     1       8.437  11.428   3.209  0.00  0.00    +0.003 A 
ATOM     40  C   UNL     1       8.798  10.789   4.381  0.00  0.00    +0.000 A 
ATOM     41  C   UNL     1       9.814   9.851   4.372  0.00  0.00    +0.000 A 
ATOM     42  C   UNL     1      10.466   9.550   3.191  0.00  0.00    +0.000 A 
ATOM     43  C   UNL     1      10.101  10.185   2.018  0.00  0.00    +0.003 A 
ENDBRANCH  37  38
ENDBRANCH  25  37
ENDBRANCH   1  25
TORSDOF 13
