REMARK  Name = ZINC13361654
REMARK  5 active torsions:
REMARK  status: ('A' for Active; 'I' for Inactive)
REMARK    1  A    between atoms: C_1  and  C_2
REMARK    2  A    between atoms: C_2  and  N_46
REMARK    3  A    between atoms: C_5  and  C_27
REMARK    4  A    between atoms: C_15  and  C_16
REMARK    5  A    between atoms: C_20  and  N_22
REMARK                            x       y       z     vdW  Elec       q    Type
REMARK                         _______ _______ _______ _____ _____    ______ ____
ROOT
ATOM      1  C   UNL     1      -2.082   1.472  -1.368  0.00  0.00    -0.040 C 
ATOM      2  C   UNL     1      -2.860   1.482  -0.082  0.00  0.00    -0.024 A 
ATOM      3  C   UNL     1      -4.243   1.372  -0.119  0.00  0.00    +0.076 A 
ATOM      4  C   UNL     1      -4.956   1.383   1.159  0.00  0.00    +0.015 A 
ATOM      5  C   UNL     1      -6.349   1.277   1.219  0.00  0.00    +0.011 A 
ATOM      6  C   UNL     1      -6.975   1.291   2.431  0.00  0.00    +0.001 A 
ATOM      7  C   UNL     1      -6.243   1.408   3.610  0.00  0.00    +0.002 A 
ATOM      8  C   UNL     1      -4.886   1.512   3.588  0.00  0.00    +0.028 A 
ATOM      9  C   UNL     1      -4.205   1.502   2.356  0.00  0.00    +0.072 A 
ATOM     10  N   UNL     1      -2.878   1.604   2.303  0.00  0.00    -0.247 NA
ATOM     11  C   UNL     1      -2.212   1.600   1.163  0.00  0.00    +0.068 A 
ATOM     12  C   UNL     1      -0.735   1.727   1.183  0.00  0.00    -0.038 C 
ATOM     13  C   UNL     1      -0.073   2.068   2.302  0.00  0.00    +0.011 C 
ATOM     14  C   UNL     1      -0.004   1.456  -0.117  0.00  0.00    -0.040 C 
ATOM     15  N   UNL     1      -0.773   2.129  -1.192  0.00  0.00    +0.385 N 
ATOM     16  H   UNL     1      -0.926   3.109  -0.929  0.00  0.00    -0.081 HD
ENDROOT
BRANCH  13  17
ATOM     17  C   UNL     1       1.399   2.022   2.330  0.00  0.00    -0.023 A 
ATOM     18  C   UNL     1       2.086   1.061   1.583  0.00  0.00    +0.009 A 
ATOM     19  C   UNL     1       3.464   1.027   1.609  0.00  0.00    +0.018 A 
ATOM     20  C   UNL     1       4.167   1.935   2.384  0.00  0.00    +0.048 A 
ATOM     21  C   UNL     1       3.493   2.886   3.131  0.00  0.00    +0.141 A 
ATOM     22  C   UNL     1       2.115   2.935   3.109  0.00  0.00    +0.041 A 
ATOM     23 BR   UNL     1       6.057   1.875   2.420  0.00  0.00    -0.048 Br
BRANCH  21  24
ATOM     24  N   UNL     1       4.254   3.852   3.954  0.00  0.00    +0.058 N 
ATOM     25  O   UNL     1       3.662   4.690   4.612  0.00  0.00    -0.126 OA
ATOM     26  O   UNL     1       5.471   3.810   3.975  0.00  0.00    -0.126 OA
ENDBRANCH  21  24
ENDBRANCH  13  17
BRANCH   3  27
ATOM     27  C   UNL     1      -4.968   1.250  -1.401  0.00  0.00    +0.387 C 
ATOM     28  O   UNL     1      -5.184   0.153  -1.874  0.00  0.00    -0.241 OA
ATOM     29  O   UNL     1      -5.389   2.356  -2.045  0.00  0.00    -0.241 OA
ENDBRANCH   3  27
BRANCH  15  31
ATOM     30  C   UNL     1       0.153   0.642  -2.938  0.00  0.00    -0.017 C 
ATOM     31  C   UNL     1      -0.013   2.085  -2.458  0.00  0.00    -0.081 C 
ENDBRANCH  15  31
TORSDOF 4
