REMARK  Name = ZINC19496112
REMARK  6 active torsions:
REMARK  status: ('A' for Active; 'I' for Inactive)
REMARK    1  A    between atoms: C_1  and  C_2
REMARK    2  A    between atoms: N_11  and  C_15
REMARK    3  A    between atoms: C_15  and  C_16
REMARK    4  A    between atoms: N_18  and  C_19
REMARK    5  A    between atoms: C_19  and  C_21
REMARK    6  A    between atoms: C_19  and  C_22
REMARK                            x       y       z     vdW  Elec       q    Type
REMARK                         _______ _______ _______ _____ _____    ______ ____
ROOT
ATOM      1  C   UNL     1       2.909   1.446  -1.438  0.00  0.00    +0.232 C 
ATOM      2  O   UNL     1       2.150   1.691  -2.351  0.00  0.00    -0.274 OA
ATOM      3  N   UNL     1       4.168   1.042  -1.697  0.00  0.00    -0.304 N 
ATOM      4  H   UNL     1       4.856   0.820  -0.868  0.00  0.00    +0.149 HD
ENDROOT
BRANCH   3   5
ATOM      5  C   UNL     1       4.621   0.900  -3.083  0.00  0.00    +0.136 C 
ATOM      6  C   UNL     1       5.104   2.255  -3.604  0.00  0.00    +0.036 C 
BRANCH   5   7
ATOM      7  C   UNL     1       5.753  -0.093  -3.143  0.00  0.00    +0.126 A 
ATOM      8  C   UNL     1       5.917  -1.013  -4.103  0.00  0.00    +0.055 A 
ATOM      9  C   UNL     1       7.138  -1.751  -3.759  0.00  0.00    +0.022 A 
ATOM     10  C   UNL     1       7.835  -2.808  -4.343  0.00  0.00    +0.031 A 
ATOM     11  C   UNL     1       8.983  -3.279  -3.744  0.00  0.00    +0.042 A 
ATOM     12  C   UNL     1       9.444  -2.705  -2.567  0.00  0.00    +0.023 A 
ATOM     13  C   UNL     1       8.764  -1.660  -1.980  0.00  0.00    +0.048 A 
ATOM     14  C   UNL     1       7.604  -1.171  -2.568  0.00  0.00    +0.135 A 
ATOM     15  O   UNL     1       6.747  -0.182  -2.242  0.00  0.00    -0.458 OA
ATOM     16 CL   UNL     1       9.857  -4.595  -4.465  0.00  0.00    -0.084 Cl
ENDBRANCH   5   7
ENDBRANCH   3   5
BRANCH   1  17
ATOM     17  C   UNL     1       2.443   1.592  -0.012  0.00  0.00    +0.213 C 
BRANCH  17  27
ATOM     18  C   UNL     1      -1.220   2.162  -2.475  0.00  0.00    +0.010 C 
ATOM     19  C   UNL     1      -2.069   1.879  -1.234  0.00  0.00    +0.018 C 
ATOM     20  C   UNL     1      -3.279   2.817  -1.219  0.00  0.00    +0.006 C 
ATOM     21  C   UNL     1      -4.116   2.547   0.033  0.00  0.00    +0.000 C 
ATOM     22  C   UNL     1      -3.268   2.804   1.280  0.00  0.00    +0.003 C 
ATOM     23  C   UNL     1      -2.058   1.866   1.276  0.00  0.00    +0.035 C 
ATOM     24  C   UNL     1      -1.230   2.107   0.018  0.00  0.00    +0.115 C 
ATOM     25  C   UNL     1      -0.014   1.208   0.009  0.00  0.00    +0.247 C 
ATOM     26  O   UNL     1       0.002  -0.004   0.002  0.00  0.00    -0.273 OA
ATOM     27  N   UNL     1       1.048   2.039   0.003  0.00  0.00    -0.215 N 
ATOM     28  C   UNL     1       0.670   3.323   0.013  0.00  0.00    +0.310 C 
ATOM     29  O   UNL     1       1.448   4.257   0.010  0.00  0.00    -0.252 OA
ATOM     30  N   UNL     1      -0.670   3.464   0.026  0.00  0.00    -0.285 N 
ATOM     31  H   UNL     1      -1.340   4.336   0.040  0.00  0.00    +0.151 HD
ENDBRANCH  17  27
ENDBRANCH   1  17
TORSDOF 4
