REMARK  Name = ZINC43919365
REMARK  11 active torsions:
REMARK  status: ('A' for Active; 'I' for Inactive)
REMARK    1  A    between atoms: C_1  and  C_2
REMARK    2  A    between atoms: C_2  and  C_4
REMARK    3  A    between atoms: C_2  and  C_10
REMARK    4  A    between atoms: C_4  and  C_5
REMARK    5  A    between atoms: C_5  and  C_6
REMARK    6  A    between atoms: C_6  and  C_7
REMARK    7  A    between atoms: C_7  and  C_8
REMARK    8  A    between atoms: C_7  and  C_9
REMARK    9  A    between atoms: C_16  and  C_36
REMARK   10  A    between atoms: C_28  and  C_35
REMARK   11  A    between atoms: C_31  and  O_34
REMARK                            x       y       z     vdW  Elec       q    Type
REMARK                         _______ _______ _______ _____ _____    ______ ____
ROOT
ATOM      1  C   UNL     1       0.495  -0.595   1.325  0.00  0.00    -0.002 C 
ATOM      2  C   UNL     1       0.459  -2.143   1.267  0.00  0.00    +0.004 C 
ATOM      3  C   UNL     1       1.933  -2.619   1.377  0.00  0.00    +0.004 C 
ATOM      4  C   UNL     1       2.725  -1.405   0.880  0.00  0.00    -0.001 C 
ATOM      5  C   UNL     1       1.958  -0.232   1.553  0.00  0.00    -0.026 C 
ATOM      6  C   UNL     1       2.445   1.052   0.908  0.00  0.00    +0.007 C 
ATOM      7  C   UNL     1       3.930   1.206   1.269  0.00  0.00    +0.005 C 
ATOM      8  C   UNL     1       4.751   0.002   0.815  0.00  0.00    -0.001 C 
ATOM      9  C   UNL     1       4.173  -1.333   1.329  0.00  0.00    +0.003 C 
ATOM     10  C   UNL     1       4.955  -2.511   0.741  0.00  0.00    +0.078 C 
ATOM     11  C   UNL     1       6.428  -2.319   1.030  0.00  0.00    +0.137 C 
ATOM     12  O   UNL     1       7.084  -3.196   1.538  0.00  0.00    -0.297 OA
ATOM     13  C   UNL     1       7.050  -0.993   0.661  0.00  0.00    +0.064 C 
ATOM     14  C   UNL     1       6.188   0.149   1.311  0.00  0.00    -0.019 C 
ATOM     15  C   UNL     1       6.765   1.504   0.906  0.00  0.00    +0.010 C 
ATOM     16  C   UNL     1       8.190   1.624   1.456  0.00  0.00    +0.032 C 
ATOM     17  C   UNL     1       9.059   0.499   0.894  0.00  0.00    +0.115 C 
ATOM     18  C   UNL     1       8.477  -0.905   1.202  0.00  0.00    +0.043 C 
ATOM     19  C   UNL     1       6.210   0.039   2.837  0.00  0.00    +0.012 C 
ATOM     20  C   UNL     1       2.259  -0.208   3.053  0.00  0.00    +0.012 C 
ENDROOT
BRANCH   1  22
ATOM     21  C   UNL     1      -1.493  -0.288  -0.158  0.00  0.00    +0.008 C 
ATOM     22  C   UNL     1       0.002  -0.004   0.002  0.00  0.00    -0.010 C 
BRANCH  22  23
ATOM     23  C   UNL     1       0.769  -0.641  -1.159  0.00  0.00    +0.003 C 
BRANCH  23  24
ATOM     24  C   UNL     1       0.247  -0.081  -2.483  0.00  0.00    +0.001 C 
BRANCH  24  25
ATOM     25  C   UNL     1       1.014  -0.718  -3.644  0.00  0.00    +0.003 C 
BRANCH  25  26
ATOM     26  C   UNL     1       0.492  -0.158  -4.968  0.00  0.00    -0.017 C 
ATOM     27  C   UNL     1       0.806   1.337  -5.049  0.00  0.00    +0.007 C 
ATOM     28  C   UNL     1       1.171  -0.885  -6.132  0.00  0.00    +0.007 C 
ENDBRANCH  25  26
ENDBRANCH  24  25
ENDBRANCH  23  24
ENDBRANCH  22  23
ENDBRANCH   1  22
BRANCH  17  29
ATOM     29  O   UNL     1       9.112   0.606  -0.530  0.00  0.00    -0.392 OA
ATOM     30  H   UNL     1       9.483   1.440  -0.849  0.00  0.00    +0.210 HD
ENDBRANCH  17  29
TORSDOF 6
