REMARK  Name = ZINC09847454
REMARK  13 active torsions:
REMARK  status: ('A' for Active; 'I' for Inactive)
REMARK    1  A    between atoms: C_1  and  C_2
REMARK    2  A    between atoms: C_2  and  C_4
REMARK    3  A    between atoms: C_2  and  S_15
REMARK    4  A    between atoms: N_6  and  C_7
REMARK    5  A    between atoms: N_11  and  C_12
REMARK    6  A    between atoms: C_12  and  C_13
REMARK    7  A    between atoms: C_12  and  C_14
REMARK    8  A    between atoms: S_15  and  C_16
REMARK    9  A    between atoms: C_19  and  C_25
REMARK   10  A    between atoms: N_20  and  C_21
REMARK   11  A    between atoms: C_21  and  C_22
REMARK   12  A    between atoms: C_22  and  C_23
REMARK   13  A    between atoms: C_22  and  C_24
REMARK                            x       y       z     vdW  Elec       q    Type
REMARK                         _______ _______ _______ _____ _____    ______ ____
ROOT
ATOM      1  C   UNL     1       2.498   0.041   1.128  0.00  0.00    +0.193 A 
ATOM      2  N   UNL     1       3.098   0.725   0.179  0.00  0.00    -0.122 NA
ATOM      3  N   UNL     1       4.346   0.861   0.455  0.00  0.00    -0.128 NA
ATOM      4  C   UNL     1       4.619   0.272   1.596  0.00  0.00    +0.166 A 
ATOM      5  N   UNL     1       3.443  -0.266   2.065  0.00  0.00    -0.302 N 
ENDROOT
BRANCH   4   6
ATOM      6  C   UNL     1       5.941   0.206   2.256  0.00  0.00    +0.038 A 
ATOM      7  C   UNL     1       6.068   0.539   3.605  0.00  0.00    +0.014 A 
ATOM      8  C   UNL     1       7.303   0.475   4.215  0.00  0.00    +0.021 A 
ATOM      9  C   UNL     1       8.417   0.081   3.492  0.00  0.00    +0.042 A 
ATOM     10  C   UNL     1       8.298  -0.251   2.153  0.00  0.00    +0.040 A 
ATOM     11  C   UNL     1       7.066  -0.196   1.532  0.00  0.00    +0.053 A 
ATOM     12 CL   UNL     1       6.917  -0.620  -0.144  0.00  0.00    -0.083 Cl
ATOM     13 CL   UNL     1       9.968   0.003   4.268  0.00  0.00    -0.083 Cl
ENDBRANCH   4   6
BRANCH   1  14
ATOM     14  S   UNL     1       0.791  -0.393   1.184  0.00  0.00    -0.074 S 
BRANCH  14  16
ATOM     15  C   UNL     1       0.207   1.835  -0.291  0.00  0.00    +0.029 C 
ATOM     16  C   UNL     1       0.109   0.309  -0.343  0.00  0.00    +0.137 C 
BRANCH  16  17
ATOM     17  C   UNL     1      -1.335  -0.098  -0.482  0.00  0.00    +0.231 C 
ATOM     18  O   UNL     1      -1.983  -0.379   0.504  0.00  0.00    -0.274 OA
ATOM     19  N   UNL     1      -1.907  -0.149  -1.701  0.00  0.00    -0.270 N 
ATOM     20  H   UNL     1      -1.388   0.076  -2.490  0.00  0.00    +0.156 HD
BRANCH  19  21
ATOM     21  C   UNL     1      -3.243  -0.525  -1.830  0.00  0.00    +0.123 A 
ATOM     22  C   UNL     1      -4.086  -0.860  -0.815  0.00  0.00    +0.065 A 
ATOM     23  C   UNL     1      -5.328  -1.170  -1.374  0.00  0.00    +0.136 A 
ATOM     24  N   UNL     1      -5.242  -1.029  -2.672  0.00  0.00    -0.178 NA
ATOM     25  N   UNL     1      -3.940  -0.619  -2.986  0.00  0.00    -0.248 N 
BRANCH  25  26
ATOM     26  C   UNL     1      -3.423  -0.342  -4.328  0.00  0.00    +0.103 C 
ATOM     27  C   UNL     1      -3.541  -1.601  -5.189  0.00  0.00    +0.032 C 
ATOM     28  C   UNL     1      -4.234   0.788  -4.965  0.00  0.00    +0.032 C 
ENDBRANCH  25  26
ENDBRANCH  19  21
ENDBRANCH  16  17
ENDBRANCH  14  16
ENDBRANCH   1  14
BRANCH   5  29
ATOM     29  C   UNL     1       3.246  -1.014   3.309  0.00  0.00    +0.129 C 
BRANCH  29  30
ATOM     30  C   UNL     1       3.605  -2.484   3.082  0.00  0.00    +0.003 C 
ATOM     31  C   UNL     1       3.520  -3.241   4.409  0.00  0.00    +0.009 C 
ATOM     32  C   UNL     1       2.626  -3.099   2.080  0.00  0.00    +0.009 C 
ENDBRANCH  29  30
ENDBRANCH   5  29
TORSDOF 8
