REMARK  Name = ZINC02251848
REMARK  8 active torsions:
REMARK  status: ('A' for Active; 'I' for Inactive)
REMARK    1  A    between atoms: C_1  and  O_2
REMARK    2  A    between atoms: O_2  and  C_3
REMARK    3  A    between atoms: C_6  and  C_9
REMARK    4  A    between atoms: C_20  and  C_22
REMARK    5  A    between atoms: C_25  and  O_28
REMARK    6  A    between atoms: O_28  and  C_29
REMARK    7  A    between atoms: C_34  and  S_36
REMARK    8  A    between atoms: S_36  and  C_37
REMARK                            x       y       z     vdW  Elec       q    Type
REMARK                         _______ _______ _______ _____ _____    ______ ____
ROOT
ATOM      1  C   UNL     1       2.439  -2.262  -4.416  0.00  0.00    +0.159 C 
ATOM      2  C   UNL     1       3.851  -2.651  -4.039  0.00  0.00    +0.025 C 
ATOM      3  C   UNL     1       4.181  -3.958  -4.076  0.00  0.00    +0.058 C 
ATOM      4  C   UNL     1       5.574  -4.324  -3.713  0.00  0.00    +0.040 A 
ATOM      5  C   UNL     1       5.925  -5.632  -3.411  0.00  0.00    +0.013 A 
ATOM      6  C   UNL     1       7.232  -5.928  -3.075  0.00  0.00    +0.001 A 
ATOM      7  C   UNL     1       8.186  -4.926  -3.040  0.00  0.00    +0.004 A 
ATOM      8  C   UNL     1       7.844  -3.620  -3.340  0.00  0.00    +0.046 A 
ATOM      9  C   UNL     1       6.539  -3.309  -3.679  0.00  0.00    +0.131 A 
ATOM     10  O   UNL     1       6.177  -2.037  -3.985  0.00  0.00    -0.479 OA
ATOM     11  C   UNL     1       4.859  -1.620  -3.624  0.00  0.00    +0.234 C 
ATOM     12  N   UNL     1       3.281  -4.907  -4.433  0.00  0.00    -0.326 N 
ATOM     13  C   UNL     1       2.035  -4.656  -4.774  0.00  0.00    +0.216 C 
ATOM     14  N   UNL     1       1.547  -3.368  -4.788  0.00  0.00    -0.209 N 
ATOM     15  N   UNL     1       0.211  -3.446  -5.189  0.00  0.00    -0.239 N 
ATOM     16  C   UNL     1      -0.051  -4.775  -5.395  0.00  0.00    +0.174 C 
ATOM     17  N   UNL     1       1.031  -5.469  -5.149  0.00  0.00    -0.192 NA
ATOM     18  H   UNL     1       3.575  -5.832  -4.436  0.00  0.00    +0.169 HD
ATOM     19  H   UNL     1      -0.407  -2.707  -5.299  0.00  0.00    +0.172 HD
ENDROOT
BRANCH   1  23
ATOM     20  C   UNL     1       0.694  -0.200  -1.105  0.00  0.00    +0.120 A 
ATOM     21  C   UNL     1       1.163   0.513  -2.198  0.00  0.00    +0.046 A 
ATOM     22  C   UNL     1       1.726  -0.156  -3.267  0.00  0.00    +0.009 A 
ATOM     23  C   UNL     1       1.824  -1.535  -3.248  0.00  0.00    -0.021 A 
ATOM     24  C   UNL     1       1.357  -2.248  -2.159  0.00  0.00    +0.009 A 
ATOM     25  C   UNL     1       0.798  -1.583  -1.085  0.00  0.00    +0.046 A 
BRANCH  20  27
ATOM     26  C   UNL     1       0.065   1.880  -0.140  0.00  0.00    +0.277 C 
ATOM     27  O   UNL     1       0.139   0.456  -0.051  0.00  0.00    -0.495 OA
ENDBRANCH  20  27
ENDBRANCH   1  23
BRANCH  11  28
ATOM     28  C   UNL     1       4.789  -1.425  -2.131  0.00  0.00    -0.003 A 
ATOM     29  C   UNL     1       4.265  -0.256  -1.611  0.00  0.00    +0.011 A 
ATOM     30  C   UNL     1       4.200  -0.075  -0.243  0.00  0.00    +0.046 A 
ATOM     31  C   UNL     1       4.659  -1.069   0.609  0.00  0.00    +0.120 A 
ATOM     32  C   UNL     1       5.184  -2.241   0.085  0.00  0.00    +0.046 A 
ATOM     33  C   UNL     1       5.242  -2.419  -1.284  0.00  0.00    +0.011 A 
BRANCH  31  34
ATOM     34  O   UNL     1       4.596  -0.893   1.955  0.00  0.00    -0.495 OA
ATOM     35  C   UNL     1       5.088  -1.958   2.772  0.00  0.00    +0.277 C 
ENDBRANCH  31  34
ENDBRANCH  11  28
BRANCH  16  36
ATOM     36  S   UNL     1      -1.597  -5.443  -5.913  0.00  0.00    -0.092 S 
ATOM     37  C   UNL     1      -1.297  -7.230  -5.998  0.00  0.00    +0.093 C 
ENDBRANCH  16  36
TORSDOF 5
