REMARK  Name = ZINC59181336
REMARK  3 active torsions:
REMARK  status: ('A' for Active; 'I' for Inactive)
REMARK    1  A    between atoms: N_9  and  C_10
REMARK    2  A    between atoms: C_10  and  C_11
REMARK    3  A    between atoms: N_13  and  N_14
REMARK                            x       y       z     vdW  Elec       q    Type
REMARK                         _______ _______ _______ _____ _____    ______ ____
ROOT
ATOM      1  C   UNL     1       5.387  -0.491   1.367  0.00  0.00    +0.254 C 
ATOM      2  O   UNL     1       4.623  -0.648   2.295  0.00  0.00    -0.272 OA
ATOM      3  N   UNL     1       6.689  -0.236   1.601  0.00  0.00    -0.205 N 
ATOM      4  H   UNL     1       7.300  -0.110   0.858  0.00  0.00    +0.177 HD
ENDROOT
BRANCH   3   5
ATOM      5  N   UNL     1       7.161  -0.152   2.917  0.00  0.00    -0.174 NA
ATOM      6  C   UNL     1       8.428   0.096   3.145  0.00  0.00    +0.153 C 
ATOM      7  C   UNL     1       9.102   0.214   4.459  0.00  0.00    +0.030 A 
ATOM      8  C   UNL     1       8.654   0.110   5.771  0.00  0.00    +0.027 A 
ATOM      9  C   UNL     1       9.545   0.274   6.814  0.00  0.00    +0.020 A 
ATOM     10  C   UNL     1      10.879   0.540   6.552  0.00  0.00    +0.032 A 
ATOM     11  C   UNL     1      11.332   0.646   5.252  0.00  0.00    +0.041 A 
ATOM     12  C   UNL     1      10.450   0.483   4.189  0.00  0.00    +0.057 A 
ATOM     13  N   UNL     1      10.642   0.537   2.812  0.00  0.00    -0.279 N 
ATOM     14  C   UNL     1       9.495   0.313   2.147  0.00  0.00    +0.269 C 
ATOM     15  O   UNL     1       9.360   0.295   0.938  0.00  0.00    -0.268 OA
ATOM     16 BR   UNL     1      13.157   1.012   4.916  0.00  0.00    -0.048 Br
ATOM     17 BR   UNL     1       8.943   0.134   8.601  0.00  0.00    -0.050 Br
ATOM     18  H   UNL     1      11.495   0.711   2.386  0.00  0.00    +0.155 HD
ENDBRANCH   3   5
BRANCH   1  19
ATOM     19  C   UNL     1       4.879  -0.581  -0.050  0.00  0.00    +0.243 C 
BRANCH  19  28
ATOM     20  C   UNL     1      -0.016   1.360   0.009  0.00  0.00    +0.002 A 
ATOM     21  C   UNL     1       1.167   2.086   0.002  0.00  0.00    +0.002 A 
ATOM     22  C   UNL     1       2.375   1.447  -0.013  0.00  0.00    +0.029 A 
ATOM     23  C   UNL     1       2.422   0.057  -0.021  0.00  0.00    +0.090 A 
ATOM     24  C   UNL     1       1.227  -0.684  -0.013  0.00  0.00    +0.113 A 
ATOM     25  C   UNL     1       0.002  -0.004   0.002  0.00  0.00    +0.032 A 
ATOM     26  N   UNL     1       1.557  -1.991  -0.024  0.00  0.00    -0.129 NA
ATOM     27  N   UNL     1       2.836  -2.129  -0.037  0.00  0.00    -0.064 NA
ATOM     28  N   UNL     1       3.442  -0.864  -0.036  0.00  0.00    -0.235 N 
ENDBRANCH  19  28
ENDBRANCH   1  19
TORSDOF 3
