REMARK  Name = ZINC22735586
REMARK  10 active torsions:
REMARK  status: ('A' for Active; 'I' for Inactive)
REMARK    1  A    between atoms: C_1  and  C_2
REMARK    2  A    between atoms: C_2  and  C_3
REMARK    3  A    between atoms: C_6  and  S_8
REMARK    4  A    between atoms: S_8  and  N_11
REMARK    5  A    between atoms: N_11  and  C_12
REMARK    6  A    between atoms: C_12  and  C_13
REMARK    7  A    between atoms: C_13  and  C_15
REMARK    8  A    between atoms: C_13  and  N_26
REMARK    9  A    between atoms: N_24  and  C_25
REMARK   10  A    between atoms: N_29  and  C_32
REMARK                            x       y       z     vdW  Elec       q    Type
REMARK                         _______ _______ _______ _____ _____    ______ ____
ROOT
ATOM      1  C   UNL     1       3.234  -1.950   4.258  0.00  0.00    +0.102 C 
ENDROOT
BRANCH   1   2
ATOM      2  C   UNL     1       1.841  -2.119   3.708  0.00  0.00    -0.029 A 
ATOM      3  C   UNL     1       1.007  -3.094   4.224  0.00  0.00    +0.007 A 
ATOM      4  C   UNL     1      -0.265  -3.250   3.718  0.00  0.00    +0.024 A 
ATOM      5  C   UNL     1      -0.720  -2.429   2.685  0.00  0.00    +0.033 A 
ATOM      6  C   UNL     1       0.117  -1.451   2.176  0.00  0.00    -0.026 A 
ATOM      7  C   UNL     1       1.396  -1.302   2.689  0.00  0.00    +0.010 A 
ATOM      8  C   UNL     1      -0.320  -0.520   1.073  0.00  0.00    +0.038 C 
ATOM      9  C   UNL     1      -1.575  -1.077   0.396  0.00  0.00    +0.024 C 
ATOM     10  C   UNL     1      -2.562  -1.487   1.496  0.00  0.00    +0.105 C 
ATOM     11  N   UNL     1      -2.014  -2.641   2.211  0.00  0.00    -0.333 N 
ATOM     12  C   UNL     1      -2.910  -3.061   3.297  0.00  0.00    +0.129 C 
ENDBRANCH   1   2
BRANCH   1  13
ATOM     13  N   UNL     1       4.076  -3.068   3.813  0.00  0.00    -0.298 NA
ATOM     14  C   UNL     1       4.324  -2.998   2.366  0.00  0.00    +0.066 C 
ATOM     15  C   UNL     1       5.266  -4.132   1.957  0.00  0.00    -0.064 C 
ATOM     16  N   UNL     1       4.665  -5.422   2.323  0.00  0.00    +0.379 N 
ATOM     17  C   UNL     1       4.416  -5.492   3.770  0.00  0.00    -0.064 C 
ATOM     18  C   UNL     1       3.474  -4.358   4.179  0.00  0.00    +0.066 C 
ATOM     19  C   UNL     1       5.506  -6.541   1.878  0.00  0.00    -0.096 C 
ATOM     20  H   UNL     1       3.696  -5.503   1.808  0.00  0.00    -0.082 HD
ENDBRANCH   1  13
BRANCH   1  21
ATOM     21  C   UNL     1       3.180  -1.929   5.787  0.00  0.00    +0.129 C 
BRANCH  21  22
ATOM     22  N   UNL     1       4.542  -1.859   6.323  0.00  0.00    -0.188 NA
ATOM     23  H   UNL     1       5.385  -2.250   5.734  0.00  0.00    +0.148 HD
BRANCH  22  24
ATOM     24  S   UNL     1       4.789  -1.425   7.901  0.00  0.00    +0.065 S 
ATOM     25  O   UNL     1       6.192  -1.476   8.121  0.00  0.00    -0.153 OA
ATOM     26  O   UNL     1       4.026  -0.247   8.123  0.00  0.00    -0.153 OA
BRANCH  24  30
ATOM     27  C   UNL     1       2.592  -4.350  10.422  0.00  0.00    -0.009 A 
ATOM     28  C   UNL     1       3.886  -4.668  10.169  0.00  0.00    +0.013 A 
ATOM     29  C   UNL     1       4.646  -3.814   9.392  0.00  0.00    +0.036 A 
ATOM     30  C   UNL     1       4.076  -2.684   8.906  0.00  0.00    +0.143 A 
ATOM     31  S   UNL     1       2.417  -2.800   9.555  0.00  0.00    -0.074 S 
BRANCH  27  33
ATOM     32  C   UNL     1       1.631  -4.648  12.688  0.00  0.00    +0.009 C 
ATOM     33  C   UNL     1       1.570  -5.107  11.230  0.00  0.00    +0.039 C 
ENDBRANCH  27  33
ENDBRANCH  24  30
ENDBRANCH  22  24
ENDBRANCH  21  22
ENDBRANCH   1  21
TORSDOF 7
