REMARK  Name = ZINC12833278
REMARK  9 active torsions:
REMARK  status: ('A' for Active; 'I' for Inactive)
REMARK    1  A    between atoms: C_1  and  C_2
REMARK    2  A    between atoms: C_4  and  C_34
REMARK    3  A    between atoms: C_7  and  C_14
REMARK    4  A    between atoms: C_14  and  N_66
REMARK    5  A    between atoms: C_15  and  C_16
REMARK    6  A    between atoms: C_15  and  N_66
REMARK    7  A    between atoms: N_20  and  C_21
REMARK    8  A    between atoms: C_21  and  C_22
REMARK    9  A    between atoms: C_28  and  N_66
REMARK                            x       y       z     vdW  Elec       q    Type
REMARK                         _______ _______ _______ _____ _____    ______ ____
ROOT
ATOM      1  N   UNL     1      -0.200   0.672  -2.785  0.00  0.00    +0.389 N 
ATOM      2  H   UNL     1      -0.009  -0.320  -2.972  0.00  0.00    -0.080 HD
ENDROOT
BRANCH   1   3
ATOM      3  C   UNL     1      -0.916   0.788  -1.497  0.00  0.00    -0.068 C 
ATOM      4  C   UNL     1      -0.140   0.012  -0.430  0.00  0.00    -0.015 C 
ATOM      5  C   UNL     1      -0.880   0.105   0.906  0.00  0.00    -0.002 C 
ATOM      6  C   UNL     1      -0.995   1.572   1.325  0.00  0.00    -0.000 C 
ATOM      7  C   UNL     1      -1.770   2.348   0.258  0.00  0.00    -0.002 C 
ATOM      8  C   UNL     1      -1.030   2.255  -1.078  0.00  0.00    -0.015 C 
ENDBRANCH   1   3
BRANCH   1   9
ATOM      9  C   UNL     1      -1.036   1.213  -3.878  0.00  0.00    -0.037 C 
BRANCH   9  16
ATOM     10  C   UNL     1      -7.847  -2.915  -4.300  0.00  0.00    +0.044 C 
ATOM     11  C   UNL     1      -6.679  -1.988  -4.083  0.00  0.00    -0.048 A 
ATOM     12  C   UNL     1      -6.834  -0.863  -3.285  0.00  0.00    +0.007 A 
ATOM     13  C   UNL     1      -5.788  -0.010  -3.075  0.00  0.00    -0.041 A 
ATOM     14  C   UNL     1      -4.549  -0.273  -3.669  0.00  0.00    +0.002 A 
ATOM     15  C   UNL     1      -3.407   0.620  -3.465  0.00  0.00    +0.017 A 
ATOM     16  C   UNL     1      -2.231   0.315  -4.067  0.00  0.00    +0.001 A 
ATOM     17  C   UNL     1      -2.123  -0.838  -4.874  0.00  0.00    +0.251 A 
ATOM     18  O   UNL     1      -1.058  -1.091  -5.409  0.00  0.00    -0.268 OA
ATOM     19  N   UNL     1      -3.165  -1.667  -5.062  0.00  0.00    -0.322 N 
ATOM     20  H   UNL     1      -3.056  -2.453  -5.620  0.00  0.00    +0.169 HD
ATOM     21  C   UNL     1      -4.388  -1.413  -4.478  0.00  0.00    +0.050 A 
ATOM     22  C   UNL     1      -5.468  -2.267  -4.678  0.00  0.00    +0.029 A 
ATOM     23  C   UNL     1      -5.968   1.209  -2.206  0.00  0.00    +0.044 C 
ENDBRANCH   9  16
ENDBRANCH   1   9
BRANCH   1  24
ATOM     24  C   UNL     1       1.082   1.404  -2.719  0.00  0.00    +0.001 C 
BRANCH  24  25
ATOM     25  C   UNL     1       1.943   0.979  -3.880  0.00  0.00    +0.135 A 
ATOM     26  N   UNL     1       2.707  -0.085  -3.939  0.00  0.00    -0.115 NA
ATOM     27  N   UNL     1       3.280  -0.100  -5.093  0.00  0.00    -0.023 NA
ATOM     28  N   UNL     1       2.902   0.927  -5.771  0.00  0.00    -0.044 NA
ATOM     29  N   UNL     1       2.073   1.614  -5.059  0.00  0.00    -0.227 N 
BRANCH  29  30
ATOM     30  C   UNL     1       1.403   2.854  -5.458  0.00  0.00    +0.182 C 
BRANCH  30  31
ATOM     31  C   UNL     1       2.303   4.027  -5.168  0.00  0.00    -0.026 A 
ATOM     32  C   UNL     1       2.260   4.642  -3.931  0.00  0.00    +0.005 A 
ATOM     33  C   UNL     1       3.088   5.715  -3.663  0.00  0.00    +0.000 A 
ATOM     34  C   UNL     1       3.953   6.181  -4.636  0.00  0.00    +0.000 A 
ATOM     35  C   UNL     1       3.993   5.569  -5.875  0.00  0.00    +0.000 A 
ATOM     36  C   UNL     1       3.168   4.493  -6.141  0.00  0.00    +0.005 A 
ENDBRANCH  30  31
ENDBRANCH  29  30
ENDBRANCH  24  25
ENDBRANCH   1  24
TORSDOF 7
