REMARK  Name = ZINC41021075
REMARK  7 active torsions:
REMARK  status: ('A' for Active; 'I' for Inactive)
REMARK    1  A    between atoms: C_1  and  C_2
REMARK    2  A    between atoms: C_2  and  O_3
REMARK    3  A    between atoms: O_3  and  C_4
REMARK    4  A    between atoms: C_9  and  N_10
REMARK    5  A    between atoms: C_11  and  C_13
REMARK    6  A    between atoms: C_14  and  C_30
REMARK    7  A    between atoms: C_21  and  C_23
REMARK                            x       y       z     vdW  Elec       q    Type
REMARK                         _______ _______ _______ _____ _____    ______ ____
ROOT
ATOM      1  C   UNL     1       2.992  -0.948  -5.408  0.00  0.00    +0.060 C 
ATOM      2  C   UNL     1       3.554  -1.395  -6.541  0.00  0.00    +0.018 C 
ATOM      3  N   UNL     1       4.037  -0.544  -7.506  0.00  0.00    -0.286 N 
ATOM      4  C   UNL     1       3.699   0.797  -7.400  0.00  0.00    +0.240 A 
ATOM      5  N   UNL     1       3.821   1.778  -8.249  0.00  0.00    -0.092 NA
ATOM      6  N   UNL     1       3.369   2.871  -7.736  0.00  0.00    -0.021 NA
ATOM      7  N   UNL     1       2.935   2.661  -6.536  0.00  0.00    -0.042 NA
ATOM      8  N   UNL     1       3.136   1.307  -6.273  0.00  0.00    -0.201 N 
ATOM      9  C   UNL     1       2.843   0.516  -5.086  0.00  0.00    +0.179 C 
ATOM     10  C   UNL     1       3.661  -2.881  -6.762  0.00  0.00    +0.061 C 
ATOM     11  H   UNL     1       4.592  -0.869  -8.232  0.00  0.00    +0.155 HD
ENDROOT
BRANCH   9  12
ATOM     12  C   UNL     1       3.805   0.890  -3.988  0.00  0.00    -0.018 A 
ATOM     13  C   UNL     1       5.165   0.732  -4.178  0.00  0.00    +0.007 A 
ATOM     14  C   UNL     1       6.048   1.075  -3.172  0.00  0.00    +0.015 A 
ATOM     15  C   UNL     1       5.571   1.576  -1.974  0.00  0.00    +0.018 A 
ATOM     16  C   UNL     1       4.210   1.734  -1.784  0.00  0.00    +0.015 A 
ATOM     17  C   UNL     1       3.328   1.395  -2.793  0.00  0.00    +0.007 A 
ATOM     18 BR   UNL     1       6.779   2.046  -0.597  0.00  0.00    -0.050 Br
ENDBRANCH   9  12
BRANCH   1  20
ATOM     19  N   UNL     1       1.415  -2.625  -4.758  0.00  0.00    -0.279 N 
ATOM     20  C   UNL     1       2.512  -1.896  -4.474  0.00  0.00    +0.248 C 
ATOM     21  O   UNL     1       3.091  -2.054  -3.414  0.00  0.00    -0.270 OA
ATOM     22  H   UNL     1       1.002  -2.560  -5.633  0.00  0.00    +0.155 HD
BRANCH  19  28
ATOM     23  C   UNL     1       0.103  -4.574  -4.174  0.00  0.00    +0.142 A 
ATOM     24  C   UNL     1      -0.429  -5.416  -3.211  0.00  0.00    +0.047 A 
ATOM     25  C   UNL     1      -0.202  -5.164  -1.871  0.00  0.00    +0.004 A 
ATOM     26  C   UNL     1       0.554  -4.072  -1.487  0.00  0.00    +0.002 A 
ATOM     27  C   UNL     1       1.088  -3.227  -2.441  0.00  0.00    +0.027 A 
ATOM     28  C   UNL     1       0.870  -3.477  -3.788  0.00  0.00    +0.076 A 
BRANCH  23  29
ATOM     29  O   UNL     1      -0.120  -4.820  -5.493  0.00  0.00    -0.490 OA
BRANCH  29  31
ATOM     30  C   UNL     1      -1.055  -6.076  -7.334  0.00  0.00    +0.048 C 
ATOM     31  C   UNL     1      -0.916  -5.963  -5.814  0.00  0.00    +0.226 C 
ENDBRANCH  29  31
ENDBRANCH  23  29
ENDBRANCH  19  28
ENDBRANCH   1  20
TORSDOF 5
