REMARK  Name = ZINC13500177
REMARK  12 active torsions:
REMARK  status: ('A' for Active; 'I' for Inactive)
REMARK    1  A    between atoms: C_1  and  C_2
REMARK    2  A    between atoms: C_2  and  C_3
REMARK    3  A    between atoms: C_3  and  C_4
REMARK    4  A    between atoms: C_4  and  C_6
REMARK    5  A    between atoms: C_4  and  N_73
REMARK    6  A    between atoms: N_10  and  C_11
REMARK    7  A    between atoms: C_16  and  C_17
REMARK    8  A    between atoms: C_16  and  N_73
REMARK    9  A    between atoms: C_21  and  O_29
REMARK   10  A    between atoms: O_29  and  C_30
REMARK   11  A    between atoms: C_30  and  C_31
REMARK   12  A    between atoms: C_32  and  N_73
REMARK                            x       y       z     vdW  Elec       q    Type
REMARK                         _______ _______ _______ _____ _____    ______ ____
ROOT
ATOM      1  N   UNL     1      -0.754  -2.334   1.008  0.00  0.00    +0.391 N 
ATOM      2  H   UNL     1      -0.188  -3.188   1.065  0.00  0.00    -0.080 HD
ENDROOT
BRANCH   1   3
ATOM      3  C   UNL     1      -1.463  -2.141   2.290  0.00  0.00    -0.067 C 
ATOM      4  C   UNL     1      -2.335  -3.378   2.587  0.00  0.00    -0.015 C 
ATOM      5  C   UNL     1      -3.603  -2.795   3.262  0.00  0.00    -0.002 C 
ATOM      6  C   UNL     1      -3.837  -1.482   2.475  0.00  0.00    -0.002 C 
ATOM      7  C   UNL     1      -2.417  -0.935   2.219  0.00  0.00    -0.015 C 
ENDBRANCH   1   3
BRANCH   1   8
ATOM      8  C   UNL     1      -1.730  -2.478  -0.093  0.00  0.00    +0.003 C 
BRANCH   8   9
ATOM      9  C   UNL     1      -2.126  -1.124  -0.625  0.00  0.00    +0.138 A 
ATOM     10  N   UNL     1      -1.350  -0.075  -0.750  0.00  0.00    -0.115 NA
ATOM     11  N   UNL     1      -2.055   0.884  -1.243  0.00  0.00    -0.023 NA
ATOM     12  N   UNL     1      -3.262   0.477  -1.427  0.00  0.00    -0.044 NA
ATOM     13  N   UNL     1      -3.346  -0.756  -1.058  0.00  0.00    -0.228 N 
BRANCH  13  14
ATOM     14  C   UNL     1      -4.544  -1.599  -1.103  0.00  0.00    +0.111 C 
ATOM     15  C   UNL     1      -5.083  -1.674  -2.546  0.00  0.00    +0.027 C 
ATOM     16  C   UNL     1      -6.623  -1.675  -2.376  0.00  0.00    +0.002 C 
ATOM     17  C   UNL     1      -6.839  -0.690  -1.200  0.00  0.00    +0.002 C 
ATOM     18  C   UNL     1      -5.660  -0.974  -0.247  0.00  0.00    +0.027 C 
ENDBRANCH  13  14
ENDBRANCH   8   9
BRANCH   8  19
ATOM     19  C   UNL     1      -1.086  -3.298  -1.212  0.00  0.00    -0.008 C 
BRANCH  19  21
ATOM     20  C   UNL     1      -0.300  -5.575  -1.872  0.00  0.00    +0.004 C 
ATOM     21  C   UNL     1      -0.830  -4.723  -0.718  0.00  0.00    -0.005 C 
ENDBRANCH  19  21
ENDBRANCH   8  19
ENDBRANCH   1   8
BRANCH   1  22
ATOM     22  C   UNL     1       0.138  -1.184   0.745  0.00  0.00    -0.036 C 
BRANCH  22  23
ATOM     23  C   UNL     1       1.359  -1.310   1.620  0.00  0.00    +0.001 A 
ATOM     24  C   UNL     1       2.480  -1.896   1.133  0.00  0.00    +0.017 A 
ATOM     25  C   UNL     1       3.650  -2.003   2.008  0.00  0.00    +0.002 A 
ATOM     26  C   UNL     1       4.834  -2.597   1.560  0.00  0.00    +0.055 A 
ATOM     27  C   UNL     1       5.918  -2.681   2.410  0.00  0.00    +0.121 A 
ATOM     28  C   UNL     1       5.835  -2.178   3.707  0.00  0.00    +0.047 A 
ATOM     29  C   UNL     1       4.675  -1.590   4.159  0.00  0.00    +0.030 A 
ATOM     30  C   UNL     1       3.571  -1.496   3.318  0.00  0.00    +0.049 A 
ATOM     31  N   UNL     1       2.399  -0.910   3.752  0.00  0.00    -0.322 N 
ATOM     32  H   UNL     1       2.345  -0.561   4.656  0.00  0.00    +0.169 HD
ATOM     33  C   UNL     1       1.332  -0.812   2.940  0.00  0.00    +0.251 A 
ATOM     34  O   UNL     1       0.315  -0.283   3.355  0.00  0.00    -0.268 OA
BRANCH  27  35
ATOM     35  O   UNL     1       7.072  -3.258   1.981  0.00  0.00    -0.492 OA
BRANCH  35  36
ATOM     36  C   UNL     1       8.155  -3.313   2.911  0.00  0.00    +0.225 C 
ATOM     37  C   UNL     1       9.358  -3.992   2.253  0.00  0.00    +0.048 C 
ENDBRANCH  35  36
ENDBRANCH  27  35
ENDBRANCH  22  23
ENDBRANCH   1  22
TORSDOF 10
