REMARK  Name = ZINC14762669
REMARK  10 active torsions:
REMARK  status: ('A' for Active; 'I' for Inactive)
REMARK    1  A    between atoms: C_1  and  C_2
REMARK    2  A    between atoms: C_2  and  C_28
REMARK    3  A    between atoms: C_3  and  C_4
REMARK    4  A    between atoms: C_4  and  C_5
REMARK    5  A    between atoms: C_7  and  C_14
REMARK    6  A    between atoms: C_9  and  O_12
REMARK    7  A    between atoms: C_10  and  O_11
REMARK    8  A    between atoms: O_12  and  C_13
REMARK    9  A    between atoms: C_20  and  O_27
REMARK   10  A    between atoms: C_22  and  O_26
REMARK                            x       y       z     vdW  Elec       q    Type
REMARK                         _______ _______ _______ _____ _____    ______ ____
ROOT
ATOM      1  C   UNL     1       6.079  -0.315   1.016  0.00  0.00    +0.002 A 
ATOM      2  C   UNL     1       4.834   0.116   1.436  0.00  0.00    +0.015 A 
ATOM      3  C   UNL     1       3.720  -0.105   0.648  0.00  0.00    -0.003 A 
ATOM      4  C   UNL     1       3.845  -0.764  -0.561  0.00  0.00    +0.056 A 
ATOM      5  C   UNL     1       5.090  -1.194  -0.991  0.00  0.00    +0.162 A 
ATOM      6  C   UNL     1       6.212  -0.971  -0.198  0.00  0.00    +0.162 A 
ENDROOT
BRANCH   3   7
ATOM      7  C   UNL     1       2.366   0.367   1.112  0.00  0.00    +0.211 C 
ATOM      8  C   UNL     1       2.013   1.684   0.405  0.00  0.00    +0.129 C 
ATOM      9  C   UNL     1       0.631   2.092   0.883  0.00  0.00    +0.174 C 
ATOM     10  O   UNL     1       0.356   3.249   1.128  0.00  0.00    -0.292 OA
ATOM     11  C   UNL     1      -0.356   1.017   1.032  0.00  0.00    +0.101 A 
ATOM     12  C   UNL     1      -1.716   1.314   1.220  0.00  0.00    +0.134 A 
ATOM     13  C   UNL     1      -2.624   0.282   1.372  0.00  0.00    +0.091 A 
ATOM     14  C   UNL     1      -2.191  -1.038   1.330  0.00  0.00    +0.124 A 
ATOM     15  C   UNL     1      -0.847  -1.338   1.143  0.00  0.00    +0.092 A 
ATOM     16  C   UNL     1       0.078  -0.321   0.988  0.00  0.00    +0.139 A 
ATOM     17  O   UNL     1       1.384  -0.619   0.793  0.00  0.00    -0.483 OA
BRANCH  14  18
ATOM     18  O   UNL     1      -3.089  -2.044   1.478  0.00  0.00    -0.507 OA
ATOM     19  H   UNL     1      -3.224  -2.319   2.395  0.00  0.00    +0.292 HD
ENDBRANCH  14  18
BRANCH  12  20
ATOM     20  O   UNL     1      -2.135   2.603   1.253  0.00  0.00    -0.506 OA
ATOM     21  H   UNL     1      -2.381   2.959   0.389  0.00  0.00    +0.292 HD
ENDBRANCH  12  20
ENDBRANCH   3   7
BRANCH   6  22
ATOM     22  O   UNL     1       7.435  -1.395  -0.613  0.00  0.00    -0.503 OA
ATOM     23  H   UNL     1       7.658  -2.292  -0.329  0.00  0.00    +0.292 HD
ENDBRANCH   6  22
BRANCH   5  24
ATOM     24  O   UNL     1       5.215  -1.837  -2.183  0.00  0.00    -0.491 OA
ATOM     25  C   UNL     1       4.021  -2.030  -2.943  0.00  0.00    +0.277 C 
ENDBRANCH   5  24
BRANCH   1  26
ATOM     26  C   UNL     1       7.292  -0.072   1.877  0.00  0.00    +0.066 C 
BRANCH  26  29
ATOM     27  C   UNL     1       7.698   0.023   4.667  0.00  0.00    +0.038 C 
ATOM     28  C   UNL     1       7.753  -1.296   3.939  0.00  0.00    -0.079 C 
ATOM     29  C   UNL     1       7.628  -1.330   2.636  0.00  0.00    -0.023 C 
ATOM     30  C   UNL     1       7.950  -2.574   4.712  0.00  0.00    +0.038 C 
ENDBRANCH  26  29
ENDBRANCH   1  26
TORSDOF 7
