REMARK  Name = ZINC23356333
REMARK  7 active torsions:
REMARK  status: ('A' for Active; 'I' for Inactive)
REMARK    1  A    between atoms: C_1  and  C_2
REMARK    2  A    between atoms: C_5  and  N_9
REMARK    3  A    between atoms: C_10  and  C_12
REMARK    4  A    between atoms: C_12  and  C_14
REMARK    5  A    between atoms: C_12  and  N_15
REMARK    6  A    between atoms: N_18  and  C_21
REMARK    7  A    between atoms: C_21  and  C_22
REMARK                            x       y       z     vdW  Elec       q    Type
REMARK                         _______ _______ _______ _____ _____    ______ ____
ROOT
ATOM      1  N   UNL     1      -0.114  -6.834  -2.574  0.00  0.00    +0.389 N 
ATOM      2  C   UNL     1       1.081  -6.320  -3.256  0.00  0.00    -0.062 C 
ATOM      3  C   UNL     1       1.095  -6.816  -4.704  0.00  0.00    +0.066 C 
ATOM      4  N   UNL     1       1.098  -8.286  -4.715  0.00  0.00    -0.302 NA
ATOM      5  C   UNL     1      -0.080  -8.815  -4.014  0.00  0.00    +0.066 C 
ATOM      6  C   UNL     1      -0.085  -8.303  -2.572  0.00  0.00    -0.062 C 
ATOM      7  H   UNL     1      -0.940  -6.515  -3.058  0.00  0.00    -0.081 HD
ENDROOT
BRANCH   1   8
ATOM      8  C   UNL     1      -0.136  -6.343  -1.190  0.00  0.00    +0.017 C 
ATOM      9  C   UNL     1      -1.414  -6.824  -0.499  0.00  0.00    -0.004 C 
BRANCH   8  11
ATOM     10  N   UNL     1       0.408  -4.173  -0.134  0.00  0.00    -0.286 N 
ATOM     11  C   UNL     1      -0.102  -4.836  -1.191  0.00  0.00    +0.203 C 
ATOM     12  O   UNL     1      -0.532  -4.221  -2.143  0.00  0.00    -0.277 OA
ATOM     13  H   UNL     1       0.820  -4.665   0.594  0.00  0.00    +0.155 HD
BRANCH  10  18
ATOM     14  C   UNL     1       0.137   1.491   0.061  0.00  0.00    +0.044 C 
ATOM     15  C   UNL     1       0.210  -0.013   0.009  0.00  0.00    -0.049 A 
ATOM     16  C   UNL     1      -0.660  -0.719  -0.803  0.00  0.00    +0.005 A 
ATOM     17  C   UNL     1      -0.597  -2.097  -0.852  0.00  0.00    +0.024 A 
ATOM     18  C   UNL     1       0.342  -2.776  -0.086  0.00  0.00    +0.047 A 
ATOM     19  C   UNL     1       1.214  -2.065   0.729  0.00  0.00    +0.039 A 
ATOM     20  C   UNL     1       1.149  -0.685   0.769  0.00  0.00    +0.020 A 
ATOM     21 BR   UNL     1       2.494  -2.984   1.775  0.00  0.00    -0.048 Br
ENDBRANCH  10  18
ENDBRANCH   8  11
ENDBRANCH   1   8
BRANCH   4  22
ATOM     22  C   UNL     1       1.169  -8.802  -6.089  0.00  0.00    +0.119 C 
BRANCH  22  23
ATOM     23  C   UNL     1       1.416 -10.288  -6.055  0.00  0.00    -0.030 A 
ATOM     24  C   UNL     1       2.711 -10.772  -6.047  0.00  0.00    +0.009 A 
ATOM     25  C   UNL     1       2.943 -12.134  -6.016  0.00  0.00    +0.050 A 
ATOM     26  C   UNL     1       1.877 -13.018  -5.993  0.00  0.00    +0.166 A 
ATOM     27  C   UNL     1       0.572 -12.531  -6.001  0.00  0.00    +0.167 A 
ATOM     28  C   UNL     1       0.347 -11.164  -6.027  0.00  0.00    +0.054 A 
ATOM     29  O   UNL     1      -0.289 -13.590  -5.975  0.00  0.00    -0.453 OA
ATOM     30  C   UNL     1       0.495 -14.733  -6.363  0.00  0.00    +0.466 C 
ATOM     31  O   UNL     1       1.833 -14.382  -5.962  0.00  0.00    -0.453 OA
ENDBRANCH  22  23
ENDBRANCH   4  22
TORSDOF 5
