REMARK  Name = ZINC49201618
REMARK  7 active torsions:
REMARK  status: ('A' for Active; 'I' for Inactive)
REMARK    1  A    between atoms: C_1  and  C_2
REMARK    2  A    between atoms: C_2  and  C_3
REMARK    3  A    between atoms: C_6  and  C_9
REMARK    4  A    between atoms: C_9  and  C_11
REMARK    5  A    between atoms: C_9  and  N_12
REMARK    6  A    between atoms: C_13  and  N_15
REMARK    7  A    between atoms: C_20  and  C_22
REMARK                            x       y       z     vdW  Elec       q    Type
REMARK                         _______ _______ _______ _____ _____    ______ ____
ROOT
ATOM      1  N   UNL     1      -6.194  -1.340  -1.008  0.00  0.00    -0.291 N 
ATOM      2  C   UNL     1      -7.533  -1.239  -0.896  0.00  0.00    +0.326 C 
ATOM      3  O   UNL     1      -8.100  -1.701   0.079  0.00  0.00    -0.251 OA
ATOM      4  H   UNL     1      -5.742  -0.972  -1.784  0.00  0.00    +0.151 HD
ENDROOT
BRANCH   2   5
ATOM      5  N   UNL     1      -8.239  -0.632  -1.854  0.00  0.00    -0.139 NA
ATOM      6  C   UNL     1      -9.562  -0.532  -1.744  0.00  0.00    +0.165 A 
ATOM      7  N   UNL     1     -10.443   0.039  -2.611  0.00  0.00    -0.342 N 
ATOM      8  H   UNL     1     -10.131   0.445  -3.436  0.00  0.00    +0.167 HD
ATOM      9  C   UNL     1     -11.768   0.031  -2.300  0.00  0.00    +0.095 A 
ATOM     10  C   UNL     1     -12.123  -0.545  -1.147  0.00  0.00    +0.006 A 
ATOM     11  S   UNL     1     -10.552  -1.088  -0.504  0.00  0.00    -0.058 S 
ATOM     12  C   UNL     1     -13.498  -0.700  -0.549  0.00  0.00    +0.053 C 
ENDBRANCH   2   5
BRANCH   1  13
ATOM     13  C   UNL     1      -5.419  -2.005   0.043  0.00  0.00    +0.102 C 
ATOM     14  C   UNL     1      -5.407  -3.514  -0.210  0.00  0.00    +0.033 C 
BRANCH  13  18
ATOM     15  C   UNL     1      -1.412  -0.526   0.013  0.00  0.00    -0.048 A 
ATOM     16  C   UNL     1      -2.051  -0.766   1.215  0.00  0.00    +0.004 A 
ATOM     17  C   UNL     1      -3.348  -1.244   1.225  0.00  0.00    +0.006 A 
ATOM     18  C   UNL     1      -4.006  -1.482   0.032  0.00  0.00    -0.027 A 
ATOM     19  C   UNL     1      -3.367  -1.241  -1.170  0.00  0.00    +0.006 A 
ATOM     20  C   UNL     1      -2.072  -0.758  -1.179  0.00  0.00    +0.004 A 
BRANCH  15  22
ATOM     21  C   UNL     1      -0.019   1.526   0.010  0.00  0.00    +0.009 C 
ATOM     22  C   UNL     1       0.002  -0.004   0.002  0.00  0.00    +0.032 C 
ENDBRANCH  15  22
ENDBRANCH  13  18
ENDBRANCH   1  13
TORSDOF 4
