REMARK  Name = ZINC40613696
REMARK  7 active torsions:
REMARK  status: ('A' for Active; 'I' for Inactive)
REMARK    1  A    between atoms: C_1  and  C_2
REMARK    2  A    between atoms: C_7  and  C_9
REMARK    3  A    between atoms: C_7  and  C_10
REMARK    4  A    between atoms: C_14  and  N_30
REMARK    5  A    between atoms: C_15  and  N_19
REMARK    6  A    between atoms: N_19  and  N_20
REMARK    7  A    between atoms: C_21  and  C_23
REMARK                            x       y       z     vdW  Elec       q    Type
REMARK                         _______ _______ _______ _____ _____    ______ ____
ROOT
ATOM      1  C   UNL     1      -0.019   1.532   0.011  0.00  0.00    +0.013 C 
ATOM      2  C   UNL     1       0.002  -0.004   0.002  0.00  0.00    -0.014 C 
ATOM      3  C   UNL     1      -1.426  -0.614  -0.022  0.00  0.00    +0.030 C 
ATOM      4  C   UNL     1      -1.088  -2.043  -0.515  0.00  0.00    +0.076 C 
ATOM      5  C   UNL     1      -0.479  -2.797   0.664  0.00  0.00    +0.029 C 
ATOM      6  C   UNL     1       0.721  -2.106   1.284  0.00  0.00    -0.033 C 
ATOM      7  C   UNL     1       0.726  -0.591   1.212  0.00  0.00    +0.014 C 
ATOM      8  C   UNL     1       2.014  -2.666   0.673  0.00  0.00    +0.011 C 
ATOM      9  C   UNL     1       0.745  -2.492   2.784  0.00  0.00    +0.011 C 
ATOM     10  N   UNL     1      -0.056  -1.853  -1.552  0.00  0.00    -0.310 N 
ATOM     11  C   UNL     1       0.626  -0.576  -1.291  0.00  0.00    +0.113 C 
ATOM     12  C   UNL     1       0.218  -2.719  -2.599  0.00  0.00    +0.157 A 
ATOM     13  C   UNL     1       1.226  -2.427  -3.513  0.00  0.00    +0.207 A 
ATOM     14  C   UNL     1       1.462  -3.329  -4.545  0.00  0.00    +0.171 A 
ATOM     15  N   UNL     1       0.720  -4.432  -4.622  0.00  0.00    -0.217 NA
ATOM     16  C   UNL     1      -0.225  -4.674  -3.737  0.00  0.00    +0.225 A 
ATOM     17  N   UNL     1      -0.476  -3.847  -2.742  0.00  0.00    -0.218 NA
ENDROOT
BRANCH  13  18
ATOM     18  N   UNL     1       2.027  -1.187  -3.389  0.00  0.00    +0.063 N 
ATOM     19  O   UNL     1       3.045  -1.188  -2.738  0.00  0.00    -0.126 OA
ATOM     20  O   UNL     1       1.662  -0.175  -3.940  0.00  0.00    -0.126 OA
ENDBRANCH  13  18
BRANCH  14  21
ATOM     21  N   UNL     1       2.455  -3.083  -5.481  0.00  0.00    -0.246 N 
ATOM     22  H   UNL     1       2.991  -2.277  -5.419  0.00  0.00    +0.172 HD
BRANCH  21  23
ATOM     23  N   UNL     1       2.684  -3.998  -6.516  0.00  0.00    -0.231 N 
ATOM     24  C   UNL     1       3.650  -3.759  -7.426  0.00  0.00    +0.260 C 
ATOM     25  O   UNL     1       4.321  -2.749  -7.348  0.00  0.00    -0.269 OA
ATOM     26  H   UNL     1       2.148  -4.804  -6.579  0.00  0.00    +0.173 HD
BRANCH  24  27
ATOM     27  C   UNL     1       3.891  -4.725  -8.519  0.00  0.00    +0.038 A 
ATOM     28  C   UNL     1       3.117  -5.883  -8.614  0.00  0.00    +0.014 A 
ATOM     29  C   UNL     1       3.348  -6.780  -9.636  0.00  0.00    +0.016 A 
ATOM     30  C   UNL     1       4.344  -6.535 -10.566  0.00  0.00    +0.018 A 
ATOM     31  C   UNL     1       5.114  -5.388 -10.476  0.00  0.00    +0.016 A 
ATOM     32  C   UNL     1       4.890  -4.480  -9.463  0.00  0.00    +0.014 A 
ATOM     33 BR   UNL     1       4.653  -7.771 -11.963  0.00  0.00    -0.050 Br
ENDBRANCH  24  27
ENDBRANCH  21  23
ENDBRANCH  14  21
TORSDOF 4
