REMARK  Name = ZINC09883855
REMARK  8 active torsions:
REMARK  status: ('A' for Active; 'I' for Inactive)
REMARK    1  A    between atoms: C_1  and  C_2
REMARK    2  A    between atoms: C_7  and  C_13
REMARK    3  A    between atoms: C_13  and  S_14
REMARK    4  A    between atoms: S_14  and  C_15
REMARK    5  A    between atoms: C_18  and  C_27
REMARK    6  A    between atoms: N_19  and  C_20
REMARK    7  A    between atoms: C_27  and  C_29
REMARK    8  A    between atoms: C_27  and  N_61
REMARK                            x       y       z     vdW  Elec       q    Type
REMARK                         _______ _______ _______ _____ _____    ______ ____
ROOT
ATOM      1  C   UNL     1      -5.979   6.632  -1.277  0.00  0.00    +0.196 A 
ATOM      2  N   UNL     1      -6.354   7.170  -0.139  0.00  0.00    -0.122 NA
ATOM      3  N   UNL     1      -7.497   7.739  -0.280  0.00  0.00    -0.135 NA
ATOM      4  C   UNL     1      -7.922   7.595  -1.504  0.00  0.00    +0.125 A 
ATOM      5  N   UNL     1      -6.970   6.883  -2.184  0.00  0.00    -0.275 N 
ENDROOT
BRANCH   5   6
ATOM      6  C   UNL     1      -7.005   6.493  -3.532  0.00  0.00    +0.050 A 
ATOM      7  C   UNL     1      -6.988   7.454  -4.534  0.00  0.00    +0.029 A 
ATOM      8  C   UNL     1      -7.017   7.068  -5.860  0.00  0.00    +0.040 A 
ATOM      9  C   UNL     1      -7.075   5.724  -6.189  0.00  0.00    +0.124 A 
ATOM     10  C   UNL     1      -7.098   4.765  -5.191  0.00  0.00    +0.040 A 
ATOM     11  C   UNL     1      -7.063   5.147  -3.864  0.00  0.00    +0.029 A 
ATOM     12  F   UNL     1      -7.109   5.349  -7.487  0.00  0.00    -0.205 F 
ENDBRANCH   5   6
BRANCH   4  13
ATOM     13  C   UNL     1      -9.221   8.114  -2.065  0.00  0.00    -0.002 C 
ATOM     14  C   UNL     1      -9.114   9.625  -2.283  0.00  0.00    -0.005 C 
BRANCH  13  20
ATOM     15  C   UNL     1     -10.378   6.397  -0.811  0.00  0.00    -0.078 C 
ATOM     16  C   UNL     1     -11.424   6.159   0.280  0.00  0.00    -0.019 C 
ATOM     17  C   UNL     1     -12.787   6.660  -0.208  0.00  0.00    -0.004 C 
ATOM     18  C   UNL     1     -12.677   8.143  -0.570  0.00  0.00    -0.019 C 
ATOM     19  C   UNL     1     -11.594   8.324  -1.637  0.00  0.00    -0.078 C 
ATOM     20  N   UNL     1     -10.304   7.846  -1.097  0.00  0.00    +0.386 N 
ATOM     21  H   UNL     1     -10.102   8.347  -0.224  0.00  0.00    -0.081 HD
ENDBRANCH  13  20
ENDBRANCH   4  13
BRANCH   1  22
ATOM     22  S   UNL     1      -4.484   5.747  -1.575  0.00  0.00    -0.079 S 
BRANCH  22  23
ATOM     23  C   UNL     1      -3.729   5.843   0.067  0.00  0.00    +0.133 C 
BRANCH  23  30
ATOM     24  C   UNL     1       2.506   1.065  -0.015  0.00  0.00    +0.045 C 
ATOM     25  C   UNL     1       1.189   1.798   0.000  0.00  0.00    -0.034 A 
ATOM     26  C   UNL     1      -0.013   1.076   0.008  0.00  0.00    +0.008 A 
ATOM     27  C   UNL     1      -1.199   1.746   0.017  0.00  0.00    +0.047 A 
ATOM     28  C   UNL     1      -1.200   3.152   0.030  0.00  0.00    +0.141 A 
ATOM     29  N   UNL     1      -2.358   3.809   0.044  0.00  0.00    -0.233 NA
ATOM     30  C   UNL     1      -2.400   5.132   0.051  0.00  0.00    +0.059 A 
ATOM     31  C   UNL     1      -1.227   5.862   0.043  0.00  0.00    +0.094 A 
ATOM     32  C   UNL     1      -0.005   5.179   0.028  0.00  0.00    +0.259 A 
ATOM     33  O   UNL     1       1.049   5.794   0.021  0.00  0.00    -0.267 OA
ATOM     34  N   UNL     1      -0.011   3.828   0.022  0.00  0.00    -0.268 N 
ATOM     35  C   UNL     1       1.169   3.150   0.007  0.00  0.00    +0.099 A 
ENDBRANCH  23  30
ENDBRANCH  22  23
ENDBRANCH   1  22
TORSDOF 6
