REMARK  Name = ZINC39686747
REMARK  9 active torsions:
REMARK  status: ('A' for Active; 'I' for Inactive)
REMARK    1  A    between atoms: C_1  and  C_2
REMARK    2  A    between atoms: C_6  and  C_7
REMARK    3  A    between atoms: C_11  and  C_20
REMARK    4  A    between atoms: N_22  and  C_23
REMARK    5  A    between atoms: C_23  and  C_25
REMARK    6  A    between atoms: C_23  and  C_26
REMARK    7  A    between atoms: C_26  and  C_27
REMARK    8  A    between atoms: C_32  and  O_33
REMARK    9  A    between atoms: O_33  and  C_34
REMARK                            x       y       z     vdW  Elec       q    Type
REMARK                         _______ _______ _______ _____ _____    ______ ____
ROOT
ATOM      1  C   UNL     1       1.188   0.312   1.922  0.00  0.00    +0.254 C 
ATOM      2  O   UNL     1       1.365   1.458   2.291  0.00  0.00    -0.269 OA
ATOM      3  N   UNL     1       0.795  -0.627   2.806  0.00  0.00    -0.296 N 
ATOM      4  C   UNL     1       0.654  -2.084   2.580  0.00  0.00    +0.121 C 
ATOM      5  C   UNL     1       1.177  -2.734   3.880  0.00  0.00    +0.100 C 
ATOM      6  C   UNL     1       1.011  -1.647   4.956  0.00  0.00    -0.004 C 
ATOM      7  C   UNL     1       0.414  -0.435   4.226  0.00  0.00    +0.115 C 
ATOM      8  C   UNL     1       0.062  -2.127   6.050  0.00  0.00    -0.010 C 
ATOM      9  C   UNL     1      -0.041  -1.053   7.136  0.00  0.00    -0.082 C 
ATOM     10  N   UNL     1       1.291  -0.791   7.696  0.00  0.00    +0.379 N 
ATOM     11  C   UNL     1       2.171  -0.242   6.658  0.00  0.00    -0.082 C 
ATOM     12  C   UNL     1       2.368  -1.282   5.551  0.00  0.00    -0.010 C 
ATOM     13  H   UNL     1       1.212  -0.128   8.453  0.00  0.00    -0.086 HD
ATOM     14  H   UNL     1       1.682  -1.652   8.047  0.00  0.00    -0.086 HD
ENDROOT
BRANCH   1  20
ATOM     15  C   UNL     1       2.353   2.151  -0.306  0.00  0.00    +0.045 C 
ATOM     16  C   UNL     1       1.913   0.725  -0.515  0.00  0.00    -0.031 A 
ATOM     17  C   UNL     1       1.999   0.104  -1.738  0.00  0.00    +0.011 A 
ATOM     18  C   UNL     1       1.585  -1.181  -1.856  0.00  0.00    +0.046 A 
ATOM     19  S   UNL     1       1.067  -1.591  -0.311  0.00  0.00    -0.092 S 
ATOM     20  C   UNL     1       1.401  -0.048   0.517  0.00  0.00    +0.077 A 
ENDBRANCH   1  20
BRANCH   5  21
ATOM     21  C   UNL     1       2.628  -3.112   3.731  0.00  0.00    +0.218 C 
ATOM     22  O   UNL     1       3.352  -2.464   3.004  0.00  0.00    -0.275 OA
ATOM     23  N   UNL     1       3.122  -4.169   4.406  0.00  0.00    -0.312 N 
ATOM     24  H   UNL     1       2.567  -4.637   5.048  0.00  0.00    +0.149 HD
BRANCH  23  25
ATOM     25  C   UNL     1       4.499  -4.611   4.168  0.00  0.00    +0.074 C 
ATOM     26  C   UNL     1       5.454  -3.796   5.043  0.00  0.00    +0.028 C 
BRANCH  25  27
ATOM     27  C   UNL     1       4.626  -6.095   4.519  0.00  0.00    +0.060 C 
BRANCH  27  28
ATOM     28  C   UNL     1       3.792  -6.910   3.565  0.00  0.00    -0.004 A 
ATOM     29  C   UNL     1       2.539  -7.352   3.945  0.00  0.00    +0.007 A 
ATOM     30  C   UNL     1       1.774  -8.100   3.070  0.00  0.00    +0.000 A 
ATOM     31  C   UNL     1       2.259  -8.407   1.812  0.00  0.00    +0.004 A 
ATOM     32  C   UNL     1       3.510  -7.967   1.427  0.00  0.00    +0.046 A 
ATOM     33  C   UNL     1       4.278  -7.211   2.301  0.00  0.00    +0.123 A 
BRANCH  33  34
ATOM     34  O   UNL     1       5.507  -6.772   1.922  0.00  0.00    -0.495 OA
ATOM     35  C   UNL     1       5.944  -7.120   0.607  0.00  0.00    +0.277 C 
ENDBRANCH  33  34
ENDBRANCH  27  28
ENDBRANCH  25  27
ENDBRANCH  23  25
ENDBRANCH   5  21
TORSDOF 6
