REMARK  Name = ZINC08917848
REMARK  8 active torsions:
REMARK  status: ('A' for Active; 'I' for Inactive)
REMARK    1  A    between atoms: C_1  and  C_2
REMARK    2  A    between atoms: C_8  and  C_37
REMARK    3  A    between atoms: C_9  and  O_36
REMARK    4  A    between atoms: C_19  and  C_21
REMARK    5  A    between atoms: C_21  and  N_22
REMARK    6  A    between atoms: N_22  and  C_23
REMARK    7  A    between atoms: N_26  and  C_29
REMARK    8  A    between atoms: C_29  and  C_30
REMARK                            x       y       z     vdW  Elec       q    Type
REMARK                         _______ _______ _______ _____ _____    ______ ____
ROOT
ATOM      1  C   UNL     1      -0.019   1.519   0.010  0.00  0.00    +0.008 C 
ATOM      2  C   UNL     1       0.002  -0.004   0.002  0.00  0.00    -0.001 C 
ATOM      3  C   UNL     1      -1.421  -0.552  -0.055  0.00  0.00    +0.008 C 
ATOM      4  C   UNL     1      -1.330  -2.070  -0.267  0.00  0.00    +0.027 C 
ATOM      5  C   UNL     1      -0.522  -2.652   0.859  0.00  0.00    -0.027 C 
ATOM      6  C   UNL     1       0.396  -1.983   1.489  0.00  0.00    -0.061 C 
ATOM      7  C   UNL     1       0.777  -0.558   1.184  0.00  0.00    +0.018 C 
ATOM      8  C   UNL     1       0.593   0.263   2.450  0.00  0.00    +0.132 C 
ATOM      9  C   UNL     1       1.141  -0.354   3.707  0.00  0.00    +0.071 C 
ATOM     10  C   UNL     1       0.916  -1.857   3.908  0.00  0.00    +0.187 C 
ATOM     11  C   UNL     1       1.144  -2.655   2.621  0.00  0.00    +0.076 C 
ATOM     12  O   UNL     1       2.006  -2.226   4.798  0.00  0.00    -0.460 OA
ATOM     13  C   UNL     1       3.100  -1.545   4.395  0.00  0.00    +0.309 C 
ATOM     14  O   UNL     1       4.234  -1.954   4.384  0.00  0.00    -0.251 OA
ATOM     15  C   UNL     1       2.641  -0.161   3.956  0.00  0.00    +0.090 C 
ATOM     16  C   UNL     1       2.256  -0.541   0.774  0.00  0.00    +0.018 C 
ENDROOT
BRANCH   8  17
ATOM     17  O   UNL     1      -0.803   0.509   2.667  0.00  0.00    -0.391 OA
ATOM     18  H   UNL     1      -0.992   1.029   3.461  0.00  0.00    +0.210 HD
ENDBRANCH   8  17
BRANCH  15  19
ATOM     19  C   UNL     1       2.870   0.850   5.088  0.00  0.00    -0.067 C 
BRANCH  19  20
ATOM     20  N   UNL     1       4.309   1.110   5.229  0.00  0.00    +0.381 N 
ATOM     21  H   UNL     1       4.787   0.248   5.446  0.00  0.00    -0.086 HD
ATOM     22  H   UNL     1       4.669   1.486   4.365  0.00  0.00    -0.086 HD
BRANCH  20  23
ATOM     23  C   UNL     1       4.528   2.078   6.313  0.00  0.00    -0.075 C 
ATOM     24  C   UNL     1       3.918   3.428   5.925  0.00  0.00    -0.034 C 
ATOM     25  C   UNL     1       4.219   4.451   7.022  0.00  0.00    -0.080 C 
ATOM     26  N   UNL     1       5.671   4.595   7.177  0.00  0.00    +0.382 N 
ATOM     27  C   UNL     1       6.254   3.322   7.619  0.00  0.00    -0.080 C 
ATOM     28  C   UNL     1       6.031   2.255   6.545  0.00  0.00    -0.034 C 
ATOM     29  H   UNL     1       6.078   4.861   6.293  0.00  0.00    -0.081 HD
BRANCH  26  30
ATOM     30  C   UNL     1       5.955   5.634   8.176  0.00  0.00    -0.043 C 
BRANCH  30  31
ATOM     31  C   UNL     1       7.442   5.870   8.247  0.00  0.00    -0.064 A 
ATOM     32  C   UNL     1       8.217   5.134   9.124  0.00  0.00    +0.002 A 
ATOM     33  C   UNL     1       9.581   5.350   9.190  0.00  0.00    +0.000 A 
ATOM     34  C   UNL     1      10.169   6.301   8.378  0.00  0.00    +0.000 A 
ATOM     35  C   UNL     1       9.395   7.037   7.501  0.00  0.00    +0.000 A 
ATOM     36  C   UNL     1       8.031   6.818   7.432  0.00  0.00    +0.002 A 
ENDBRANCH  30  31
ENDBRANCH  26  30
ENDBRANCH  20  23
ENDBRANCH  19  20
ENDBRANCH  15  19
TORSDOF 6
