REMARK  Name = ZINC36310128
REMARK  18 active torsions:
REMARK  status: ('A' for Active; 'I' for Inactive)
REMARK    1  A    between atoms: C_1  and  C_2
REMARK    2  A    between atoms: C_5  and  O_9
REMARK    3  A    between atoms: C_6  and  C_8
REMARK    4  A    between atoms: O_9  and  C_10
REMARK    5  A    between atoms: C_10  and  C_11
REMARK    6  A    between atoms: C_21  and  C_23
REMARK    7  A    between atoms: C_23  and  N_24
REMARK    8  A    between atoms: N_24  and  C_25
REMARK    9  A    between atoms: N_24  and  C_30
REMARK   10  A    between atoms: C_25  and  C_26
REMARK   11  A    between atoms: C_26  and  C_27
REMARK   12  A    between atoms: C_27  and  C_28
REMARK   13  A    between atoms: C_27  and  C_29
REMARK   14  A    between atoms: C_30  and  C_31
REMARK   15  A    between atoms: C_31  and  C_33
REMARK   16  A    between atoms: C_31  and  O_37
REMARK   17  A    between atoms: C_33  and  C_34
REMARK   18  A    between atoms: C_34  and  C_35
REMARK                            x       y       z     vdW  Elec       q    Type
REMARK                         _______ _______ _______ _____ _____    ______ ____
ROOT
ATOM      1  C   UNL     1       0.661  -8.660  -1.052  0.00  0.00    +0.144 C 
ATOM      2  C   UNL     1       1.567  -9.370  -0.048  0.00  0.00    -0.014 A 
ATOM      3  C   UNL     1       2.772  -9.974  -0.401  0.00  0.00    +0.013 A 
ATOM      4  C   UNL     1       3.526 -10.583   0.543  0.00  0.00    +0.046 A 
ATOM      5  S   UNL     1       2.547 -10.329   2.016  0.00  0.00    -0.101 S 
ATOM      6  C   UNL     1       1.211  -9.437   1.264  0.00  0.00    -0.004 A 
ATOM      7  C   UNL     1      -0.019  -8.889   1.911  0.00  0.00    +0.061 C 
ATOM      8  C   UNL     1      -0.665  -7.871   0.958  0.00  0.00    +0.113 C 
ATOM      9  N   UNL     1      -0.637  -8.430  -0.403  0.00  0.00    -0.292 N 
ATOM     10  C   UNL     1      -1.784  -8.726  -1.045  0.00  0.00    +0.200 C 
ATOM     11  O   UNL     1      -1.750  -9.187  -2.167  0.00  0.00    -0.278 OA
ENDROOT
BRANCH   1  12
ATOM     12  C   UNL     1       1.283  -7.322  -1.455  0.00  0.00    +0.256 C 
BRANCH  12  13
ATOM     13  O   UNL     1       1.564  -6.554  -0.282  0.00  0.00    -0.490 OA
BRANCH  13  18
ATOM     14  C   UNL     1       3.881  -1.477  -1.042  0.00  0.00    +0.044 C 
ATOM     15  C   UNL     1       3.261  -2.836  -0.839  0.00  0.00    -0.050 A 
ATOM     16  C   UNL     1       2.966  -3.630  -1.931  0.00  0.00    +0.007 A 
ATOM     17  C   UNL     1       2.397  -4.875  -1.748  0.00  0.00    +0.046 A 
ATOM     18  C   UNL     1       2.123  -5.330  -0.465  0.00  0.00    +0.124 A 
ATOM     19  C   UNL     1       2.422  -4.531   0.629  0.00  0.00    -0.009 A 
ATOM     20  C   UNL     1       2.995  -3.288   0.440  0.00  0.00    +0.010 A 
ATOM     21  C   UNL     1       2.126  -5.022   2.023  0.00  0.00    +0.047 C 
ENDBRANCH  13  18
ENDBRANCH  12  13
ENDBRANCH   1  12
BRANCH  10  22
ATOM     22  C   UNL     1      -3.110  -8.486  -0.370  0.00  0.00    +0.019 C 
BRANCH  22  23
ATOM     23  N   UNL     1      -4.199  -8.748  -1.320  0.00  0.00    +0.387 N 
ATOM     24  H   UNL     1      -4.083  -9.668  -1.719  0.00  0.00    -0.081 HD
BRANCH  23  25
ATOM     25  C   UNL     1      -4.166  -7.742  -2.391  0.00  0.00    -0.078 C 
BRANCH  25  26
ATOM     26  C   UNL     1      -4.428  -6.357  -1.798  0.00  0.00    -0.016 C 
BRANCH  26  27
ATOM     27  C   UNL     1      -4.496  -5.324  -2.924  0.00  0.00    -0.019 C 
ATOM     28  C   UNL     1      -4.881  -3.961  -2.345  0.00  0.00    +0.007 C 
ATOM     29  C   UNL     1      -3.130  -5.221  -3.605  0.00  0.00    +0.007 C 
ENDBRANCH  26  27
ENDBRANCH  25  26
ENDBRANCH  23  25
BRANCH  23  30
ATOM     30  C   UNL     1      -5.488  -8.676  -0.620  0.00  0.00    -0.047 C 
BRANCH  30  31
ATOM     31  C   UNL     1      -6.608  -9.111  -1.568  0.00  0.00    +0.098 C 
BRANCH  31  32
ATOM     32  O   UNL     1      -6.751  -8.145  -2.611  0.00  0.00    -0.394 OA
ATOM     33  H   UNL     1      -6.972  -7.257  -2.297  0.00  0.00    +0.210 HD
ENDBRANCH  31  32
BRANCH  31  34
ATOM     34  C   UNL     1      -7.920  -9.220  -0.789  0.00  0.00    +0.033 C 
BRANCH  34  35
ATOM     35  C   UNL     1      -9.013  -9.774  -1.707  0.00  0.00    +0.029 C 
BRANCH  35  36
ATOM     36  C   UNL     1     -10.306  -9.882  -0.940  0.00  0.00    -0.034 C 
ATOM     37  C   UNL     1     -11.386  -9.297  -1.394  0.00  0.00    +0.004 C 
ENDBRANCH  35  36
ENDBRANCH  34  35
ENDBRANCH  31  34
ENDBRANCH  30  31
ENDBRANCH  23  30
ENDBRANCH  22  23
ENDBRANCH  10  22
TORSDOF 14
