REMARK  Name = ZINC40827039
REMARK  11 active torsions:
REMARK  status: ('A' for Active; 'I' for Inactive)
REMARK    1  A    between atoms: C_1  and  C_2
REMARK    2  A    between atoms: C_2  and  C_3
REMARK    3  A    between atoms: C_6  and  O_9
REMARK    4  A    between atoms: O_9  and  C_10
REMARK    5  A    between atoms: C_10  and  C_12
REMARK    6  A    between atoms: C_13  and  C_37
REMARK    7  A    between atoms: N_21  and  N_22
REMARK    8  A    between atoms: C_23  and  C_25
REMARK    9  A    between atoms: C_25  and  C_26
REMARK   10  A    between atoms: C_31  and  C_36
REMARK   11  A    between atoms: C_33  and  C_35
REMARK                            x       y       z     vdW  Elec       q    Type
REMARK                         _______ _______ _______ _____ _____    ______ ____
ROOT
ATOM      1  C   UNL     1      -7.331  -2.473  -1.172  0.00  0.00    +0.215 A 
ATOM      2  C   UNL     1      -8.090  -2.636  -2.299  0.00  0.00    +0.011 A 
ATOM      3  C   UNL     1      -9.364  -3.017  -1.862  0.00  0.00    +0.042 A 
ATOM      4  C   UNL     1      -9.330  -3.068  -0.488  0.00  0.00    +0.115 A 
ATOM      5  O   UNL     1      -8.100  -2.747  -0.094  0.00  0.00    -0.452 OA
ATOM      6  C   UNL     1     -10.528  -3.440   0.349  0.00  0.00    +0.075 C 
ATOM      7  C   UNL     1     -11.805  -3.231  -0.471  0.00  0.00    +0.014 C 
ATOM      8  C   UNL     1     -11.712  -3.965  -1.812  0.00  0.00    +0.058 C 
ATOM      9  C   UNL     1     -10.591  -3.333  -2.625  0.00  0.00    +0.070 C 
ATOM     10  N   UNL     1     -10.704  -3.088  -3.894  0.00  0.00    -0.184 NA
ATOM     11  C   UNL     1      -7.643  -2.443  -3.726  0.00  0.00    +0.048 C 
ENDROOT
BRANCH  10  12
ATOM     12  N   UNL     1     -11.891  -3.409  -4.566  0.00  0.00    -0.206 N 
ATOM     13  C   UNL     1     -12.008  -3.155  -5.885  0.00  0.00    +0.237 C 
ATOM     14  O   UNL     1     -11.086  -2.649  -6.489  0.00  0.00    -0.274 OA
ATOM     15  H   UNL     1     -12.628  -3.813  -4.083  0.00  0.00    +0.177 HD
BRANCH  13  16
ATOM     16  C   UNL     1     -13.285  -3.499  -6.608  0.00  0.00    +0.136 C 
BRANCH  16  17
ATOM     17  C   UNL     1     -13.158  -3.118  -8.060  0.00  0.00    +0.007 A 
ATOM     18  C   UNL     1     -13.559  -1.973  -8.629  0.00  0.00    +0.200 A 
ATOM     19  O   UNL     1     -13.281  -1.986  -9.944  0.00  0.00    -0.463 OA
ATOM     20  C   UNL     1     -12.685  -3.143 -10.298  0.00  0.00    +0.136 A 
ATOM     21  C   UNL     1     -12.565  -3.923  -9.135  0.00  0.00    +0.027 A 
ATOM     22  C   UNL     1     -11.975  -5.184  -9.195  0.00  0.00    -0.039 A 
ATOM     23  C   UNL     1     -11.506  -5.659 -10.400  0.00  0.00    +0.007 A 
ATOM     24  C   UNL     1     -11.620  -4.888 -11.548  0.00  0.00    -0.047 A 
ATOM     25  C   UNL     1     -12.210  -3.643 -11.503  0.00  0.00    +0.050 A 
ATOM     26  C   UNL     1     -11.103  -5.421 -12.859  0.00  0.00    +0.044 C 
ATOM     27  C   UNL     1     -11.848  -6.022  -7.949  0.00  0.00    +0.044 C 
ENDBRANCH  16  17
ENDBRANCH  13  16
ENDBRANCH  10  12
BRANCH   1  28
ATOM     28  C   UNL     1      -5.921  -2.075  -1.140  0.00  0.00    +0.380 C 
ATOM     29  O   UNL     1      -5.328  -1.853  -2.178  0.00  0.00    -0.241 OA
BRANCH  28  30
ATOM     30  O   UNL     1      -5.282  -1.954   0.042  0.00  0.00    -0.420 OA
BRANCH  30  34
ATOM     31  C   UNL     1      -1.429  -0.480   0.018  0.00  0.00    -0.047 A 
ATOM     32  C   UNL     1      -2.488   0.353  -0.291  0.00  0.00    +0.007 A 
ATOM     33  C   UNL     1      -3.779  -0.138  -0.283  0.00  0.00    +0.046 A 
ATOM     34  C   UNL     1      -4.013  -1.469   0.034  0.00  0.00    +0.132 A 
ATOM     35  C   UNL     1      -2.948  -2.303   0.343  0.00  0.00    +0.046 A 
ATOM     36  C   UNL     1      -1.658  -1.808   0.329  0.00  0.00    +0.007 A 
BRANCH  31  38
ATOM     37  C   UNL     1       0.580  -0.108  -1.388  0.00  0.00    +0.009 C 
ATOM     38  C   UNL     1      -0.021   0.058   0.009  0.00  0.00    +0.032 C 
ENDBRANCH  31  38
ENDBRANCH  30  34
ENDBRANCH  28  30
ENDBRANCH   1  28
TORSDOF 7
