REMARK  Name = ZINC61820186
REMARK  4 active torsions:
REMARK  status: ('A' for Active; 'I' for Inactive)
REMARK    1  A    between atoms: C_1  and  C_2
REMARK    2  A    between atoms: C_2  and  C_18
REMARK    3  A    between atoms: C_9  and  C_14
REMARK    4  A    between atoms: N_15  and  O_16
REMARK                            x       y       z     vdW  Elec       q    Type
REMARK                         _______ _______ _______ _____ _____    ______ ____
ROOT
ATOM      1  C   UNL     1      -0.021   1.522  -0.040  0.00  0.00    +0.011 C 
ATOM      2  C   UNL     1       0.001  -0.007  -0.038  0.00  0.00    -0.032 C 
ATOM      3  C   UNL     1       0.723  -0.508  -1.291  0.00  0.00    +0.025 C 
ATOM      4  C   UNL     1       2.148   0.052  -1.313  0.00  0.00    +0.107 C 
ATOM      5  N   UNL     1       2.814  -0.300  -0.051  0.00  0.00    -0.315 N 
ATOM      6  C   UNL     1       2.160   0.055   1.216  0.00  0.00    +0.107 C 
ATOM      7  C   UNL     1       0.734  -0.506   1.209  0.00  0.00    +0.025 C 
ATOM      8  C   UNL     1       4.035  -0.955  -0.056  0.00  0.00    +0.132 A 
ATOM      9  C   UNL     1       5.223  -0.215  -0.159  0.00  0.00    +0.058 A 
ATOM     10  C   UNL     1       6.443  -0.896  -0.162  0.00  0.00    +0.016 A 
ATOM     11  C   UNL     1       6.426  -2.278  -0.063  0.00  0.00    +0.020 A 
ATOM     12  C   UNL     1       5.215  -2.937   0.035  0.00  0.00    +0.113 A 
ATOM     13  N   UNL     1       4.074  -2.274   0.042  0.00  0.00    -0.240 NA
ATOM     14  C   UNL     1      -1.435  -0.537  -0.031  0.00  0.00    +0.011 C 
ENDROOT
BRANCH   9  15
ATOM     15  C   UNL     1       5.185   1.259  -0.263  0.00  0.00    +0.166 C 
ATOM     16  N   UNL     1       4.052   1.890  -0.152  0.00  0.00    -0.071 NA
ATOM     17  N   UNL     1       6.354   1.969  -0.479  0.00  0.00    -0.340 N 
ATOM     18  H   UNL     1       7.199   1.499  -0.562  0.00  0.00    +0.144 HD
ATOM     19  H   UNL     1       6.329   2.936  -0.547  0.00  0.00    +0.144 HD
BRANCH  16  20
ATOM     20  O   UNL     1       3.998   3.290  -0.357  0.00  0.00    -0.408 OA
ATOM     21  H   UNL     1       3.115   3.670  -0.252  0.00  0.00    +0.328 HD
ENDBRANCH  16  20
ENDBRANCH   9  15
TORSDOF 2
