REMARK  Name = ZINC40051754
REMARK  9 active torsions:
REMARK  status: ('A' for Active; 'I' for Inactive)
REMARK    1  A    between atoms: C_1  and  C_2
REMARK    2  A    between atoms: C_2  and  O_3
REMARK    3  A    between atoms: O_3  and  C_4
REMARK    4  A    between atoms: C_4  and  C_6
REMARK    5  A    between atoms: C_10  and  N_11
REMARK    6  A    between atoms: C_12  and  C_14
REMARK    7  A    between atoms: C_14  and  N_15
REMARK    8  A    between atoms: C_19  and  C_27
REMARK    9  A    between atoms: C_24  and  C_26
REMARK                            x       y       z     vdW  Elec       q    Type
REMARK                         _______ _______ _______ _____ _____    ______ ____
ROOT
ATOM      1  C   UNL     1       0.877  -7.154   1.284  0.00  0.00    +0.214 C 
ENDROOT
BRANCH   1   2
ATOM      2  N   UNL     1       1.242  -8.449   1.864  0.00  0.00    -0.215 N 
ATOM      3  C   UNL     1       2.393  -9.101   1.601  0.00  0.00    +0.247 C 
ATOM      4  O   UNL     1       3.289  -8.741   0.867  0.00  0.00    -0.273 OA
ATOM      5  C   UNL     1       2.331 -10.374   2.413  0.00  0.00    +0.118 C 
ATOM      6  C   UNL     1       3.475 -10.419   3.420  0.00  0.00    +0.019 C 
ATOM      7  C   UNL     1       3.376 -11.700   4.251  0.00  0.00    +0.006 C 
ATOM      8  C   UNL     1       3.443 -12.915   3.323  0.00  0.00    +0.001 C 
ATOM      9  C   UNL     1       2.276 -12.868   2.335  0.00  0.00    +0.006 C 
ATOM     10  C   UNL     1       2.371 -11.592   1.496  0.00  0.00    +0.019 C 
ATOM     11  C   UNL     1       3.683 -11.595   0.709  0.00  0.00    +0.010 C 
ATOM     12  C   UNL     1       3.388  -9.204   4.345  0.00  0.00    +0.010 C 
ATOM     13  N   UNL     1       1.039 -10.293   3.105  0.00  0.00    -0.284 N 
ATOM     14  C   UNL     1       0.476  -9.130   2.726  0.00  0.00    +0.310 C 
ATOM     15  O   UNL     1      -0.607  -8.743   3.119  0.00  0.00    -0.252 OA
ATOM     16  H   UNL     1       0.666 -10.946   3.717  0.00  0.00    +0.151 HD
ENDBRANCH   1   2
BRANCH   1  18
ATOM     17  N   UNL     1       1.163  -4.759   1.836  0.00  0.00    -0.278 N 
ATOM     18  C   UNL     1       1.383  -6.046   2.172  0.00  0.00    +0.236 C 
ATOM     19  O   UNL     1       1.989  -6.312   3.189  0.00  0.00    -0.274 OA
ATOM     20  H   UNL     1       0.679  -4.547   1.022  0.00  0.00    +0.155 HD
BRANCH  17  25
ATOM     21  C   UNL     1       1.496  -2.371   2.467  0.00  0.00    +0.087 A 
ATOM     22  C   UNL     1       2.076  -1.523   3.484  0.00  0.00    +0.024 A 
ATOM     23  C   UNL     1       2.687  -2.160   4.500  0.00  0.00    +0.048 A 
ATOM     24  S   UNL     1       2.483  -3.879   4.089  0.00  0.00    -0.081 S 
ATOM     25  C   UNL     1       1.629  -3.740   2.652  0.00  0.00    +0.086 A 
BRANCH  21  26
ATOM     26  C   UNL     1       0.801  -1.814   1.305  0.00  0.00    +0.342 C 
ATOM     27  O   UNL     1       0.321  -2.557   0.470  0.00  0.00    -0.245 OA
BRANCH  26  28
ATOM     28  O   UNL     1       0.693  -0.477   1.160  0.00  0.00    -0.461 OA
BRANCH  28  30
ATOM     29  C   UNL     1      -0.019   1.526   0.010  0.00  0.00    +0.048 C 
ATOM     30  C   UNL     1       0.002  -0.004   0.002  0.00  0.00    +0.229 C 
ENDBRANCH  28  30
ENDBRANCH  26  28
ENDBRANCH  21  26
ENDBRANCH  17  25
ENDBRANCH   1  18
TORSDOF 6
