REMARK  Name = ZINC39710021
REMARK  3 active torsions:
REMARK  status: ('A' for Active; 'I' for Inactive)
REMARK    1  A    between atoms: C_1  and  C_2
REMARK    2  A    between atoms: N_6  and  C_9
REMARK    3  A    between atoms: C_12  and  C_16
REMARK                            x       y       z     vdW  Elec       q    Type
REMARK                         _______ _______ _______ _____ _____    ______ ____
ROOT
ATOM      1  C   UNL     1       0.055  -3.328   1.535  0.00  0.00    +0.235 C 
ATOM      2  N   UNL     1       1.236  -4.179   1.232  0.00  0.00    -0.279 NA
ATOM      3  C   UNL     1       0.951  -5.611   1.440  0.00  0.00    +0.096 C 
ATOM      4  C   UNL     1      -0.387  -5.962   0.723  0.00  0.00    +0.096 C 
ATOM      5  S   UNL     1      -1.357  -4.442   1.144  0.00  0.00    -0.117 S 
ATOM      6  H   UNL     1       1.573  -4.010   0.297  0.00  0.00    +0.125 HD
ENDROOT
BRANCH   1  12
ATOM      7  C   UNL     1      -0.018   1.503   0.010  0.00  0.00    +0.065 C 
ATOM      8  C   UNL     1       0.002  -0.004   0.002  0.00  0.00    +0.035 A 
ATOM      9  C   UNL     1       0.008  -0.786  -1.096  0.00  0.00    +0.094 A 
ATOM     10  C   UNL     1       0.029  -2.136  -0.674  0.00  0.00    +0.269 A 
ATOM     11  O   UNL     1       0.040  -3.116  -1.397  0.00  0.00    -0.266 OA
ATOM     12  N   UNL     1       0.035  -2.142   0.675  0.00  0.00    -0.224 N 
ATOM     13  N   UNL     1       0.024  -0.808   1.106  0.00  0.00    -0.297 N 
ATOM     14  H   UNL     1       0.028  -0.509   2.028  0.00  0.00    +0.187 HD
ENDBRANCH   1  12
BRANCH   3  15
ATOM     15  C   UNL     1       2.068  -6.439   0.859  0.00  0.00    -0.030 A 
ATOM     16  C   UNL     1       2.665  -6.059  -0.329  0.00  0.00    +0.005 A 
ATOM     17  C   UNL     1       3.689  -6.818  -0.862  0.00  0.00    +0.000 A 
ATOM     18  C   UNL     1       4.116  -7.959  -0.209  0.00  0.00    +0.000 A 
ATOM     19  C   UNL     1       3.520  -8.339   0.979  0.00  0.00    +0.000 A 
ATOM     20  C   UNL     1       2.498  -7.577   1.515  0.00  0.00    +0.005 A 
ENDBRANCH   3  15
TORSDOF 2
