REMARK  Name = ZINC12677594
REMARK  12 active torsions:
REMARK  status: ('A' for Active; 'I' for Inactive)
REMARK    1  A    between atoms: C_1  and  C_2
REMARK    2  A    between atoms: C_5  and  S_25
REMARK    3  A    between atoms: C_7  and  N_8
REMARK    4  A    between atoms: C_9  and  C_11
REMARK    5  A    between atoms: C_11  and  C_13
REMARK    6  A    between atoms: C_11  and  O_14
REMARK    7  A    between atoms: O_14  and  C_15
REMARK    8  A    between atoms: C_15  and  C_17
REMARK    9  A    between atoms: C_21  and  N_23
REMARK   10  A    between atoms: S_25  and  N_28
REMARK   11  A    between atoms: N_28  and  C_29
REMARK   12  A    between atoms: N_28  and  C_30
REMARK                            x       y       z     vdW  Elec       q    Type
REMARK                         _______ _______ _______ _____ _____    ______ ____
ROOT
ATOM      1  N   UNL     1      -1.199  -0.722   0.009  0.00  0.00    -0.282 N 
ATOM      2  C   UNL     1      -2.373  -0.070   0.125  0.00  0.00    +0.258 C 
ATOM      3  O   UNL     1      -2.395   1.143   0.132  0.00  0.00    -0.271 OA
ATOM      4  H   UNL     1      -1.187  -1.689  -0.062  0.00  0.00    +0.155 HD
ENDROOT
BRANCH   1  11
ATOM      5  C   UNL     1       1.090  -1.899   1.223  0.00  0.00    +0.045 C 
ATOM      6  C   UNL     1       1.143  -0.540   0.572  0.00  0.00    -0.029 A 
ATOM      7  C   UNL     1       2.326   0.171   0.552  0.00  0.00    +0.007 A 
ATOM      8  C   UNL     1       2.376   1.417  -0.046  0.00  0.00    +0.029 A 
ATOM      9  C   UNL     1       1.241   1.955  -0.625  0.00  0.00    +0.107 A 
ATOM     10  C   UNL     1       0.054   1.249  -0.608  0.00  0.00    +0.052 A 
ATOM     11  C   UNL     1       0.002  -0.003  -0.009  0.00  0.00    +0.038 A 
BRANCH   9  12
ATOM     12  S   UNL     1       1.310   3.543  -1.385  0.00  0.00    +0.060 S 
ATOM     13  O   UNL     1       2.666   3.761  -1.748  0.00  0.00    -0.153 OA
ATOM     14  O   UNL     1       0.252   3.585  -2.333  0.00  0.00    -0.153 OA
BRANCH  12  15
ATOM     15  N   UNL     1       0.945   4.660  -0.219  0.00  0.00    -0.183 NA
ATOM     16  C   UNL     1       2.014   5.245   0.595  0.00  0.00    +0.131 C 
ATOM     17  C   UNL     1      -0.446   5.065  -0.001  0.00  0.00    +0.131 C 
ENDBRANCH  12  15
ENDBRANCH   9  12
ENDBRANCH   1  11
BRANCH   2  18
ATOM     18  C   UNL     1      -3.658  -0.847   0.246  0.00  0.00    +0.259 C 
ATOM     19  C   UNL     1      -3.843  -1.723  -0.994  0.00  0.00    +0.062 C 
BRANCH  18  20
ATOM     20  O   UNL     1      -4.774   0.076   0.358  0.00  0.00    -0.449 OA
BRANCH  20  21
ATOM     21  C   UNL     1      -5.844  -0.340   1.062  0.00  0.00    +0.340 C 
ATOM     22  O   UNL     1      -5.845  -1.444   1.570  0.00  0.00    -0.245 OA
BRANCH  21  23
ATOM     23  C   UNL     1      -7.015   0.545   1.218  0.00  0.00    +0.061 A 
ATOM     24  C   UNL     1      -7.014   1.817   0.640  0.00  0.00    +0.016 A 
ATOM     25  C   UNL     1      -8.111   2.641   0.783  0.00  0.00    +0.022 A 
ATOM     26  C   UNL     1      -9.211   2.216   1.506  0.00  0.00    +0.062 A 
ATOM     27  C   UNL     1      -9.220   0.953   2.090  0.00  0.00    +0.044 A 
ATOM     28  C   UNL     1      -8.125   0.117   1.948  0.00  0.00    +0.039 A 
ATOM     29 CL   UNL     1     -10.585   3.262   1.685  0.00  0.00    -0.082 Cl
BRANCH  27  30
ATOM     30  N   UNL     1     -10.335   0.528   2.819  0.00  0.00    -0.357 N 
ATOM     31  H   UNL     1     -10.341  -0.352   3.226  0.00  0.00    +0.142 HD
ATOM     32  H   UNL     1     -11.101   1.114   2.919  0.00  0.00    +0.142 HD
ENDBRANCH  27  30
ENDBRANCH  21  23
ENDBRANCH  20  21
ENDBRANCH  18  20
ENDBRANCH   2  18
TORSDOF 8
