REMARK  Name = ZINC27342825
REMARK  6 active torsions:
REMARK  status: ('A' for Active; 'I' for Inactive)
REMARK    1  A    between atoms: C_1  and  C_2
REMARK    2  A    between atoms: C_2  and  O_3
REMARK    3  A    between atoms: O_3  and  C_4
REMARK    4  A    between atoms: C_4  and  C_6
REMARK    5  A    between atoms: N_9  and  C_12
REMARK    6  A    between atoms: C_12  and  C_13
REMARK                            x       y       z     vdW  Elec       q    Type
REMARK                         _______ _______ _______ _____ _____    ______ ____
ROOT
ATOM      1  C   UNL     1      -1.464  -0.357   0.267  0.00  0.00    +0.116 A 
ATOM      2  N   UNL     1      -1.844  -0.595   1.510  0.00  0.00    -0.219 NA
ATOM      3  C   UNL     1      -2.979  -1.212   1.794  0.00  0.00    +0.128 A 
ATOM      4  C   UNL     1      -3.816  -1.647   0.729  0.00  0.00    +0.051 A 
ATOM      5  C   UNL     1      -5.100  -2.347   0.799  0.00  0.00    -0.025 A 
ATOM      6  C   UNL     1      -5.697  -2.648  -0.372  0.00  0.00    -0.004 A 
ATOM      7  S   UNL     1      -4.604  -2.029  -1.622  0.00  0.00    -0.073 S 
ATOM      8  C   UNL     1      -3.342  -1.363  -0.568  0.00  0.00    +0.114 A 
ATOM      9  N   UNL     1      -2.198  -0.736  -0.761  0.00  0.00    -0.227 NA
ATOM     10  C   UNL     1      -7.004  -3.355  -0.568  0.00  0.00    +0.043 C 
ATOM     11  C   UNL     1      -7.399  -4.022   0.757  0.00  0.00    +0.005 C 
ATOM     12  C   UNL     1      -7.235  -3.002   1.888  0.00  0.00    +0.005 C 
ATOM     13  C   UNL     1      -5.750  -2.726   2.127  0.00  0.00    +0.037 C 
ATOM     14  N   UNL     1      -3.344  -1.438   3.109  0.00  0.00    -0.343 N 
ATOM     15  H   UNL     1      -4.290  -1.952   3.337  0.00  0.00    +0.144 HD
ATOM     16  H   UNL     1      -2.689  -1.103   3.927  0.00  0.00    +0.144 HD
ENDROOT
BRANCH   1  17
ATOM     17  C   UNL     1      -0.161   0.358   0.019  0.00  0.00    -0.001 C 
BRANCH  17  21
ATOM     18  C   UNL     1      -0.321   4.543   0.881  0.00  0.00    +0.094 C 
ATOM     19  C   UNL     1       0.585   4.039  -0.246  0.00  0.00    -0.004 C 
ATOM     20  C   UNL     1       0.867   2.549  -0.041  0.00  0.00    -0.077 C 
ATOM     21  N   UNL     1      -0.400   1.806  -0.037  0.00  0.00    +0.384 N 
ATOM     22  C   UNL     1      -1.267   2.240   1.065  0.00  0.00    -0.077 C 
ATOM     23  C   UNL     1      -1.612   3.721   0.893  0.00  0.00    -0.004 C 
ATOM     24  H   UNL     1      -0.921   2.028  -0.981  0.00  0.00    -0.081 HD
BRANCH  18  25
ATOM     25  C   UNL     1      -0.650   5.995   0.652  0.00  0.00    +0.310 C 
ATOM     26  O   UNL     1      -0.206   6.570  -0.314  0.00  0.00    -0.251 OA
BRANCH  25  27
ATOM     27  O   UNL     1      -1.436   6.651   1.520  0.00  0.00    -0.465 OA
BRANCH  27  29
ATOM     28  C   UNL     1      -2.617   8.622   2.328  0.00  0.00    +0.048 C 
ATOM     29  C   UNL     1      -1.712   8.048   1.236  0.00  0.00    +0.229 C 
ENDBRANCH  27  29
ENDBRANCH  25  27
ENDBRANCH  18  25
ENDBRANCH  17  21
ENDBRANCH   1  17
TORSDOF 5
