REMARK  Name = ZINC02127410
REMARK  16 active torsions:
REMARK  status: ('A' for Active; 'I' for Inactive)
REMARK    1  A    between atoms: C_1  and  C_2
REMARK    2  A    between atoms: C_2  and  C_3
REMARK    3  A    between atoms: C_3  and  N_4
REMARK    4  A    between atoms: N_4  and  C_5
REMARK    5  A    between atoms: N_4  and  C_8
REMARK    6  A    between atoms: C_5  and  C_6
REMARK    7  A    between atoms: C_6  and  C_7
REMARK    8  A    between atoms: C_8  and  C_9
REMARK    9  A    between atoms: C_10  and  O_32
REMARK   10  A    between atoms: C_17  and  C_18
REMARK   11  A    between atoms: C_21  and  O_28
REMARK   12  A    between atoms: C_22  and  O_26
REMARK   13  A    between atoms: C_23  and  O_24
REMARK   14  A    between atoms: O_24  and  C_25
REMARK   15  A    between atoms: O_26  and  C_27
REMARK   16  A    between atoms: O_28  and  C_29
REMARK                            x       y       z     vdW  Elec       q    Type
REMARK                         _______ _______ _______ _____ _____    ______ ____
ROOT
ATOM      1  C   UNL     1      -2.957  -4.180  -0.819  0.00  0.00    +0.020 A 
ATOM      2  C   UNL     1      -3.003  -4.934  -1.980  0.00  0.00    +0.122 A 
ATOM      3  C   UNL     1      -3.209  -6.310  -1.923  0.00  0.00    +0.046 A 
ATOM      4  C   UNL     1      -3.368  -6.931  -0.717  0.00  0.00    +0.019 A 
ATOM      5  C   UNL     1      -3.324  -6.184   0.461  0.00  0.00    +0.068 A 
ATOM      6  C   UNL     1      -3.111  -4.797   0.416  0.00  0.00    +0.144 A 
ATOM      7  O   UNL     1      -3.102  -4.298   1.671  0.00  0.00    -0.451 OA
ATOM      8  C   UNL     1      -3.292  -5.266   2.599  0.00  0.00    +0.176 C 
ATOM      9  C   UNL     1      -3.334  -5.090   3.946  0.00  0.00    +0.062 C 
ATOM     10  C   UNL     1      -3.456  -6.539   1.886  0.00  0.00    +0.231 C 
ATOM     11  O   UNL     1      -3.647  -7.643   2.365  0.00  0.00    -0.283 OA
ENDROOT
BRANCH   9  12
ATOM     12  C   UNL     1      -3.387  -6.253   4.836  0.00  0.00    +0.024 A 
ATOM     13  C   UNL     1      -2.593  -7.377   4.573  0.00  0.00    +0.015 A 
ATOM     14  C   UNL     1      -2.644  -8.467   5.411  0.00  0.00    +0.050 A 
ATOM     15  C   UNL     1      -3.483  -8.461   6.521  0.00  0.00    +0.165 A 
ATOM     16  C   UNL     1      -4.277  -7.352   6.794  0.00  0.00    +0.204 A 
ATOM     17  C   UNL     1      -4.230  -6.244   5.961  0.00  0.00    +0.172 A 
BRANCH  17  18
ATOM     18  O   UNL     1      -5.000  -5.157   6.228  0.00  0.00    -0.491 OA
ATOM     19  C   UNL     1      -6.309  -5.132   5.654  0.00  0.00    +0.277 C 
ENDBRANCH  17  18
BRANCH  16  20
ATOM     20  O   UNL     1      -5.096  -7.352   7.881  0.00  0.00    -0.488 OA
ATOM     21  C   UNL     1      -4.550  -6.856   9.104  0.00  0.00    +0.277 C 
ENDBRANCH  16  20
BRANCH  15  22
ATOM     22  O   UNL     1      -3.527  -9.542   7.341  0.00  0.00    -0.491 OA
ATOM     23  C   UNL     1      -2.686 -10.647   7.003  0.00  0.00    +0.277 C 
ENDBRANCH  15  22
ENDBRANCH   9  12
BRANCH   2  24
ATOM     24  O   UNL     1      -2.847  -4.327  -3.184  0.00  0.00    -0.506 OA
ATOM     25  H   UNL     1      -1.929  -4.279  -3.484  0.00  0.00    +0.292 HD
ENDBRANCH   2  24
BRANCH   1  26
ATOM     26  C   UNL     1      -2.733  -2.692  -0.896  0.00  0.00    -0.036 C 
BRANCH  26  27
ATOM     27  N   UNL     1      -1.312  -2.398  -0.672  0.00  0.00    +0.383 N 
ATOM     28  H   UNL     1      -1.016  -2.810   0.201  0.00  0.00    -0.081 HD
BRANCH  27  29
ATOM     29  C   UNL     1      -0.517  -2.960  -1.772  0.00  0.00    -0.079 C 
BRANCH  29  31
ATOM     30  C   UNL     1       1.800  -3.348  -2.623  0.00  0.00    +0.002 C 
ATOM     31  C   UNL     1       0.972  -2.763  -1.477  0.00  0.00    -0.022 C 
ENDBRANCH  29  31
ENDBRANCH  27  29
BRANCH  27  32
ATOM     32  C   UNL     1      -1.115  -0.943  -0.618  0.00  0.00    -0.079 C 
BRANCH  32  33
ATOM     33  C   UNL     1      -1.815  -0.379   0.620  0.00  0.00    -0.022 C 
ATOM     34  C   UNL     1      -1.681   1.145   0.631  0.00  0.00    +0.002 C 
ENDBRANCH  32  33
ENDBRANCH  27  32
ENDBRANCH  26  27
ENDBRANCH   1  26
TORSDOF 11
