REMARK  Name = ZINC19569299
REMARK  9 active torsions:
REMARK  status: ('A' for Active; 'I' for Inactive)
REMARK    1  A    between atoms: C_1  and  C_2
REMARK    2  A    between atoms: C_4  and  C_35
REMARK    3  A    between atoms: C_7  and  C_14
REMARK    4  A    between atoms: C_14  and  N_15
REMARK    5  A    between atoms: N_15  and  C_16
REMARK    6  A    between atoms: N_15  and  C_28
REMARK    7  A    between atoms: C_16  and  C_17
REMARK    8  A    between atoms: N_21  and  C_22
REMARK    9  A    between atoms: C_28  and  C_29
REMARK                            x       y       z     vdW  Elec       q    Type
REMARK                         _______ _______ _______ _____ _____    ______ ____
ROOT
ATOM      1  N   UNL     1       1.669  -6.666   1.102  0.00  0.00    +0.389 N 
ATOM      2  H   UNL     1       2.242  -6.325   0.344  0.00  0.00    -0.081 HD
ENDROOT
BRANCH   1   3
ATOM      3  C   UNL     1       0.381  -5.960   1.097  0.00  0.00    -0.037 C 
BRANCH   3  10
ATOM      4  C   UNL     1       1.583   1.893   0.385  0.00  0.00    +0.044 C 
ATOM      5  C   UNL     1       1.338   0.409   0.286  0.00  0.00    -0.048 A 
ATOM      6  C   UNL     1       1.154  -0.176  -0.959  0.00  0.00    +0.007 A 
ATOM      7  C   UNL     1       0.932  -1.519  -1.071  0.00  0.00    -0.041 A 
ATOM      8  C   UNL     1       0.888  -2.313   0.080  0.00  0.00    +0.002 A 
ATOM      9  C   UNL     1       0.652  -3.755  -0.003  0.00  0.00    +0.017 A 
ATOM     10  C   UNL     1       0.622  -4.474   1.147  0.00  0.00    +0.001 A 
ATOM     11  C   UNL     1       0.814  -3.834   2.390  0.00  0.00    +0.251 A 
ATOM     12  O   UNL     1       0.783  -4.499   3.412  0.00  0.00    -0.268 OA
ATOM     13  N   UNL     1       1.032  -2.510   2.476  0.00  0.00    -0.322 N 
ATOM     14  H   UNL     1       1.160  -2.103   3.347  0.00  0.00    +0.169 HD
ATOM     15  C   UNL     1       1.075  -1.724   1.345  0.00  0.00    +0.050 A 
ATOM     16  C   UNL     1       1.305  -0.354   1.433  0.00  0.00    +0.029 A 
ATOM     17  C   UNL     1       0.733  -2.143  -2.428  0.00  0.00    +0.044 C 
ENDBRANCH   3  10
ENDBRANCH   1   3
BRANCH   1  18
ATOM     18  C   UNL     1       1.439  -8.107   0.932  0.00  0.00    +0.001 C 
BRANCH  18  19
ATOM     19  C   UNL     1       0.833  -8.363  -0.423  0.00  0.00    +0.135 A 
ATOM     20  N   UNL     1      -0.443  -8.488  -0.699  0.00  0.00    -0.115 NA
ATOM     21  N   UNL     1      -0.557  -8.698  -1.965  0.00  0.00    -0.023 NA
ATOM     22  N   UNL     1       0.612  -8.710  -2.504  0.00  0.00    -0.044 NA
ATOM     23  N   UNL     1       1.495  -8.502  -1.587  0.00  0.00    -0.228 N 
BRANCH  23  24
ATOM     24  C   UNL     1       2.946  -8.433  -1.775  0.00  0.00    +0.111 C 
ATOM     25  C   UNL     1       3.273  -7.383  -2.838  0.00  0.00    +0.027 C 
ATOM     26  C   UNL     1       4.789  -7.311  -3.035  0.00  0.00    +0.002 C 
ATOM     27  C   UNL     1       5.309  -8.676  -3.490  0.00  0.00    +0.000 C 
ATOM     28  C   UNL     1       4.982  -9.726  -2.427  0.00  0.00    +0.002 C 
ATOM     29  C   UNL     1       3.466  -9.798  -2.230  0.00  0.00    +0.027 C 
ENDBRANCH  23  24
ENDBRANCH  18  19
ENDBRANCH   1  18
BRANCH   1  30
ATOM     30  C   UNL     1       2.354  -6.426   2.379  0.00  0.00    -0.046 C 
BRANCH  30  31
ATOM     31  C   UNL     1       3.750  -7.051   2.335  0.00  0.00    +0.102 C 
ATOM     32  C   UNL     1       4.467  -6.826   3.683  0.00  0.00    +0.032 C 
ATOM     33  C   UNL     1       5.924  -6.527   3.235  0.00  0.00    +0.030 C 
ATOM     34  C   UNL     1       5.673  -5.772   1.905  0.00  0.00    +0.160 C 
ATOM     35  O   UNL     1       4.533  -6.420   1.315  0.00  0.00    -0.378 OA
ENDBRANCH  30  31
ENDBRANCH   1  30
TORSDOF 7
