REMARK  Name = ZINC36569729
REMARK  5 active torsions:
REMARK  status: ('A' for Active; 'I' for Inactive)
REMARK    1  A    between atoms: C_6  and  C_7
REMARK    2  A    between atoms: N_11  and  C_15
REMARK    3  A    between atoms: C_15  and  C_16
REMARK    4  A    between atoms: N_18  and  C_19
REMARK    5  A    between atoms: C_24  and  O_26
REMARK                            x       y       z     vdW  Elec       q    Type
REMARK                         _______ _______ _______ _____ _____    ______ ____
ROOT
ATOM      1  C   UNL     1      -1.258  -0.758   0.011  0.00  0.00    +0.028 C 
ATOM      2  C   UNL     1      -2.441  -0.102   0.129  0.00  0.00    +0.077 C 
ATOM      3  C   UNL     1      -3.808  -0.644   0.266  0.00  0.00    +0.259 C 
ATOM      4  O   UNL     1      -4.021  -1.841   0.289  0.00  0.00    -0.269 OA
ATOM      5  N   UNL     1      -4.787   0.239   0.364  0.00  0.00    -0.246 N 
ATOM      6  C   UNL     1      -4.546   1.566   0.338  0.00  0.00    +0.121 C 
ATOM      7  S   UNL     1      -5.669   2.853   0.450  0.00  0.00    -0.027 S 
ATOM      8  S   UNL     1      -2.771   1.654   0.168  0.00  0.00    -0.061 S 
ENDROOT
BRANCH   1  14
ATOM      9  C   UNL     1       0.004   1.346   0.408  0.00  0.00    +0.012 A 
ATOM     10  C   UNL     1       1.190   2.045   0.456  0.00  0.00    +0.050 A 
ATOM     11  C   UNL     1       2.389   1.409   0.162  0.00  0.00    +0.166 A 
ATOM     12  C   UNL     1       2.398   0.056  -0.185  0.00  0.00    +0.167 A 
ATOM     13  C   UNL     1       1.214  -0.651  -0.235  0.00  0.00    +0.057 A 
ATOM     14  C   UNL     1       0.005  -0.010   0.062  0.00  0.00    -0.020 A 
ATOM     15  O   UNL     1       3.688  -0.323  -0.424  0.00  0.00    -0.453 OA
ATOM     16  C   UNL     1       4.418   0.902  -0.621  0.00  0.00    +0.466 C 
ATOM     17  O   UNL     1       3.672   1.872   0.138  0.00  0.00    -0.453 OA
ENDBRANCH   1  14
BRANCH   5  18
ATOM     18  C   UNL     1      -6.167  -0.235   0.502  0.00  0.00    +0.210 C 
BRANCH  18  19
ATOM     19  C   UNL     1      -6.498  -0.397   1.963  0.00  0.00    +0.231 C 
ATOM     20  O   UNL     1      -5.665  -0.141   2.806  0.00  0.00    -0.274 OA
ATOM     21  N   UNL     1      -7.721  -0.825   2.333  0.00  0.00    -0.308 N 
ATOM     22  H   UNL     1      -8.388  -1.030   1.659  0.00  0.00    +0.149 HD
BRANCH  21  23
ATOM     23  C   UNL     1      -8.044  -0.983   3.753  0.00  0.00    +0.112 C 
ATOM     24  C   UNL     1      -7.534  -2.363   4.225  0.00  0.00    +0.094 C 
ATOM     25  S   UNL     1      -8.863  -2.853   5.409  0.00  0.00    -0.156 S 
ATOM     26  C   UNL     1     -10.262  -2.000   4.558  0.00  0.00    +0.102 C 
ATOM     27  C   UNL     1      -9.541  -0.788   3.936  0.00  0.00    +0.145 C 
BRANCH  27  28
ATOM     28  O   UNL     1      -9.755   0.347   4.778  0.00  0.00    -0.389 OA
ATOM     29  H   UNL     1     -10.687   0.542   4.946  0.00  0.00    +0.210 HD
ENDBRANCH  27  28
ENDBRANCH  21  23
ENDBRANCH  18  19
ENDBRANCH   5  18
TORSDOF 5
