REMARK  Name = ZINC22527264
REMARK  4 active torsions:
REMARK  status: ('A' for Active; 'I' for Inactive)
REMARK    1  A    between atoms: C_9  and  C_18
REMARK    2  A    between atoms: C_18  and  N_19
REMARK    3  A    between atoms: C_20  and  C_22
REMARK    4  A    between atoms: C_27  and  N_28
REMARK                            x       y       z     vdW  Elec       q    Type
REMARK                         _______ _______ _______ _____ _____    ______ ____
ROOT
ATOM      1  C   UNL     1       1.128   3.962   2.178  0.00  0.00    +0.000 A 
ATOM      2  C   UNL     1       0.112   3.028   2.094  0.00  0.00    +0.000 A 
ATOM      3  C   UNL     1      -1.177   3.420   1.756  0.00  0.00    +0.004 A 
ATOM      4  C   UNL     1      -1.423   4.742   1.521  0.00  0.00    -0.036 A 
ATOM      5  C   UNL     1      -0.398   5.683   1.606  0.00  0.00    -0.036 A 
ATOM      6  C   UNL     1       0.873   5.305   1.932  0.00  0.00    +0.004 A 
ATOM      7  C   UNL     1      -0.831   7.111   1.310  0.00  0.00    +0.050 C 
ATOM      8  C   UNL     1      -1.436   7.067  -0.112  0.00  0.00    +0.018 C 
ATOM      9  C   UNL     1      -2.558   6.036  -0.205  0.00  0.00    +0.019 C 
ATOM     10  C   UNL     1      -2.778   5.322   1.148  0.00  0.00    +0.054 C 
ATOM     11  C   UNL     1      -3.029   6.433   2.154  0.00  0.00    -0.036 A 
ATOM     12  C   UNL     1      -2.005   7.374   2.239  0.00  0.00    -0.036 A 
ATOM     13  C   UNL     1      -2.095   8.428   3.103  0.00  0.00    +0.004 A 
ATOM     14  C   UNL     1      -3.228   8.547   3.897  0.00  0.00    +0.000 A 
ATOM     15  C   UNL     1      -4.244   7.614   3.813  0.00  0.00    +0.000 A 
ATOM     16  C   UNL     1      -4.145   6.544   2.933  0.00  0.00    +0.004 A 
ENDROOT
BRANCH   9  17
ATOM     17  C   UNL     1      -3.853   6.740  -0.616  0.00  0.00    +0.109 C 
BRANCH  17  18
ATOM     18  N   UNL     1      -3.706   7.282  -1.969  0.00  0.00    -0.311 N 
ATOM     19  C   UNL     1      -4.728   7.949  -2.542  0.00  0.00    +0.246 C 
ATOM     20  O   UNL     1      -5.771   8.100  -1.937  0.00  0.00    -0.270 OA
ATOM     21  H   UNL     1      -2.762   7.145  -2.517  0.00  0.00    +0.149 HD
BRANCH  19  22
ATOM     22  C   UNL     1      -4.579   8.496  -3.908  0.00  0.00    +0.067 A 
ATOM     23  C   UNL     1      -3.520   9.354  -4.208  0.00  0.00    +0.015 A 
ATOM     24  C   UNL     1      -3.387   9.861  -5.484  0.00  0.00    +0.001 A 
ATOM     25  C   UNL     1      -4.301   9.520  -6.465  0.00  0.00    +0.002 A 
ATOM     26  C   UNL     1      -5.353   8.670  -6.175  0.00  0.00    +0.033 A 
ATOM     27  C   UNL     1      -5.494   8.152  -4.904  0.00  0.00    +0.138 A 
BRANCH  27  28
ATOM     28  N   UNL     1      -6.617   7.238  -4.596  0.00  0.00    +0.057 N 
ATOM     29  O   UNL     1      -7.484   7.036  -5.428  0.00  0.00    -0.126 OA
ATOM     30  O   UNL     1      -6.674   6.687  -3.511  0.00  0.00    -0.126 OA
ENDBRANCH  27  28
ENDBRANCH  19  22
ENDBRANCH  17  18
ENDBRANCH   9  17
TORSDOF 4
