REMARK  Name = ZINC24883337
REMARK  9 active torsions:
REMARK  status: ('A' for Active; 'I' for Inactive)
REMARK    1  A    between atoms: C_1  and  C_2
REMARK    2  A    between atoms: C_2  and  C_4
REMARK    3  A    between atoms: C_8  and  N_10
REMARK    4  A    between atoms: N_13  and  C_14
REMARK    5  A    between atoms: N_13  and  C_21
REMARK    6  A    between atoms: C_14  and  C_15
REMARK    7  A    between atoms: N_24  and  C_27
REMARK    8  A    between atoms: C_27  and  C_28
REMARK    9  A    between atoms: C_28  and  C_29
REMARK                            x       y       z     vdW  Elec       q    Type
REMARK                         _______ _______ _______ _____ _____    ______ ____
ROOT
ATOM      1  N   UNL     1       9.904  -1.735  -1.258  0.00  0.00    -0.269 N 
ATOM      2  C   UNL     1       8.661  -1.262  -1.476  0.00  0.00    +0.307 C 
ATOM      3  O   UNL     1       7.701  -1.832  -0.995  0.00  0.00    -0.252 OA
ATOM      4  N   UNL     1       8.483  -0.158  -2.227  0.00  0.00    -0.278 N 
ATOM      5  H   UNL     1      10.765  -1.273  -1.764  0.00  0.00    +0.156 HD
ENDROOT
BRANCH   4   6
ATOM      6  C   UNL     1       7.131   0.357  -2.464  0.00  0.00    +0.074 C 
ATOM      7  C   UNL     1       6.295  -0.711  -3.173  0.00  0.00    +0.004 C 
ATOM      8  C   UNL     1       4.868  -0.192  -3.363  0.00  0.00    -0.077 C 
ATOM      9  N   UNL     1       4.282   0.125  -2.054  0.00  0.00    +0.380 N 
ATOM     10  C   UNL     1       5.042   1.182  -1.374  0.00  0.00    -0.077 C 
ATOM     11  C   UNL     1       6.474   0.703  -1.125  0.00  0.00    +0.004 C 
ATOM     12  H   UNL     1       4.340  -0.781  -1.433  0.00  0.00    -0.082 HD
BRANCH   9  13
ATOM     13  C   UNL     1       2.867   0.495  -2.186  0.00  0.00    -0.074 C 
BRANCH  13  14
ATOM     14  C   UNL     1       2.229   0.574  -0.798  0.00  0.00    +0.024 C 
BRANCH  14  15
ATOM     15  C   UNL     1       0.777   0.954  -0.933  0.00  0.00    -0.012 A 
ATOM     16  C   UNL     1      -0.306   0.151  -1.072  0.00  0.00    +0.011 A 
ATOM     17  C   UNL     1      -1.558   0.727  -1.185  0.00  0.00    +0.008 A 
ATOM     18  C   UNL     1      -1.666   2.078  -1.143  0.00  0.00    +0.045 A 
ATOM     19  S   UNL     1       0.037   2.579  -0.952  0.00  0.00    -0.102 S 
ENDBRANCH  14  15
ENDBRANCH  13  14
ENDBRANCH   9  13
ENDBRANCH   4   6
BRANCH   1  24
ATOM     20  C   UNL     1       9.480  -4.050   1.582  0.00  0.00    +0.019 A 
ATOM     21  C   UNL     1      10.507  -4.964   1.325  0.00  0.00    +0.011 A 
ATOM     22  C   UNL     1      11.317  -4.798   0.221  0.00  0.00    +0.002 A 
ATOM     23  C   UNL     1      11.117  -3.729  -0.635  0.00  0.00    +0.023 A 
ATOM     24  C   UNL     1      10.100  -2.815  -0.389  0.00  0.00    +0.035 A 
ATOM     25  C   UNL     1       9.283  -2.968   0.720  0.00  0.00    +0.034 A 
BRANCH  20  27
ATOM     26  C   UNL     1       8.834  -5.388   3.691  0.00  0.00    +0.091 C 
ATOM     27  C   UNL     1       8.614  -4.223   2.760  0.00  0.00    +0.160 C 
ATOM     28  O   UNL     1       7.725  -3.430   2.981  0.00  0.00    -0.292 OA
ENDBRANCH  20  27
ENDBRANCH   1  24
BRANCH   4  29
ATOM     29  C   UNL     1       9.640   0.529  -2.807  0.00  0.00    +0.146 C 
BRANCH  29  30
ATOM     30  C   UNL     1      10.140   1.573  -1.841  0.00  0.00    -0.012 A 
ATOM     31  C   UNL     1      11.101   1.251  -0.895  0.00  0.00    +0.008 A 
ATOM     32  C   UNL     1      11.532   2.243  -0.028  0.00  0.00    +0.020 A 
ATOM     33  C   UNL     1      10.992   3.511  -0.134  0.00  0.00    +0.111 A 
ATOM     34  N   UNL     1      10.079   3.781  -1.046  0.00  0.00    -0.263 NA
ATOM     35  C   UNL     1       9.651   2.864  -1.891  0.00  0.00    +0.115 A 
ENDBRANCH  29  30
ENDBRANCH   4  29
TORSDOF 8
