REMARK  Name = ZINC34707950
REMARK  4 active torsions:
REMARK  status: ('A' for Active; 'I' for Inactive)
REMARK    1  A    between atoms: C_10  and  C_27
REMARK    2  A    between atoms: N_18  and  C_21
REMARK    3  A    between atoms: C_21  and  C_22
REMARK    4  A    between atoms: C_32  and  N_33
REMARK                            x       y       z     vdW  Elec       q    Type
REMARK                         _______ _______ _______ _____ _____    ______ ____
ROOT
ATOM      1  C   UNL     1      -3.077  -1.587  -0.988  0.00  0.00    +0.001 A 
ATOM      2  C   UNL     1      -3.739  -2.786  -1.212  0.00  0.00    +0.002 A 
ATOM      3  C   UNL     1      -3.037  -3.934  -1.508  0.00  0.00    +0.028 A 
ATOM      4  C   UNL     1      -1.643  -3.894  -1.585  0.00  0.00    +0.078 A 
ATOM      5  C   UNL     1      -0.973  -2.670  -1.356  0.00  0.00    +0.045 A 
ATOM      6  C   UNL     1      -1.702  -1.522  -1.058  0.00  0.00    +0.014 A 
ATOM      7  C   UNL     1       0.491  -2.663  -1.443  0.00  0.00    +0.173 A 
ATOM      8  N   UNL     1       1.425  -1.752  -1.300  0.00  0.00    -0.128 NA
ATOM      9  N   UNL     1       2.584  -2.280  -1.487  0.00  0.00    -0.128 NA
ATOM     10  C   UNL     1       2.459  -3.562  -1.762  0.00  0.00    +0.173 A 
ATOM     11  N   UNL     1       1.120  -3.851  -1.744  0.00  0.00    -0.246 N 
ATOM     12  C   UNL     1       0.384  -4.986  -1.950  0.00  0.00    +0.206 A 
ATOM     13  N   UNL     1      -0.921  -5.005  -1.873  0.00  0.00    -0.215 NA
ATOM     14  N   UNL     1       1.044  -6.153  -2.248  0.00  0.00    -0.302 N 
ATOM     15  C   UNL     1       1.259  -6.488  -3.632  0.00  0.00    +0.106 C 
ATOM     16  C   UNL     1       0.075  -7.319  -4.185  0.00  0.00    +0.000 C 
ATOM     17  C   UNL     1       0.108  -8.680  -3.621  0.00  0.00    -0.077 C 
ATOM     18  N   UNL     1       0.013  -8.690  -2.154  0.00  0.00    +0.383 N 
ATOM     19  C   UNL     1       1.268  -8.504  -1.467  0.00  0.00    -0.059 C 
ATOM     20  C   UNL     1       1.510  -7.011  -1.129  0.00  0.00    +0.089 C 
ATOM     21  H   UNL     1      -0.617  -7.955  -1.871  0.00  0.00    -0.081 HD
ENDROOT
BRANCH  10  22
ATOM     22  C   UNL     1       3.558  -4.511  -2.038  0.00  0.00    +0.050 A 
ATOM     23  C   UNL     1       4.207  -5.158  -0.985  0.00  0.00    +0.014 A 
ATOM     24  C   UNL     1       5.231  -6.043  -1.251  0.00  0.00    +0.001 A 
ATOM     25  C   UNL     1       5.616  -6.290  -2.557  0.00  0.00    +0.002 A 
ATOM     26  C   UNL     1       4.977  -5.652  -3.605  0.00  0.00    +0.033 A 
ATOM     27  C   UNL     1       3.947  -4.769  -3.354  0.00  0.00    +0.137 A 
BRANCH  27  28
ATOM     28  N   UNL     1       3.260  -4.091  -4.477  0.00  0.00    +0.057 N 
ATOM     29  O   UNL     1       3.526  -4.391  -5.618  0.00  0.00    -0.126 OA
ATOM     30  O   UNL     1       2.432  -3.238  -4.254  0.00  0.00    -0.126 OA
ENDBRANCH  27  28
ENDBRANCH  10  22
BRANCH  18  31
ATOM     31  C   UNL     1      -0.559  -9.976  -1.735  0.00  0.00    -0.042 C 
BRANCH  31  32
ATOM     32  C   UNL     1      -0.782  -9.965  -0.245  0.00  0.00    -0.057 A 
ATOM     33  C   UNL     1       0.213 -10.389   0.616  0.00  0.00    +0.009 A 
ATOM     34  C   UNL     1      -0.019 -10.366   1.951  0.00  0.00    +0.045 A 
ATOM     35  S   UNL     1      -1.686  -9.731   2.025  0.00  0.00    -0.105 S 
ATOM     36  C   UNL     1      -1.958  -9.534   0.272  0.00  0.00    +0.047 A 
ENDBRANCH  31  32
ENDBRANCH  18  31
TORSDOF 4
