REMARK  Name = ZINC13805233
REMARK  16 active torsions:
REMARK  status: ('A' for Active; 'I' for Inactive)
REMARK    1  A    between atoms: C_1  and  C_2
REMARK    2  A    between atoms: C_2  and  C_4
REMARK    3  A    between atoms: C_2  and  O_36
REMARK    4  A    between atoms: C_4  and  N_5
REMARK    5  A    between atoms: N_5  and  C_6
REMARK    6  A    between atoms: C_6  and  C_7
REMARK    7  A    between atoms: C_7  and  C_9
REMARK    8  A    between atoms: C_7  and  O_10
REMARK    9  A    between atoms: C_17  and  C_21
REMARK   10  A    between atoms: C_21  and  C_22
REMARK   11  A    between atoms: C_22  and  C_23
REMARK   12  A    between atoms: C_22  and  C_24
REMARK   13  A    between atoms: C_27  and  C_29
REMARK   14  A    between atoms: C_27  and  C_30
REMARK   15  A    between atoms: C_32  and  S_34
REMARK   16  A    between atoms: S_34  and  C_35
REMARK                            x       y       z     vdW  Elec       q    Type
REMARK                         _______ _______ _______ _____ _____    ______ ____
ROOT
ATOM      1  N   UNL     1       0.857  -1.968   1.127  0.00  0.00    -0.309 N 
ATOM      2  C   UNL     1      -0.134  -2.727   1.730  0.00  0.00    +0.140 A 
ATOM      3  C   UNL     1      -0.100  -4.114   1.673  0.00  0.00    +0.080 A 
ATOM      4  C   UNL     1      -1.097  -4.886   2.279  0.00  0.00    +0.094 A 
ATOM      5  C   UNL     1      -0.949  -6.348   2.149  0.00  0.00    +0.037 A 
ATOM      6  C   UNL     1      -1.804  -7.352   2.658  0.00  0.00    -0.026 A 
ATOM      7  C   UNL     1      -1.502  -8.672   2.432  0.00  0.00    +0.003 A 
ATOM      8  C   UNL     1      -0.360  -9.007   1.714  0.00  0.00    +0.048 A 
ATOM      9  N   UNL     1       0.435  -8.067   1.242  0.00  0.00    -0.244 NA
ATOM     10  C   UNL     1       0.178  -6.791   1.433  0.00  0.00    +0.111 A 
ATOM     11  S   UNL     1       1.006  -5.296   0.951  0.00  0.00    -0.064 S 
ATOM     12  C   UNL     1      -2.389  -9.778   2.943  0.00  0.00    +0.197 C 
ATOM     13  O   UNL     1      -3.273  -9.276   3.945  0.00  0.00    -0.369 OA
ATOM     14  C   UNL     1      -3.999  -8.113   3.529  0.00  0.00    +0.068 C 
ATOM     15  C   UNL     1      -3.022  -6.938   3.438  0.00  0.00    +0.070 C 
ATOM     16  C   UNL     1      -4.630  -8.364   2.158  0.00  0.00    +0.041 C 
ATOM     17  C   UNL     1      -5.091  -7.795   4.552  0.00  0.00    +0.041 C 
ATOM     18  N   UNL     1      -2.077  -4.202   2.912  0.00  0.00    -0.221 NA
ATOM     19  C   UNL     1      -2.081  -2.886   2.947  0.00  0.00    +0.190 A 
ATOM     20  N   UNL     1      -1.138  -2.143   2.381  0.00  0.00    -0.206 NA
ENDROOT
BRANCH  19  21
ATOM     21  S   UNL     1      -3.396  -2.073   3.793  0.00  0.00    -0.089 S 
ATOM     22  C   UNL     1      -4.429  -3.432   4.407  0.00  0.00    +0.093 C 
ENDBRANCH  19  21
BRANCH   1  23
ATOM     23  C   UNL     1       1.889  -2.620   0.318  0.00  0.00    +0.137 C 
BRANCH  23  25
ATOM     24  C   UNL     1       4.119  -3.745   0.377  0.00  0.00    +0.039 C 
ATOM     25  C   UNL     1       3.041  -3.064   1.222  0.00  0.00    +0.129 C 
BRANCH  25  26
ATOM     26  O   UNL     1       3.599  -1.923   1.877  0.00  0.00    -0.391 OA
ATOM     27  H   UNL     1       3.952  -1.256   1.273  0.00  0.00    +0.210 HD
ENDBRANCH  25  26
ENDBRANCH  23  25
ENDBRANCH   1  23
BRANCH   1  28
ATOM     28  C   UNL     1       0.872  -0.513   1.299  0.00  0.00    +0.137 C 
BRANCH  28  29
ATOM     29  C   UNL     1       0.163   0.148   0.115  0.00  0.00    +0.129 C 
ATOM     30  C   UNL     1       0.295   1.668   0.225  0.00  0.00    +0.039 C 
BRANCH  29  31
ATOM     31  O   UNL     1      -1.220  -0.212   0.125  0.00  0.00    -0.391 OA
ATOM     32  H   UNL     1      -1.709   0.128   0.887  0.00  0.00    +0.210 HD
ENDBRANCH  29  31
ENDBRANCH  28  29
ENDBRANCH   1  28
BRANCH   8  33
ATOM     33  C   UNL     1      -0.028 -10.457   1.472  0.00  0.00    +0.058 C 
BRANCH  33  34
ATOM     34  C   UNL     1      -0.677 -10.918   0.165  0.00  0.00    -0.011 C 
ATOM     35  C   UNL     1      -0.055 -10.159  -1.009  0.00  0.00    +0.007 C 
ATOM     36  C   UNL     1      -0.445 -12.419  -0.018  0.00  0.00    +0.007 C 
ENDBRANCH  33  34
ENDBRANCH   8  33
TORSDOF 9
