REMARK  Name = ZINC08441193
REMARK  10 active torsions:
REMARK  status: ('A' for Active; 'I' for Inactive)
REMARK    1  A    between atoms: C_1  and  C_2
REMARK    2  A    between atoms: C_3  and  C_35
REMARK    3  A    between atoms: C_8  and  C_26
REMARK    4  A    between atoms: C_10  and  C_15
REMARK    5  A    between atoms: C_11  and  O_14
REMARK    6  A    between atoms: C_15  and  C_17
REMARK    7  A    between atoms: C_29  and  C_32
REMARK    8  A    between atoms: C_32  and  C_33
REMARK    9  A    between atoms: C_32  and  C_34
REMARK   10  A    between atoms: C_35  and  C_37
REMARK                            x       y       z     vdW  Elec       q    Type
REMARK                         _______ _______ _______ _____ _____    ______ ____
ROOT
ATOM      1  C   UNL     1      -1.393  -1.463  -0.157  0.00  0.00    +0.067 C 
ATOM      2  C   UNL     1      -0.223  -0.533   0.042  0.00  0.00    +0.058 A 
ATOM      3  C   UNL     1      -0.416   0.813   0.347  0.00  0.00    +0.078 A 
ATOM      4  S   UNL     1       1.278   1.370   0.458  0.00  0.00    -0.049 S 
ATOM      5  C   UNL     1       2.040  -0.151   0.108  0.00  0.00    +0.169 A 
ATOM      6  N   UNL     1       1.005  -0.960  -0.065  0.00  0.00    -0.229 NA
ATOM      7  N   UNL     1       3.387  -0.444   0.031  0.00  0.00    -0.232 N 
ATOM      8  C   UNL     1       3.970  -1.757  -0.269  0.00  0.00    +0.151 C 
ATOM      9  C   UNL     1       5.469  -1.569  -0.239  0.00  0.00    +0.075 C 
ATOM     10  C   UNL     1       5.693  -0.266   0.052  0.00  0.00    +0.189 C 
ATOM     11  C   UNL     1       4.398   0.425   0.212  0.00  0.00    +0.288 C 
ATOM     12  O   UNL     1       4.265   1.605   0.472  0.00  0.00    -0.266 OA
ENDROOT
BRANCH   8  13
ATOM     13  C   UNL     1       3.533  -2.218  -1.636  0.00  0.00    -0.022 A 
ATOM     14  C   UNL     1       3.565  -1.341  -2.704  0.00  0.00    +0.006 A 
ATOM     15  C   UNL     1       3.168  -1.765  -3.958  0.00  0.00    +0.004 A 
ATOM     16  C   UNL     1       2.729  -3.063  -4.143  0.00  0.00    -0.045 A 
ATOM     17  C   UNL     1       2.693  -3.938  -3.073  0.00  0.00    +0.004 A 
ATOM     18  C   UNL     1       3.094  -3.516  -1.820  0.00  0.00    +0.006 A 
BRANCH  16  19
ATOM     19  C   UNL     1       2.291  -3.523  -5.509  0.00  0.00    +0.013 C 
ATOM     20  C   UNL     1       1.117  -2.665  -5.984  0.00  0.00    +0.012 C 
ATOM     21  C   UNL     1       3.455  -3.384  -6.492  0.00  0.00    +0.012 C 
ENDBRANCH  16  19
ENDBRANCH   8  13
BRANCH   3  22
ATOM     22  C   UNL     1      -1.614   1.535   0.516  0.00  0.00    +0.168 C 
ATOM     23  O   UNL     1      -2.685   0.974   0.393  0.00  0.00    -0.292 OA
ATOM     24  C   UNL     1      -1.568   3.005   0.847  0.00  0.00    +0.092 C 
ENDBRANCH   3  22
BRANCH  10  25
ATOM     25  O   UNL     1       6.910   0.313   0.173  0.00  0.00    -0.502 OA
ATOM     26  H   UNL     1       6.799   1.282   0.392  0.00  0.00    +0.292 HD
ENDBRANCH  10  25
BRANCH   9  27
ATOM     27  C   UNL     1       6.485  -2.599  -0.479  0.00  0.00    +0.230 C 
ATOM     28  O   UNL     1       7.218  -2.518  -1.448  0.00  0.00    -0.284 OA
BRANCH  27  29
ATOM     29  C   UNL     1       6.619  -3.729   0.451  0.00  0.00    +0.176 A 
ATOM     30  C   UNL     1       7.579  -4.691   0.381  0.00  0.00    +0.061 A 
ATOM     31  C   UNL     1       7.324  -5.598   1.498  0.00  0.00    +0.021 A 
ATOM     32  C   UNL     1       7.940  -6.761   1.969  0.00  0.00    +0.011 A 
ATOM     33  C   UNL     1       7.441  -7.392   3.073  0.00  0.00    +0.001 A 
ATOM     34  C   UNL     1       6.327  -6.886   3.729  0.00  0.00    +0.004 A 
ATOM     35  C   UNL     1       5.705  -5.741   3.281  0.00  0.00    +0.047 A 
ATOM     36  C   UNL     1       6.194  -5.081   2.160  0.00  0.00    +0.136 A 
ATOM     37  O   UNL     1       5.813  -3.966   1.506  0.00  0.00    -0.452 OA
ENDBRANCH  27  29
ENDBRANCH   9  27
TORSDOF 6
