REMARK  Name = ZINC20718695
REMARK  4 active torsions:
REMARK  status: ('A' for Active; 'I' for Inactive)
REMARK    1  A    between atoms: C_1  and  C_2
REMARK    2  A    between atoms: C_10  and  C_12
REMARK    3  A    between atoms: C_20  and  C_23
REMARK    4  A    between atoms: C_28  and  O_29
REMARK                            x       y       z     vdW  Elec       q    Type
REMARK                         _______ _______ _______ _____ _____    ______ ____
ROOT
ATOM      1  C   UNL     1      -7.502  -4.637  -0.862  0.00  0.00    +0.069 C 
ATOM      2  C   UNL     1      -6.395  -4.081  -1.721  0.00  0.00    +0.087 A 
ATOM      3  C   UNL     1      -5.127  -3.687  -1.301  0.00  0.00    +0.049 A 
ATOM      4  C   UNL     1      -4.504  -3.259  -2.445  0.00  0.00    +0.226 A 
ATOM      5  O   UNL     1      -5.383  -3.415  -3.429  0.00  0.00    -0.339 OA
ATOM      6  N   UNL     1      -6.431  -3.872  -3.014  0.00  0.00    -0.081 NA
ATOM      7  N   UNL     1      -3.210  -2.782  -2.417  0.00  0.00    -0.286 N 
ATOM      8  C   UNL     1      -2.649  -2.471  -1.201  0.00  0.00    +0.019 C 
ATOM      9  C   UNL     1      -3.199  -2.852  -0.028  0.00  0.00    +0.024 C 
ATOM     10  C   UNL     1      -4.467  -3.678   0.041  0.00  0.00    +0.091 C 
ATOM     11  C   UNL     1      -2.606  -2.498   1.197  0.00  0.00    +0.162 C 
ATOM     12  O   UNL     1      -3.118  -2.872   2.234  0.00  0.00    -0.292 OA
ATOM     13  C   UNL     1      -1.355  -1.667   1.255  0.00  0.00    +0.088 C 
ATOM     14  C   UNL     1      -1.292  -0.776   0.010  0.00  0.00    +0.035 C 
ATOM     15  C   UNL     1      -1.365  -1.673  -1.227  0.00  0.00    +0.060 C 
ATOM     16  H   UNL     1      -2.649  -2.658  -3.355  0.00  0.00    +0.155 HD
ENDROOT
BRANCH  14  17
ATOM     17  C   UNL     1       0.002  -0.004   0.002  0.00  0.00    -0.002 A 
ATOM     18  C   UNL     1       1.208  -0.677  -0.013  0.00  0.00    +0.007 A 
ATOM     19  C   UNL     1       2.396   0.030  -0.021  0.00  0.00    +0.001 A 
ATOM     20  C   UNL     1       2.380   1.413  -0.013  0.00  0.00    +0.004 A 
ATOM     21  C   UNL     1       1.177   2.091   0.002  0.00  0.00    +0.046 A 
ATOM     22  C   UNL     1      -0.017   1.383   0.010  0.00  0.00    +0.120 A 
BRANCH  22  23
ATOM     23  O   UNL     1      -1.202   2.047   0.019  0.00  0.00    -0.506 OA
ATOM     24  H   UNL     1      -1.216   3.147   0.025  0.00  0.00    +0.292 HD
ENDBRANCH  22  23
ENDBRANCH  14  17
BRANCH  10  25
ATOM     25  C   UNL     1      -4.127  -5.089   0.443  0.00  0.00    -0.028 A 
ATOM     26  C   UNL     1      -4.653  -5.636   1.599  0.00  0.00    +0.012 A 
ATOM     27  C   UNL     1      -4.331  -6.910   1.929  0.00  0.00    +0.045 A 
ATOM     28  S   UNL     1      -3.242  -7.374   0.593  0.00  0.00    -0.105 S 
ATOM     29  C   UNL     1      -3.295  -5.840  -0.319  0.00  0.00    +0.049 A 
ENDBRANCH  10  25
TORSDOF 3
