REMARK  Name = ZINC15859341
REMARK  5 active torsions:
REMARK  status: ('A' for Active; 'I' for Inactive)
REMARK    1  A    between atoms: C_7  and  N_24
REMARK    2  A    between atoms: C_8  and  C_10
REMARK    3  A    between atoms: C_10  and  C_12
REMARK    4  A    between atoms: C_10  and  N_54
REMARK    5  A    between atoms: C_25  and  C_27
REMARK                            x       y       z     vdW  Elec       q    Type
REMARK                         _______ _______ _______ _____ _____    ______ ____
ROOT
ATOM      1  C   UNL     1      -4.958  -1.269  -1.685  0.00  0.00    +0.001 A 
ATOM      2  C   UNL     1      -5.814  -2.355  -1.576  0.00  0.00    +0.004 A 
ATOM      3  C   UNL     1      -5.376  -3.544  -1.033  0.00  0.00    +0.047 A 
ATOM      4  C   UNL     1      -4.064  -3.659  -0.589  0.00  0.00    +0.137 A 
ATOM      5  C   UNL     1      -3.203  -2.555  -0.703  0.00  0.00    +0.042 A 
ATOM      6  C   UNL     1      -3.663  -1.362  -1.255  0.00  0.00    +0.013 A 
ATOM      7  C   UNL     1      -1.915  -3.003  -0.152  0.00  0.00    +0.082 A 
ATOM      8  C   UNL     1      -2.095  -4.281   0.225  0.00  0.00    +0.118 A 
ATOM      9  O   UNL     1      -3.361  -4.663  -0.028  0.00  0.00    -0.459 OA
ENDROOT
BRANCH   7  10
ATOM     10  N   UNL     1      -0.734  -2.250  -0.048  0.00  0.00    -0.276 N 
ATOM     11  C   UNL     1      -0.509  -1.227  -0.896  0.00  0.00    +0.284 C 
ATOM     12  O   UNL     1      -1.298  -0.997  -1.794  0.00  0.00    -0.266 OA
ATOM     13  H   UNL     1      -0.079  -2.466   0.635  0.00  0.00    +0.155 HD
BRANCH  11  14
ATOM     14  C   UNL     1       0.684  -0.390  -0.736  0.00  0.00    +0.189 A 
ATOM     15  C   UNL     1       1.030   0.672  -1.521  0.00  0.00    +0.054 A 
ATOM     16  C   UNL     1       2.238   1.175  -1.011  0.00  0.00    +0.042 A 
ATOM     17  C   UNL     1       2.571   0.407   0.050  0.00  0.00    +0.196 A 
ATOM     18  O   UNL     1       1.633  -0.535   0.212  0.00  0.00    -0.458 OA
ENDBRANCH  11  14
ENDBRANCH   7  10
BRANCH   8  19
ATOM     19  C   UNL     1      -1.035  -5.157   0.843  0.00  0.00    +0.032 C 
BRANCH  19  20
ATOM     20  C   UNL     1      -1.311  -5.314   2.317  0.00  0.00    -0.054 A 
ATOM     21  C   UNL     1      -2.345  -6.127   2.743  0.00  0.00    +0.003 A 
ATOM     22  C   UNL     1      -2.595  -6.275   4.095  0.00  0.00    +0.015 A 
ATOM     23  C   UNL     1      -1.817  -5.602   5.020  0.00  0.00    +0.018 A 
ATOM     24  C   UNL     1      -0.786  -4.785   4.592  0.00  0.00    +0.015 A 
ATOM     25  C   UNL     1      -0.533  -4.642   3.241  0.00  0.00    +0.003 A 
ATOM     26 BR   UNL     1      -2.163  -5.799   6.868  0.00  0.00    -0.050 Br
ENDBRANCH  19  20
BRANCH  19  32
ATOM     27  C   UNL     1      -0.034  -7.361   0.780  0.00  0.00    -0.077 C 
ATOM     28  C   UNL     1      -0.178  -8.765   0.188  0.00  0.00    -0.019 C 
ATOM     29  C   UNL     1      -0.010  -8.692  -1.332  0.00  0.00    -0.004 C 
ATOM     30  C   UNL     1      -1.051  -7.728  -1.907  0.00  0.00    -0.019 C 
ATOM     31  C   UNL     1      -0.882  -6.354  -1.255  0.00  0.00    -0.077 C 
ATOM     32  N   UNL     1      -1.080  -6.488   0.204  0.00  0.00    +0.389 N 
ATOM     33  H   UNL     1      -1.999  -6.911   0.378  0.00  0.00    -0.080 HD
ENDBRANCH  19  32
ENDBRANCH   8  19
TORSDOF 5
