REMARK  Name = ZINC29275446
REMARK  11 active torsions:
REMARK  status: ('A' for Active; 'I' for Inactive)
REMARK    1  A    between atoms: C_1  and  C_2
REMARK    2  A    between atoms: C_2  and  N_3
REMARK    3  A    between atoms: N_3  and  C_4
REMARK    4  A    between atoms: N_3  and  S_10
REMARK    5  A    between atoms: S_10  and  C_13
REMARK    6  A    between atoms: C_16  and  O_33
REMARK    7  A    between atoms: C_17  and  N_19
REMARK    8  A    between atoms: C_20  and  C_22
REMARK    9  A    between atoms: C_23  and  C_32
REMARK   10  A    between atoms: C_25  and  C_27
REMARK   11  A    between atoms: O_33  and  C_34
REMARK                            x       y       z     vdW  Elec       q    Type
REMARK                         _______ _______ _______ _____ _____    ______ ____
ROOT
ATOM      1  C   UNL     1       1.653   1.779  -0.591  0.00  0.00    +0.111 A 
ATOM      2  C   UNL     1       0.756   2.796  -0.318  0.00  0.00    +0.032 A 
ATOM      3  C   UNL     1      -0.591   2.515  -0.178  0.00  0.00    +0.049 A 
ATOM      4  C   UNL     1      -1.045   1.213  -0.312  0.00  0.00    +0.141 A 
ATOM      5  C   UNL     1      -0.142   0.189  -0.587  0.00  0.00    +0.078 A 
ATOM      6  C   UNL     1       1.208   0.478  -0.726  0.00  0.00    +0.055 A 
ENDROOT
BRANCH   5   7
ATOM      7  N   UNL     1      -0.596  -1.129  -0.723  0.00  0.00    -0.277 N 
ATOM      8  C   UNL     1       0.164  -2.040  -1.363  0.00  0.00    +0.267 C 
ATOM      9  O   UNL     1       1.196  -1.698  -1.907  0.00  0.00    -0.268 OA
ATOM     10  H   UNL     1      -1.571  -1.421  -0.308  0.00  0.00    +0.155 HD
BRANCH   8  11
ATOM     11  C   UNL     1      -0.257  -3.451  -1.404  0.00  0.00    +0.136 A 
ATOM     12  C   UNL     1       0.507  -4.386  -2.058  0.00  0.00    +0.019 A 
ATOM     13  S   UNL     1      -0.417  -5.833  -1.801  0.00  0.00    -0.069 S 
ATOM     14  C   UNL     1      -1.747  -5.104  -0.859  0.00  0.00    +0.144 A 
ATOM     15  N   UNL     1      -1.380  -3.834  -0.815  0.00  0.00    -0.231 NA
ATOM     16  C   UNL     1       1.806  -4.204  -2.801  0.00  0.00    +0.054 C 
BRANCH  14  17
ATOM     17  C   UNL     1      -2.938  -5.748  -0.283  0.00  0.00    +0.160 A 
ATOM     18  C   UNL     1      -3.916  -5.125   0.434  0.00  0.00    +0.052 A 
ATOM     19  C   UNL     1      -4.854  -6.115   0.783  0.00  0.00    +0.042 A 
ATOM     20  C   UNL     1      -4.407  -7.281   0.276  0.00  0.00    +0.196 A 
ATOM     21  O   UNL     1      -3.250  -7.056  -0.367  0.00  0.00    -0.461 OA
ENDBRANCH  14  17
ENDBRANCH   8  11
ENDBRANCH   5   7
BRANCH   1  22
ATOM     22  S   UNL     1       3.367   2.145  -0.768  0.00  0.00    +0.075 S 
ATOM     23  O   UNL     1       3.601   3.352  -0.057  0.00  0.00    -0.150 OA
ATOM     24  O   UNL     1       4.070   0.943  -0.482  0.00  0.00    -0.150 OA
BRANCH  22  25
ATOM     25  N   UNL     1       3.634   2.479  -2.368  0.00  0.00    -0.203 N 
BRANCH  25  26
ATOM     26  C   UNL     1       4.089   1.474  -3.225  0.00  0.00    +0.051 A 
ATOM     27  C   UNL     1       3.300   1.056  -4.288  0.00  0.00    +0.025 A 
ATOM     28  C   UNL     1       3.755   0.065  -5.137  0.00  0.00    +0.002 A 
ATOM     29  C   UNL     1       4.991  -0.517  -4.922  0.00  0.00    +0.000 A 
ATOM     30  C   UNL     1       5.777  -0.106  -3.861  0.00  0.00    +0.002 A 
ATOM     31  C   UNL     1       5.330   0.887  -3.012  0.00  0.00    +0.025 A 
ENDBRANCH  25  26
BRANCH  25  33
ATOM     32  C   UNL     1       4.702   4.619  -2.878  0.00  0.00    +0.026 C 
ATOM     33  C   UNL     1       3.392   3.828  -2.885  0.00  0.00    +0.128 C 
ENDBRANCH  25  33
ENDBRANCH  22  25
ENDBRANCH   1  22
BRANCH   4  34
ATOM     34  O   UNL     1      -2.369   0.936  -0.175  0.00  0.00    -0.493 OA
ATOM     35  C   UNL     1      -3.237   2.036   0.107  0.00  0.00    +0.277 C 
ENDBRANCH   4  34
TORSDOF 8
