REMARK  Name = ZINC19527240
REMARK  9 active torsions:
REMARK  status: ('A' for Active; 'I' for Inactive)
REMARK    1  A    between atoms: C_1  and  C_2
REMARK    2  A    between atoms: C_2  and  N_3
REMARK    3  A    between atoms: C_7  and  C_9
REMARK    4  A    between atoms: C_9  and  N_10
REMARK    5  A    between atoms: N_10  and  C_11
REMARK    6  A    between atoms: C_11  and  C_12
REMARK    7  A    between atoms: C_15  and  C_28
REMARK    8  A    between atoms: C_17  and  C_27
REMARK    9  A    between atoms: N_23  and  C_26
REMARK                            x       y       z     vdW  Elec       q    Type
REMARK                         _______ _______ _______ _____ _____    ______ ____
ROOT
ATOM      1  C   UNL     1      -1.701  -1.403  -4.949  0.00  0.00    -0.019 A 
ATOM      2  C   UNL     1      -0.767  -2.014  -5.706  0.00  0.00    +0.015 A 
ATOM      3  C   UNL     1      -0.210  -1.310  -6.868  0.00  0.00    +0.002 A 
ATOM      4  C   UNL     1       0.760  -1.922  -7.668  0.00  0.00    -0.041 A 
ATOM      5  C   UNL     1       1.273  -1.250  -8.755  0.00  0.00    +0.007 A 
ATOM      6  C   UNL     1       0.834   0.030  -9.059  0.00  0.00    -0.048 A 
ATOM      7  C   UNL     1      -0.122   0.647  -8.278  0.00  0.00    +0.030 A 
ATOM      8  C   UNL     1      -0.653  -0.015  -7.178  0.00  0.00    +0.061 A 
ATOM      9  N   UNL     1      -1.617   0.603  -6.388  0.00  0.00    -0.243 N 
ATOM     10  C   UNL     1      -2.152  -0.053  -5.295  0.00  0.00    +0.164 A 
ATOM     11  N   UNL     1      -3.036   0.736  -4.731  0.00  0.00    -0.149 NA
ATOM     12  N   UNL     1      -3.085   1.926  -5.468  0.00  0.00    -0.215 N 
ATOM     13  C   UNL     1      -2.197   1.818  -6.477  0.00  0.00    +0.351 A 
ATOM     14  O   UNL     1      -1.967   2.663  -7.324  0.00  0.00    -0.244 OA
ATOM     15  C   UNL     1      -3.939   3.083  -5.188  0.00  0.00    +0.178 C 
ATOM     16  C   UNL     1       1.405   0.753 -10.251  0.00  0.00    +0.044 C 
ATOM     17  C   UNL     1       1.242  -3.312  -7.342  0.00  0.00    +0.044 C 
ENDROOT
BRANCH   1  18
ATOM     18  C   UNL     1      -2.285  -2.111  -3.753  0.00  0.00    -0.043 C 
BRANCH  18  19
ATOM     19  N   UNL     1      -1.555  -1.710  -2.543  0.00  0.00    +0.381 N 
ATOM     20  H   UNL     1      -1.637  -0.712  -2.416  0.00  0.00    -0.086 HD
ATOM     21  H   UNL     1      -0.582  -1.958  -2.639  0.00  0.00    -0.086 HD
BRANCH  19  22
ATOM     22  C   UNL     1      -2.124  -2.399  -1.377  0.00  0.00    -0.098 C 
BRANCH  22  27
ATOM     23  N   UNL     1      -1.376  -0.512   0.012  0.00  0.00    +0.380 N 
ATOM     24  C   UNL     1      -2.028  -0.158   1.291  0.00  0.00    -0.079 C 
ATOM     25  C   UNL     1      -2.935  -1.369   1.623  0.00  0.00    -0.020 C 
ATOM     26  C   UNL     1      -2.064  -2.556   1.133  0.00  0.00    -0.019 C 
ATOM     27  C   UNL     1      -1.364  -1.981  -0.117  0.00  0.00    -0.086 C 
ATOM     28  H   UNL     1      -1.894  -0.109  -0.754  0.00  0.00    -0.082 HD
BRANCH  23  30
ATOM     29  C   UNL     1      -0.019   1.526   0.010  0.00  0.00    -0.017 C 
ATOM     30  C   UNL     1       0.002  -0.004   0.002  0.00  0.00    -0.082 C 
ENDBRANCH  23  30
ENDBRANCH  22  27
ENDBRANCH  19  22
ENDBRANCH  18  19
ENDBRANCH   1  18
TORSDOF 5
