REMARK  Name = ZINC59264779
REMARK  6 active torsions:
REMARK  status: ('A' for Active; 'I' for Inactive)
REMARK    1  A    between atoms: C_5  and  C_7
REMARK    2  A    between atoms: C_10  and  S_13
REMARK    3  A    between atoms: N_11  and  N_12
REMARK    4  A    between atoms: S_13  and  C_14
REMARK    5  A    between atoms: C_14  and  C_15
REMARK    6  A    between atoms: N_17  and  C_18
REMARK                            x       y       z     vdW  Elec       q    Type
REMARK                         _______ _______ _______ _____ _____    ______ ____
ROOT
ATOM      1  C   UNL     1       0.988  -7.069  -0.216  0.00  0.00    +0.173 C 
ENDROOT
BRANCH   1   2
ATOM      2  C   UNL     1       0.338  -8.429  -0.225  0.00  0.00    +0.227 C 
ATOM      3  O   UNL     1      -0.861  -8.527  -0.385  0.00  0.00    -0.275 OA
ATOM      4  N   UNL     1       1.088  -9.536  -0.056  0.00  0.00    -0.285 N 
ATOM      5  H   UNL     1       2.054  -9.464  -0.005  0.00  0.00    +0.155 HD
BRANCH   4   6
ATOM      6  C   UNL     1       0.475 -10.784   0.046  0.00  0.00    +0.034 A 
ATOM      7  C   UNL     1      -0.770 -10.896   0.654  0.00  0.00    +0.024 A 
ATOM      8  C   UNL     1      -1.388 -12.128   0.761  0.00  0.00    +0.015 A 
ATOM      9  C   UNL     1      -0.762 -13.261   0.259  0.00  0.00    +0.049 A 
ATOM     10  C   UNL     1       0.502 -13.151  -0.358  0.00  0.00    +0.051 A 
ATOM     11  C   UNL     1       1.111 -11.914  -0.466  0.00  0.00    +0.037 A 
ATOM     12  C   UNL     1       0.871 -14.522  -0.770  0.00  0.00    +0.251 C 
ATOM     13  O   UNL     1       1.896 -14.841  -1.337  0.00  0.00    -0.270 OA
ATOM     14  N   UNL     1      -0.120 -15.358  -0.409  0.00  0.00    -0.248 N 
ATOM     15  C   UNL     1      -1.117 -14.692   0.202  0.00  0.00    +0.251 C 
ATOM     16  O   UNL     1      -2.139 -15.187   0.634  0.00  0.00    -0.270 OA
ATOM     17  H   UNL     1      -0.117 -16.315  -0.568  0.00  0.00    +0.158 HD
ENDBRANCH   4   6
ENDBRANCH   1   2
BRANCH   1  18
ATOM     18  S   UNL     1      -0.276  -5.793  -0.467  0.00  0.00    -0.075 S 
BRANCH  18  22
ATOM     19  C   UNL     1       1.192  -2.172  -0.480  0.00  0.00    +0.183 A 
ATOM     20  N   UNL     1       2.258  -2.914  -0.289  0.00  0.00    -0.127 NA
ATOM     21  N   UNL     1       1.928  -4.156  -0.260  0.00  0.00    -0.121 NA
ATOM     22  C   UNL     1       0.631  -4.282  -0.432  0.00  0.00    +0.209 A 
ATOM     23  N   UNL     1       0.117  -3.025  -0.572  0.00  0.00    -0.224 N 
BRANCH  19  28
ATOM     24  C   UNL     1      -0.090   1.338  -0.857  0.00  0.00    +0.001 A 
ATOM     25  C   UNL     1       1.081   2.067  -0.745  0.00  0.00    +0.001 A 
ATOM     26  C   UNL     1       2.288   1.421  -0.546  0.00  0.00    +0.016 A 
ATOM     27  C   UNL     1       2.332   0.044  -0.459  0.00  0.00    +0.029 A 
ATOM     28  C   UNL     1       1.153  -0.697  -0.572  0.00  0.00    +0.035 A 
ATOM     29  C   UNL     1      -0.061  -0.038  -0.772  0.00  0.00    +0.013 A 
ATOM     30 BR   UNL     1       3.983  -0.837  -0.189  0.00  0.00    -0.050 Br
ENDBRANCH  19  28
BRANCH  23  31
ATOM     31  N   UNL     1      -1.192  -2.686  -0.766  0.00  0.00    -0.295 N 
ATOM     32  H   UNL     1      -1.415  -2.651  -1.750  0.00  0.00    +0.163 HD
ATOM     33  H   UNL     1      -1.806  -3.321  -0.279  0.00  0.00    +0.163 HD
ENDBRANCH  23  31
ENDBRANCH  18  22
ENDBRANCH   1  18
TORSDOF 6
