REMARK  Name = ZINC34698701
REMARK  13 active torsions:
REMARK  status: ('A' for Active; 'I' for Inactive)
REMARK    1  A    between atoms: C_1  and  C_2
REMARK    2  A    between atoms: C_5  and  C_8
REMARK    3  A    between atoms: N_10  and  C_11
REMARK    4  A    between atoms: N_10  and  C_36
REMARK    5  A    between atoms: C_11  and  C_12
REMARK    6  A    between atoms: N_15  and  C_26
REMARK    7  A    between atoms: C_17  and  C_19
REMARK    8  A    between atoms: C_26  and  C_27
REMARK    9  A    between atoms: C_30  and  N_33
REMARK   10  A    between atoms: N_33  and  C_34
REMARK   11  A    between atoms: N_33  and  C_35
REMARK   12  A    between atoms: C_36  and  C_37
REMARK   13  A    between atoms: C_36  and  C_38
REMARK                            x       y       z     vdW  Elec       q    Type
REMARK                         _______ _______ _______ _____ _____    ______ ____
ROOT
ATOM      1  C   UNL     1       2.033  -6.829   0.224  0.00  0.00    -0.005 C 
ATOM      2  C   UNL     1       2.568  -7.013  -1.212  0.00  0.00    -0.073 C 
ATOM      3  N   UNL     1       3.647  -8.026  -1.082  0.00  0.00    +0.383 N 
ATOM      4  C   UNL     1       3.114  -9.003  -0.098  0.00  0.00    -0.070 C 
ATOM      5  C   UNL     1       2.392  -8.136   0.959  0.00  0.00    +0.005 C 
ATOM      6  H   UNL     1       4.492  -7.599  -0.733  0.00  0.00    -0.081 HD
ENDROOT
BRANCH   5   7
ATOM      7  C   UNL     1       1.141  -8.827   1.438  0.00  0.00    -0.043 A 
ATOM      8  C   UNL     1       0.829  -8.835   2.785  0.00  0.00    +0.004 A 
ATOM      9  C   UNL     1      -0.318  -9.468   3.226  0.00  0.00    +0.003 A 
ATOM     10  C   UNL     1      -1.154 -10.095   2.321  0.00  0.00    +0.038 A 
ATOM     11  C   UNL     1      -0.842 -10.088   0.972  0.00  0.00    +0.124 A 
ATOM     12  C   UNL     1       0.304  -9.448   0.531  0.00  0.00    +0.042 A 
ATOM     13  F   UNL     1      -1.657 -10.701   0.087  0.00  0.00    -0.205 F 
ENDBRANCH   5   7
BRANCH   1  14
ATOM     14  C   UNL     1       0.516  -6.629   0.203  0.00  0.00    +0.110 C 
BRANCH  14  17
ATOM     15  C   UNL     1       0.010  -5.202  -1.706  0.00  0.00    +0.247 C 
ATOM     16  O   UNL     1       0.014  -6.192  -2.412  0.00  0.00    -0.270 OA
ATOM     17  N   UNL     1       0.203  -5.321  -0.377  0.00  0.00    -0.295 N 
BRANCH  15  22
ATOM     18  C   UNL     1      -0.836  -0.010  -4.037  0.00  0.00    +0.044 C 
ATOM     19  C   UNL     1      -0.614  -1.369  -3.427  0.00  0.00    -0.050 A 
ATOM     20  C   UNL     1      -1.363  -2.449  -3.860  0.00  0.00    +0.004 A 
ATOM     21  C   UNL     1      -1.165  -3.697  -3.306  0.00  0.00    +0.013 A 
ATOM     22  C   UNL     1      -0.207  -3.868  -2.305  0.00  0.00    +0.037 A 
ATOM     23  C   UNL     1       0.545  -2.775  -1.873  0.00  0.00    +0.013 A 
ATOM     24  C   UNL     1       0.341  -1.534  -2.439  0.00  0.00    +0.004 A 
ENDBRANCH  15  22
BRANCH  17  25
ATOM     25  C   UNL     1       0.100  -4.142   0.486  0.00  0.00    +0.070 C 
ATOM     26  C   UNL     1      -1.074  -4.318   1.452  0.00  0.00    +0.028 C 
ATOM     27  C   UNL     1       1.396  -3.979   1.283  0.00  0.00    +0.028 C 
ENDBRANCH  17  25
ENDBRANCH  14  17
ENDBRANCH   1  14
BRANCH   3  28
ATOM     28  C   UNL     1       3.896  -8.681  -2.373  0.00  0.00    -0.043 C 
BRANCH  28  29
ATOM     29  C   UNL     1       5.073  -9.614  -2.245  0.00  0.00    -0.064 A 
ATOM     30  C   UNL     1       6.351  -9.148  -2.491  0.00  0.00    +0.003 A 
ATOM     31  C   UNL     1       7.432 -10.000  -2.375  0.00  0.00    +0.023 A 
ATOM     32  C   UNL     1       7.234 -11.325  -2.010  0.00  0.00    +0.029 A 
ATOM     33  C   UNL     1       5.948 -11.790  -1.764  0.00  0.00    +0.023 A 
ATOM     34  C   UNL     1       4.872 -10.931  -1.877  0.00  0.00    +0.003 A 
BRANCH  32  35
ATOM     35  N   UNL     1       8.325 -12.190  -1.892  0.00  0.00    -0.336 N 
ATOM     36  C   UNL     1       9.680 -11.698  -2.153  0.00  0.00    +0.129 C 
ATOM     37  C   UNL     1       8.114 -13.588  -1.508  0.00  0.00    +0.129 C 
ENDBRANCH  32  35
ENDBRANCH  28  29
ENDBRANCH   3  28
TORSDOF 8
