REMARK  Name = ZINC40064848
REMARK  10 active torsions:
REMARK  status: ('A' for Active; 'I' for Inactive)
REMARK    1  A    between atoms: C_1  and  C_2
REMARK    2  A    between atoms: C_12  and  C_13
REMARK    3  A    between atoms: N_16  and  C_29
REMARK    4  A    between atoms: C_17  and  C_19
REMARK    5  A    between atoms: C_21  and  O_27
REMARK    6  A    between atoms: C_22  and  O_26
REMARK    7  A    between atoms: O_27  and  C_28
REMARK    8  A    between atoms: C_29  and  C_30
REMARK    9  A    between atoms: C_30  and  C_31
REMARK   10  A    between atoms: C_31  and  O_32
REMARK                            x       y       z     vdW  Elec       q    Type
REMARK                         _______ _______ _______ _____ _____    ______ ____
ROOT
ATOM      1  C   UNL     1      -0.018   1.503   0.010  0.00  0.00    +0.044 C 
ATOM      2  C   UNL     1       0.002  -0.004   0.002  0.00  0.00    -0.044 A 
ATOM      3  C   UNL     1       0.005  -0.683  -1.209  0.00  0.00    +0.004 A 
ATOM      4  C   UNL     1       0.021  -2.050  -1.232  0.00  0.00    +0.015 A 
ATOM      5  C   UNL     1       0.033  -2.761  -0.032  0.00  0.00    +0.065 A 
ATOM      6  C   UNL     1       0.036  -4.246  -0.038  0.00  0.00    +0.199 A 
ATOM      7  O   UNL     1       0.200  -4.908  -1.047  0.00  0.00    -0.287 OA
ATOM      8  C   UNL     1      -0.176  -4.839   1.286  0.00  0.00    +0.072 A 
ATOM      9  C   UNL     1      -0.158  -4.068   2.414  0.00  0.00    +0.199 A 
ATOM     10  O   UNL     1       0.060  -2.739   2.383  0.00  0.00    -0.449 OA
ATOM     11  C   UNL     1       0.036  -2.085   1.199  0.00  0.00    +0.143 A 
ATOM     12  C   UNL     1       0.023  -0.690   1.195  0.00  0.00    -0.005 A 
ATOM     13  C   UNL     1       0.025   0.066   2.499  0.00  0.00    +0.048 C 
ATOM     14  C   UNL     1      -0.408  -4.941   3.575  0.00  0.00    +0.283 C 
ATOM     15  O   UNL     1      -0.459  -4.566   4.729  0.00  0.00    -0.267 OA
ATOM     16  N   UNL     1      -0.571  -6.217   3.168  0.00  0.00    -0.284 N 
ATOM     17  C   UNL     1      -0.436  -6.249   1.703  0.00  0.00    +0.145 C 
ENDROOT
BRANCH  17  18
ATOM     18  C   UNL     1       0.721  -7.130   1.306  0.00  0.00    -0.018 A 
ATOM     19  C   UNL     1       0.626  -7.928   0.181  0.00  0.00    +0.055 A 
ATOM     20  C   UNL     1       1.688  -8.738  -0.186  0.00  0.00    +0.163 A 
ATOM     21  C   UNL     1       2.850  -8.747   0.581  0.00  0.00    +0.173 A 
ATOM     22  C   UNL     1       2.939  -7.945   1.708  0.00  0.00    +0.063 A 
ATOM     23  C   UNL     1       1.876  -7.134   2.065  0.00  0.00    +0.025 A 
ATOM     24 BR   UNL     1       4.515  -7.953   2.752  0.00  0.00    -0.046 Br
BRANCH  21  25
ATOM     25  O   UNL     1       3.895  -9.541   0.225  0.00  0.00    -0.503 OA
ATOM     26  H   UNL     1       4.527  -9.116  -0.370  0.00  0.00    +0.292 HD
ENDBRANCH  21  25
BRANCH  20  27
ATOM     27  O   UNL     1       1.596  -9.524  -1.292  0.00  0.00    -0.491 OA
ATOM     28  C   UNL     1       0.374  -9.463  -2.030  0.00  0.00    +0.277 C 
ENDBRANCH  20  27
ENDBRANCH  17  18
BRANCH  16  29
ATOM     29  C   UNL     1      -0.834  -7.369   4.034  0.00  0.00    +0.111 C 
BRANCH  29  30
ATOM     30  C   UNL     1      -2.345  -7.546   4.201  0.00  0.00    +0.047 C 
BRANCH  30  31
ATOM     31  C   UNL     1      -2.620  -8.749   5.105  0.00  0.00    +0.157 C 
BRANCH  31  32
ATOM     32  O   UNL     1      -4.031  -8.915   5.261  0.00  0.00    -0.395 OA
ATOM     33  H   UNL     1      -4.280  -9.661   5.823  0.00  0.00    +0.209 HD
ENDBRANCH  31  32
ENDBRANCH  30  31
ENDBRANCH  29  30
ENDBRANCH  16  29
TORSDOF 7
