REMARK  Name = ZINC03270031
REMARK  10 active torsions:
REMARK  status: ('A' for Active; 'I' for Inactive)
REMARK    1  A    between atoms: C_1  and  C_2
REMARK    2  A    between atoms: C_3  and  C_4
REMARK    3  A    between atoms: C_3  and  N_11
REMARK    4  A    between atoms: C_7  and  O_10
REMARK    5  A    between atoms: N_11  and  N_12
REMARK    6  A    between atoms: N_12  and  C_13
REMARK    7  A    between atoms: C_13  and  N_15
REMARK    8  A    between atoms: N_15  and  C_16
REMARK    9  A    between atoms: C_18  and  C_23
REMARK   10  A    between atoms: C_21  and  C_22
REMARK                            x       y       z     vdW  Elec       q    Type
REMARK                         _______ _______ _______ _____ _____    ______ ____
ROOT
ATOM      1  N   UNL     1      -1.014   1.717  -0.350  0.00  0.00    -0.248 N 
ATOM      2  H   UNL     1      -1.014   2.662  -0.569  0.00  0.00    +0.172 HD
ENDROOT
BRANCH   1   3
ATOM      3  N   UNL     1       0.193   1.062  -0.073  0.00  0.00    -0.265 N 
ATOM      4  H   UNL     1       0.206   0.100   0.049  0.00  0.00    +0.170 HD
BRANCH   3   7
ATOM      5  C   UNL     1       0.095   3.804  -0.589  0.00  0.00    +0.037 C 
ATOM      6  C   UNL     1       1.388   3.090  -0.293  0.00  0.00    -0.005 C 
ATOM      7  C   UNL     1       1.377   1.794   0.023  0.00  0.00    +0.047 C 
BRANCH   7   8
ATOM      8  C   UNL     1       2.622   1.132   0.475  0.00  0.00    -0.003 A 
ATOM      9  C   UNL     1       3.808   1.860   0.566  0.00  0.00    +0.013 A 
ATOM     10  C   UNL     1       4.964   1.242   0.993  0.00  0.00    +0.046 A 
ATOM     11  C   UNL     1       4.951  -0.107   1.321  0.00  0.00    +0.117 A 
ATOM     12  C   UNL     1       3.773  -0.837   1.227  0.00  0.00    +0.046 A 
ATOM     13  C   UNL     1       2.613  -0.224   0.806  0.00  0.00    +0.013 A 
BRANCH  11  14
ATOM     14  O   UNL     1       6.093  -0.715   1.736  0.00  0.00    -0.507 OA
ATOM     15  H   UNL     1       6.618  -1.097   1.019  0.00  0.00    +0.292 HD
ENDBRANCH  11  14
ENDBRANCH   7   8
ENDBRANCH   3   7
ENDBRANCH   1   3
BRANCH   1  16
ATOM     16  C   UNL     1      -2.175   1.033  -0.314  0.00  0.00    +0.151 C 
ATOM     17  S   UNL     1      -3.650   1.833  -0.653  0.00  0.00    -0.017 S 
BRANCH  16  18
ATOM     18  N   UNL     1      -2.175  -0.280  -0.011  0.00  0.00    -0.296 N 
ATOM     19  H   UNL     1      -1.349  -0.718   0.249  0.00  0.00    +0.154 HD
BRANCH  18  20
ATOM     20  C   UNL     1      -3.365  -1.012  -0.071  0.00  0.00    +0.036 A 
ATOM     21  C   UNL     1      -4.562  -0.428   0.322  0.00  0.00    +0.027 A 
ATOM     22  C   UNL     1      -5.737  -1.151   0.257  0.00  0.00    -0.049 A 
ATOM     23  C   UNL     1      -5.720  -2.461  -0.189  0.00  0.00    +0.004 A 
ATOM     24  C   UNL     1      -4.529  -3.047  -0.577  0.00  0.00    +0.005 A 
ATOM     25  C   UNL     1      -3.352  -2.327  -0.519  0.00  0.00    -0.029 A 
ATOM     26  C   UNL     1      -2.055  -2.966  -0.942  0.00  0.00    +0.045 C 
ATOM     27  C   UNL     1      -7.037  -0.516   0.678  0.00  0.00    +0.044 C 
ENDBRANCH  18  20
ENDBRANCH  16  18
ENDBRANCH   1  16
TORSDOF 7
