REMARK  Name = ZINC44942768
REMARK  3 active torsions:
REMARK  status: ('A' for Active; 'I' for Inactive)
REMARK    1  A    between atoms: C_13  and  C_15
REMARK    2  A    between atoms: C_21  and  C_23
REMARK    3  A    between atoms: N_28  and  C_31
REMARK                            x       y       z     vdW  Elec       q    Type
REMARK                         _______ _______ _______ _____ _____    ______ ____
ROOT
ATOM      1  C   UNL     1      -0.094  -6.664   1.191  0.00  0.00    +0.087 C 
ATOM      2  C   UNL     1      -0.852  -6.401  -0.111  0.00  0.00    +0.013 C 
ATOM      3  C   UNL     1      -2.122  -7.253  -0.144  0.00  0.00    +0.001 C 
ATOM      4  C   UNL     1      -1.746  -8.734  -0.063  0.00  0.00    +0.001 C 
ATOM      5  C   UNL     1      -0.988  -8.997   1.240  0.00  0.00    +0.013 C 
ATOM      6  C   UNL     1       0.283  -8.145   1.272  0.00  0.00    +0.087 C 
ENDROOT
BRANCH   1  19
ATOM      7  C   UNL     1      -0.180   0.868   4.198  0.00  0.00    +0.005 A 
ATOM      8  C   UNL     1       1.002   1.597   4.228  0.00  0.00    +0.018 A 
ATOM      9  C   UNL     1       2.193   0.965   3.935  0.00  0.00    +0.084 A 
ATOM     10  N   UNL     1       2.222  -0.319   3.628  0.00  0.00    -0.350 N 
ATOM     11  C   UNL     1       1.117  -1.047   3.589  0.00  0.00    +0.099 A 
ATOM     12  C   UNL     1      -0.119  -0.475   3.873  0.00  0.00    +0.042 A 
ATOM     13  N   UNL     1       1.193  -2.396   3.261  0.00  0.00    -0.314 N 
ATOM     14  C   UNL     1      -0.004  -3.248   3.318  0.00  0.00    +0.125 C 
ATOM     15  C   UNL     1      -0.194  -3.918   1.952  0.00  0.00    +0.126 C 
ATOM     16  N   UNL     1       1.084  -4.518   1.541  0.00  0.00    -0.298 N 
ATOM     17  C   UNL     1       2.280  -3.666   1.484  0.00  0.00    +0.126 C 
ATOM     18  C   UNL     1       2.469  -2.994   2.845  0.00  0.00    +0.125 C 
ATOM     19  C   UNL     1       1.157  -5.825   1.223  0.00  0.00    +0.219 C 
ATOM     20  O   UNL     1       2.230  -6.327   0.962  0.00  0.00    -0.275 OA
ATOM     21  H   UNL     1       3.073  -0.738   3.427  0.00  0.00    +0.166 HD
ENDBRANCH   1  19
BRANCH   6  22
ATOM     22  C   UNL     1       1.029  -8.405   2.555  0.00  0.00    +0.219 C 
ATOM     23  O   UNL     1       0.904  -7.646   3.493  0.00  0.00    -0.275 OA
ATOM     24  N   UNL     1       1.836  -9.479   2.660  0.00  0.00    -0.298 N 
ATOM     25  C   UNL     1       2.086 -10.343   1.498  0.00  0.00    +0.126 C 
ATOM     26  C   UNL     1       3.600 -10.435   1.273  0.00  0.00    +0.124 C 
ATOM     27  N   UNL     1       4.246 -10.764   2.552  0.00  0.00    -0.325 N 
ATOM     28  C   UNL     1       3.995  -9.900   3.714  0.00  0.00    +0.124 C 
ATOM     29  C   UNL     1       2.485  -9.805   3.938  0.00  0.00    +0.126 C 
BRANCH  27  30
ATOM     30  C   UNL     1       5.079 -11.875   2.660  0.00  0.00    +0.070 A 
ATOM     31  C   UNL     1       4.566 -13.124   3.011  0.00  0.00    +0.081 A 
ATOM     32  C   UNL     1       5.426 -14.199   3.107  0.00  0.00    +0.132 A 
ATOM     33  N   UNL     1       6.717 -14.057   2.873  0.00  0.00    -0.260 NA
ATOM     34  C   UNL     1       7.241 -12.892   2.539  0.00  0.00    +0.132 A 
ATOM     35  C   UNL     1       6.449 -11.769   2.416  0.00  0.00    +0.081 A 
ATOM     36 CL   UNL     1       7.148 -10.244   1.969  0.00  0.00    -0.080 Cl
ATOM     37 CL   UNL     1       2.870 -13.322   3.323  0.00  0.00    -0.080 Cl
ENDBRANCH  27  30
ENDBRANCH   6  22
TORSDOF 3
