REMARK  Name = ZINC00709614
REMARK  7 active torsions:
REMARK  status: ('A' for Active; 'I' for Inactive)
REMARK    1  A    between atoms: C_1  and  O_2
REMARK    2  A    between atoms: O_2  and  C_3
REMARK    3  A    between atoms: C_5  and  C_12
REMARK    4  A    between atoms: C_7  and  O_10
REMARK    5  A    between atoms: C_8  and  O_9
REMARK    6  A    between atoms: O_10  and  C_11
REMARK    7  A    between atoms: C_17  and  C_22
REMARK                            x       y       z     vdW  Elec       q    Type
REMARK                         _______ _______ _______ _____ _____    ______ ____
ROOT
ATOM      1  C   UNL     1      -1.280  -0.684   0.599  0.00  0.00    +0.136 C 
ATOM      2  C   UNL     1      -1.453  -1.040   2.056  0.00  0.00    +0.036 C 
ATOM      3  C   UNL     1      -1.365  -2.273   2.582  0.00  0.00    +0.017 C 
ATOM      4  C   UNL     1      -1.536  -2.486   4.077  0.00  0.00    +0.059 C 
ATOM      5  C   UNL     1      -2.526  -1.467   4.639  0.00  0.00    +0.032 C 
ATOM      6  C   UNL     1      -1.963  -0.068   4.361  0.00  0.00    +0.088 C 
ATOM      7  C   UNL     1      -1.735   0.071   2.886  0.00  0.00    +0.163 C 
ATOM      8  O   UNL     1      -1.794   1.177   2.385  0.00  0.00    -0.292 OA
ATOM      9  N   UNL     1      -1.121  -3.404   1.873  0.00  0.00    -0.316 N 
ATOM     10  C   UNL     1      -0.126  -3.539   0.912  0.00  0.00    +0.052 A 
ATOM     11  C   UNL     1       0.942  -4.406   1.069  0.00  0.00    +0.025 A 
ATOM     12  C   UNL     1       1.874  -4.525   0.053  0.00  0.00    +0.002 A 
ATOM     13  C   UNL     1       1.739  -3.786  -1.109  0.00  0.00    +0.002 A 
ATOM     14  C   UNL     1       0.681  -2.906  -1.260  0.00  0.00    +0.025 A 
ATOM     15  C   UNL     1      -0.242  -2.769  -0.236  0.00  0.00    +0.049 A 
ATOM     16  N   UNL     1      -1.259  -1.822  -0.295  0.00  0.00    -0.331 N 
ATOM     17  H   UNL     1      -1.683  -4.175   2.049  0.00  0.00    +0.152 HD
ATOM     18  H   UNL     1      -1.966  -1.927  -0.951  0.00  0.00    +0.147 HD
ENDROOT
BRANCH   5  19
ATOM     19  C   UNL     1      -2.680  -1.670   6.124  0.00  0.00    -0.040 A 
ATOM     20  C   UNL     1      -1.581  -1.554   6.954  0.00  0.00    +0.008 A 
ATOM     21  C   UNL     1      -1.717  -1.740   8.317  0.00  0.00    +0.050 A 
ATOM     22  C   UNL     1      -2.957  -2.042   8.855  0.00  0.00    +0.166 A 
ATOM     23  C   UNL     1      -4.065  -2.159   8.019  0.00  0.00    +0.166 A 
ATOM     24  C   UNL     1      -3.922  -1.967   6.654  0.00  0.00    +0.053 A 
ATOM     25  O   UNL     1      -5.157  -2.458   8.781  0.00  0.00    -0.453 OA
ATOM     26  C   UNL     1      -4.788  -2.121  10.131  0.00  0.00    +0.466 C 
ATOM     27  O   UNL     1      -3.356  -2.269  10.141  0.00  0.00    -0.453 OA
ENDBRANCH   5  19
BRANCH   1  30
ATOM     28  C   UNL     1       2.404   0.159   0.644  0.00  0.00    +0.165 A 
ATOM     29  C   UNL     1       1.210  -0.532   0.786  0.00  0.00    +0.055 A 
ATOM     30  C   UNL     1       0.015   0.071   0.442  0.00  0.00    -0.016 A 
ATOM     31  C   UNL     1       0.005   1.364  -0.046  0.00  0.00    +0.055 A 
ATOM     32  C   UNL     1       1.194   2.062  -0.192  0.00  0.00    +0.165 A 
ATOM     33  C   UNL     1       2.398   1.459   0.153  0.00  0.00    +0.201 A 
BRANCH  28  35
ATOM     34  C   UNL     1       3.510  -1.774   1.480  0.00  0.00    +0.277 C 
ATOM     35  O   UNL     1       3.579  -0.436   0.983  0.00  0.00    -0.491 OA
ENDBRANCH  28  35
BRANCH  33  36
ATOM     36  O   UNL     1       3.567   2.140   0.012  0.00  0.00    -0.501 OA
ATOM     37  H   UNL     1       3.824   2.647   0.794  0.00  0.00    +0.292 HD
ENDBRANCH  33  36
BRANCH  32  38
ATOM     38  O   UNL     1       1.183   3.334  -0.672  0.00  0.00    -0.491 OA
ATOM     39  C   UNL     1      -0.096   3.933  -0.892  0.00  0.00    +0.277 C 
ENDBRANCH  32  38
ENDBRANCH   1  30
TORSDOF 5
