REMARK  Name = ZINC14059986
REMARK  13 active torsions:
REMARK  status: ('A' for Active; 'I' for Inactive)
REMARK    1  A    between atoms: C_1  and  C_2
REMARK    2  A    between atoms: C_2  and  C_3
REMARK    3  A    between atoms: C_3  and  C_4
REMARK    4  A    between atoms: C_3  and  C_5
REMARK    5  A    between atoms: C_3  and  C_6
REMARK    6  A    between atoms: C_13  and  N_17
REMARK    7  A    between atoms: C_14  and  C_15
REMARK    8  A    between atoms: C_18  and  C_20
REMARK    9  A    between atoms: C_20  and  S_21
REMARK   10  A    between atoms: S_21  and  C_22
REMARK   11  A    between atoms: C_25  and  C_29
REMARK   12  A    between atoms: N_26  and  C_27
REMARK   13  A    between atoms: C_27  and  C_28
REMARK                            x       y       z     vdW  Elec       q    Type
REMARK                         _______ _______ _______ _____ _____    ______ ____
ROOT
ATOM      1  N   UNL     1       2.678  -7.851   0.430  0.00  0.00    -0.278 N 
ATOM      2  C   UNL     1       2.989  -8.111   1.716  0.00  0.00    +0.228 C 
ATOM      3  O   UNL     1       2.968  -7.219   2.537  0.00  0.00    -0.275 OA
ATOM      4  H   UNL     1       2.694  -8.565  -0.227  0.00  0.00    +0.155 HD
ENDROOT
BRANCH   1  11
ATOM      5  C   UNL     1       0.739  -2.027  -1.265  0.00  0.00    -0.000 C 
ATOM      6  C   UNL     1       1.460  -2.523  -2.521  0.00  0.00    +0.009 C 
ATOM      7  C   UNL     1       1.274  -4.035  -2.667  0.00  0.00    +0.037 C 
ATOM      8  C   UNL     1       1.672  -4.704  -1.359  0.00  0.00    -0.018 A 
ATOM      9  C   UNL     1       1.756  -4.000  -0.208  0.00  0.00    -0.004 A 
ATOM     10  S   UNL     1       2.244  -5.188   1.008  0.00  0.00    -0.077 S 
ATOM     11  C   UNL     1       2.335  -6.562   0.046  0.00  0.00    +0.090 A 
ATOM     12  C   UNL     1       1.990  -6.113  -1.218  0.00  0.00    +0.084 A 
ATOM     13  C   UNL     1       1.486  -2.538  -0.025  0.00  0.00    +0.047 C 
BRANCH   5  14
ATOM     14  C   UNL     1       0.718  -0.497  -1.257  0.00  0.00    -0.032 C 
ATOM     15  C   UNL     1      -0.022   0.009  -2.496  0.00  0.00    +0.011 C 
ATOM     16  C   UNL     1       2.154   0.032  -1.268  0.00  0.00    +0.011 C 
BRANCH  14  18
ATOM     17  C   UNL     1      -0.019   1.526   0.010  0.00  0.00    +0.004 C 
ATOM     18  C   UNL     1       0.002  -0.004   0.002  0.00  0.00    +0.003 C 
ENDBRANCH  14  18
ENDBRANCH   5  14
BRANCH  12  19
ATOM     19  C   UNL     1       1.949  -7.003  -2.339  0.00  0.00    +0.102 C 
ATOM     20  N   UNL     1       1.917  -7.709  -3.229  0.00  0.00    -0.191 NA
ENDBRANCH  12  19
ENDBRANCH   1  11
BRANCH   2  21
ATOM     21  C   UNL     1       3.361  -9.511   2.132  0.00  0.00    +0.173 C 
BRANCH  21  22
ATOM     22  S   UNL     1       3.721  -9.537   3.910  0.00  0.00    -0.077 S 
BRANCH  22  23
ATOM     23  C   UNL     1       4.133 -11.219   4.237  0.00  0.00    +0.192 A 
ATOM     24  N   UNL     1       4.166 -12.197   3.360  0.00  0.00    -0.122 NA
ATOM     25  N   UNL     1       4.506 -13.295   3.935  0.00  0.00    -0.125 NA
ATOM     26  C   UNL     1       4.711 -13.085   5.217  0.00  0.00    +0.200 A 
ATOM     27  N   UNL     1       4.484 -11.746   5.448  0.00  0.00    -0.300 N 
BRANCH  26  28
ATOM     28  C   UNL     1       5.113 -14.089   6.215  0.00  0.00    +0.172 A 
ATOM     29  C   UNL     1       5.620 -15.325   5.947  0.00  0.00    +0.053 A 
ATOM     30  C   UNL     1       5.863 -15.942   7.189  0.00  0.00    +0.042 A 
ATOM     31  C   UNL     1       5.497 -15.064   8.145  0.00  0.00    +0.196 A 
ATOM     32  O   UNL     1       5.049 -13.945   7.553  0.00  0.00    -0.460 OA
ENDBRANCH  26  28
BRANCH  27  33
ATOM     33  C   UNL     1       4.593 -11.037   6.725  0.00  0.00    +0.122 C 
ATOM     34  C   UNL     1       3.244 -11.076   7.447  0.00  0.00    +0.027 C 
ENDBRANCH  27  33
ENDBRANCH  22  23
ENDBRANCH  21  22
ENDBRANCH   2  21
TORSDOF 9
