REMARK  Name = ZINC39487608
REMARK  11 active torsions:
REMARK  status: ('A' for Active; 'I' for Inactive)
REMARK    1  A    between atoms: C_1  and  C_2
REMARK    2  A    between atoms: C_2  and  C_3
REMARK    3  A    between atoms: C_2  and  C_4
REMARK    4  A    between atoms: C_4  and  C_5
REMARK    5  A    between atoms: C_5  and  C_32
REMARK    6  A    between atoms: N_7  and  O_31
REMARK    7  A    between atoms: N_10  and  C_11
REMARK    8  A    between atoms: C_11  and  C_12
REMARK    9  A    between atoms: C_12  and  C_25
REMARK   10  A    between atoms: N_15  and  C_18
REMARK   11  A    between atoms: C_18  and  C_19
REMARK                            x       y       z     vdW  Elec       q    Type
REMARK                         _______ _______ _______ _____ _____    ______ ____
ROOT
ATOM      1  C   UNL     1       2.624   0.373   4.995  0.00  0.00    -0.014 C 
ATOM      2  C   UNL     1       2.118  -0.290   6.279  0.00  0.00    -0.010 C 
ATOM      3  C   UNL     1       0.717  -0.856   6.036  0.00  0.00    -0.078 C 
ATOM      4  N   UNL     1      -0.193   0.231   5.652  0.00  0.00    +0.382 N 
ATOM      5  C   UNL     1       0.246   0.824   4.384  0.00  0.00    -0.078 C 
ATOM      6  C   UNL     1       1.629   1.454   4.564  0.00  0.00    -0.010 C 
ATOM      7  H   UNL     1      -0.193   0.938   6.372  0.00  0.00    -0.081 HD
ENDROOT
BRANCH   1   8
ATOM      8  C   UNL     1       3.992   1.009   5.252  0.00  0.00    -0.003 C 
ATOM      9  C   UNL     1       4.921  -0.021   5.896  0.00  0.00    +0.004 C 
ATOM     10  C   UNL     1       6.289   0.615   6.152  0.00  0.00    +0.000 C 
ATOM     11  C   UNL     1       6.127   1.812   7.091  0.00  0.00    +0.000 C 
ATOM     12  C   UNL     1       5.197   2.843   6.447  0.00  0.00    +0.000 C 
ATOM     13  C   UNL     1       3.829   2.207   6.190  0.00  0.00    +0.004 C 
ENDBRANCH   1   8
BRANCH   1  14
ATOM     14  C   UNL     1       2.748  -0.679   3.891  0.00  0.00    +0.117 C 
BRANCH  14  20
ATOM     15  C   UNL     1       4.486  -0.113   2.030  0.00  0.00    +0.054 C 
ATOM     16  C   UNL     1       4.361   0.741   0.752  0.00  0.00    +0.167 C 
ATOM     17  N   UNL     1       2.969   1.214   0.780  0.00  0.00    -0.165 N 
ATOM     18  C   UNL     1       2.363   0.735   1.874  0.00  0.00    +0.328 C 
ATOM     19  O   UNL     1       1.202   0.973   2.146  0.00  0.00    -0.250 OA
ATOM     20  N   UNL     1       3.152  -0.029   2.641  0.00  0.00    -0.276 N 
ATOM     21  C   UNL     1       5.545   0.471   2.968  0.00  0.00    +0.033 C 
BRANCH  17  22
ATOM     22  O   UNL     1       2.366   2.045  -0.195  0.00  0.00    -0.291 OA
ATOM     23  H   UNL     1       1.440   2.256  -0.013  0.00  0.00    +0.242 HD
ENDBRANCH  17  22
BRANCH  15  24
ATOM     24  C   UNL     1       4.825  -1.562   1.676  0.00  0.00    +0.030 C 
BRANCH  24  26
ATOM     25  C   UNL     1       3.353  -1.595  -0.342  0.00  0.00    +0.007 C 
ATOM     26  C   UNL     1       3.610  -2.227   1.028  0.00  0.00    -0.015 C 
ATOM     27  C   UNL     1       3.877  -3.723   0.857  0.00  0.00    +0.007 C 
ENDBRANCH  24  26
ENDBRANCH  15  24
ENDBRANCH  14  20
ENDBRANCH   1  14
BRANCH   4  28
ATOM     28  C   UNL     1      -1.553  -0.304   5.496  0.00  0.00    -0.043 C 
BRANCH  28  29
ATOM     29  C   UNL     1      -2.514   0.831   5.255  0.00  0.00    -0.064 A 
ATOM     30  C   UNL     1      -3.126   1.457   6.325  0.00  0.00    +0.002 A 
ATOM     31  C   UNL     1      -4.008   2.499   6.104  0.00  0.00    +0.000 A 
ATOM     32  C   UNL     1      -4.277   2.914   4.813  0.00  0.00    +0.000 A 
ATOM     33  C   UNL     1      -3.664   2.289   3.744  0.00  0.00    +0.000 A 
ATOM     34  C   UNL     1      -2.779   1.250   3.965  0.00  0.00    +0.002 A 
ENDBRANCH  28  29
ENDBRANCH   4  28
TORSDOF 8
