REMARK  Name = ZINC35991717
REMARK  11 active torsions:
REMARK  status: ('A' for Active; 'I' for Inactive)
REMARK    1  A    between atoms: C_1  and  C_2
REMARK    2  A    between atoms: C_2  and  N_3
REMARK    3  A    between atoms: C_4  and  C_26
REMARK    4  A    between atoms: C_5  and  C_21
REMARK    5  A    between atoms: C_6  and  C_11
REMARK    6  A    between atoms: C_16  and  C_17
REMARK    7  A    between atoms: C_21  and  O_23
REMARK    8  A    between atoms: O_23  and  C_24
REMARK    9  A    between atoms: C_24  and  C_25
REMARK   10  A    between atoms: C_26  and  N_27
REMARK   11  A    between atoms: C_32  and  C_34
REMARK                            x       y       z     vdW  Elec       q    Type
REMARK                         _______ _______ _______ _____ _____    ______ ____
ROOT
ATOM      1  N   UNL     1       0.458  -0.015  -1.529  0.00  0.00    -0.261 N 
ATOM      2  C   UNL     1      -0.141  -0.894  -2.385  0.00  0.00    +0.010 C 
ATOM      3  C   UNL     1       0.592  -1.733  -3.148  0.00  0.00    +0.076 C 
ATOM      4  C   UNL     1       2.101  -1.663  -3.023  0.00  0.00    +0.144 C 
ATOM      5  N   UNL     1       2.647  -0.680  -2.072  0.00  0.00    -0.288 N 
ATOM      6  C   UNL     1       1.784   0.092  -1.382  0.00  0.00    +0.307 C 
ATOM      7  O   UNL     1       2.225   0.909  -0.597  0.00  0.00    -0.252 OA
ATOM      8  H   UNL     1       3.604  -0.589  -1.947  0.00  0.00    +0.151 HD
ENDROOT
BRANCH   4   9
ATOM      9  C   UNL     1       2.667  -1.355  -4.385  0.00  0.00    -0.011 A 
ATOM     10  C   UNL     1       2.302  -0.192  -5.038  0.00  0.00    +0.006 A 
ATOM     11  C   UNL     1       2.821   0.091  -6.287  0.00  0.00    +0.000 A 
ATOM     12  C   UNL     1       3.705  -0.788  -6.883  0.00  0.00    +0.001 A 
ATOM     13  C   UNL     1       4.071  -1.950  -6.231  0.00  0.00    +0.013 A 
ATOM     14  C   UNL     1       3.555  -2.231  -4.979  0.00  0.00    +0.060 A 
BRANCH  14  15
ATOM     15  C   UNL     1       3.958  -3.495  -4.265  0.00  0.00    +0.418 C 
ATOM     16  F   UNL     1       4.913  -4.177  -5.027  0.00  0.00    -0.166 F 
ATOM     17  F   UNL     1       4.501  -3.173  -3.016  0.00  0.00    -0.166 F 
ATOM     18  F   UNL     1       2.834  -4.310  -4.088  0.00  0.00    -0.166 F 
ENDBRANCH  14  15
ENDBRANCH   4   9
BRANCH   1  20
ATOM     19  C   UNL     1      -0.608   2.186  -1.475  0.00  0.00    +0.025 C 
ATOM     20  C   UNL     1      -0.400   0.865  -0.731  0.00  0.00    +0.111 C 
ENDBRANCH   1  20
BRANCH   3  21
ATOM     21  C   UNL     1      -0.026  -2.645  -4.035  0.00  0.00    +0.339 C 
ATOM     22  O   UNL     1      -1.239  -2.666  -4.138  0.00  0.00    -0.245 OA
BRANCH  21  23
ATOM     23  O   UNL     1       0.728  -3.493  -4.765  0.00  0.00    -0.462 OA
BRANCH  23  24
ATOM     24  C   UNL     1       0.047  -4.302  -5.726  0.00  0.00    +0.229 C 
ATOM     25  C   UNL     1       1.040  -5.271  -6.372  0.00  0.00    +0.048 C 
ENDBRANCH  23  24
ENDBRANCH  21  23
ENDBRANCH   3  21
BRANCH   2  26
ATOM     26  C   UNL     1      -1.645  -0.931  -2.479  0.00  0.00    -0.026 C 
BRANCH  26  27
ATOM     27  N   UNL     1      -2.159  -2.051  -1.679  0.00  0.00    +0.385 N 
ATOM     28  C   UNL     1      -1.831  -1.832  -0.265  0.00  0.00    -0.078 C 
ATOM     29  C   UNL     1      -2.292  -3.034   0.561  0.00  0.00    -0.019 C 
ATOM     30  C   UNL     1      -3.806  -3.202   0.407  0.00  0.00    -0.003 C 
ATOM     31  C   UNL     1      -4.144  -3.355  -1.079  0.00  0.00    -0.016 C 
ATOM     32  C   UNL     1      -3.614  -2.141  -1.845  0.00  0.00    -0.071 C 
ATOM     33  C   UNL     1      -3.950  -2.289  -3.330  0.00  0.00    -0.013 C 
ATOM     34  H   UNL     1      -1.732  -2.910  -1.992  0.00  0.00    -0.081 HD
ENDBRANCH  26  27
ENDBRANCH   2  26
TORSDOF 8
