REMARK  Name = ZINC63819084
REMARK  9 active torsions:
REMARK  status: ('A' for Active; 'I' for Inactive)
REMARK    1  A    between atoms: C_1  and  C_2
REMARK    2  A    between atoms: C_7  and  C_10
REMARK    3  A    between atoms: N_12  and  C_13
REMARK    4  A    between atoms: C_13  and  C_14
REMARK    5  A    between atoms: C_14  and  C_16
REMARK    6  A    between atoms: C_14  and  C_25
REMARK    7  A    between atoms: C_19  and  N_22
REMARK    8  A    between atoms: N_22  and  C_23
REMARK    9  A    between atoms: N_22  and  C_24
REMARK                            x       y       z     vdW  Elec       q    Type
REMARK                         _______ _______ _______ _____ _____    ______ ____
ROOT
ATOM      1  C   UNL     1      -5.431  -5.891   3.348  0.00  0.00    +0.064 C 
ENDROOT
BRANCH   1   2
ATOM      2  C   UNL     1      -6.177  -6.258   2.091  0.00  0.00    -0.033 C 
ATOM      3  C   UNL     1      -5.721  -7.016   1.067  0.00  0.00    -0.000 A 
ATOM      4  C   UNL     1      -4.444  -7.697   0.826  0.00  0.00    +0.010 A 
ATOM      5  C   UNL     1      -4.279  -8.396  -0.320  0.00  0.00    +0.001 A 
ATOM      6  C   UNL     1      -5.295  -8.485  -1.281  0.00  0.00    +0.002 A 
ATOM      7  C   UNL     1      -6.495  -7.887  -1.131  0.00  0.00    +0.026 A 
ATOM      8  C   UNL     1      -6.778  -7.126   0.037  0.00  0.00    +0.043 A 
ATOM      9  N   UNL     1      -7.846  -6.462   0.408  0.00  0.00    -0.380 N 
ATOM     10  C   UNL     1      -7.589  -5.861   1.722  0.00  0.00    +0.145 C 
ATOM     11  H   UNL     1      -8.670  -6.386  -0.098  0.00  0.00    +0.160 HD
ENDBRANCH   1   2
BRANCH   1  12
ATOM     12  C   UNL     1      -6.178  -6.416   4.547  0.00  0.00    -0.039 A 
ATOM     13  C   UNL     1      -7.475  -6.001   4.787  0.00  0.00    +0.006 A 
ATOM     14  C   UNL     1      -8.162  -6.481   5.885  0.00  0.00    +0.023 A 
ATOM     15  C   UNL     1      -7.549  -7.380   6.748  0.00  0.00    +0.029 A 
ATOM     16  C   UNL     1      -6.246  -7.795   6.503  0.00  0.00    +0.023 A 
ATOM     17  C   UNL     1      -5.567  -7.316   5.400  0.00  0.00    +0.006 A 
BRANCH  15  18
ATOM     18  N   UNL     1      -8.241  -7.867   7.859  0.00  0.00    -0.336 N 
ATOM     19  C   UNL     1      -9.615  -7.428   8.117  0.00  0.00    +0.129 C 
ATOM     20  C   UNL     1      -7.593  -8.816   8.768  0.00  0.00    +0.129 C 
ENDBRANCH  15  18
ENDBRANCH   1  12
BRANCH   1  21
ATOM     21  C   UNL     1      -5.316  -4.368   3.445  0.00  0.00    +0.116 C 
BRANCH  21  24
ATOM     22  C   UNL     1      -4.248  -2.548   2.227  0.00  0.00    +0.216 C 
ATOM     23  O   UNL     1      -4.717  -1.773   3.033  0.00  0.00    -0.276 OA
ATOM     24  N   UNL     1      -4.489  -3.869   2.344  0.00  0.00    -0.314 N 
ATOM     25  H   UNL     1      -4.114  -4.489   1.699  0.00  0.00    +0.149 HD
BRANCH  22  32
ATOM     26  C   UNL     1      -0.018   1.503   0.010  0.00  0.00    +0.109 C 
ATOM     27  C   UNL     1       0.002  -0.004   0.002  0.00  0.00    +0.212 C 
ATOM     28  O   UNL     1       1.060  -0.596  -0.011  0.00  0.00    -0.276 OA
ATOM     29  N   UNL     1      -1.156  -0.694   0.009  0.00  0.00    -0.302 N 
ATOM     30  C   UNL     1      -2.446   0.009   0.019  0.00  0.00    +0.108 C 
ATOM     31  C   UNL     1      -3.283  -0.512   1.192  0.00  0.00    +0.032 C 
ATOM     32  C   UNL     1      -3.397  -2.035   1.094  0.00  0.00    +0.078 C 
ATOM     33  C   UNL     1      -2.003  -2.660   1.180  0.00  0.00    +0.032 C 
ATOM     34  C   UNL     1      -1.152  -2.163   0.001  0.00  0.00    +0.108 C 
ENDBRANCH  22  32
ENDBRANCH  21  24
ENDBRANCH   1  21
TORSDOF 6
