REMARK  Name = ZINC02780744
REMARK  5 active torsions:
REMARK  status: ('A' for Active; 'I' for Inactive)
REMARK    1  A    between atoms: C_3  and  C_6
REMARK    2  A    between atoms: C_8  and  C_29
REMARK    3  A    between atoms: C_13  and  C_15
REMARK    4  A    between atoms: N_17  and  C_18
REMARK    5  A    between atoms: C_19  and  C_27
REMARK                            x       y       z     vdW  Elec       q    Type
REMARK                         _______ _______ _______ _____ _____    ______ ____
ROOT
ATOM      1  C   UNL     1      -3.842  12.529  -5.165  0.00  0.00    +0.082 A 
ATOM      2  C   UNL     1      -3.667  12.965  -3.828  0.00  0.00    +0.061 A 
ATOM      3  C   UNL     1      -3.291  12.075  -2.885  0.00  0.00    +0.149 A 
ATOM      4  N   UNL     1      -3.087  10.768  -3.240  0.00  0.00    -0.209 N 
ATOM      5  C   UNL     1      -3.264  10.375  -4.544  0.00  0.00    +0.157 A 
ATOM      6  N   UNL     1      -3.636  11.260  -5.479  0.00  0.00    -0.227 NA
ATOM      7  C   UNL     1      -2.991   9.017  -4.603  0.00  0.00    +0.083 A 
ATOM      8  C   UNL     1      -2.646   8.599  -3.313  0.00  0.00    +0.150 A 
ATOM      9  N   UNL     1      -2.709   9.641  -2.500  0.00  0.00    -0.160 NA
ENDROOT
BRANCH   1  12
ATOM     10  C   UNL     1      -4.851  14.334  -8.329  0.00  0.00    +0.008 A 
ATOM     11  C   UNL     1      -4.467  13.273  -7.543  0.00  0.00    +0.017 A 
ATOM     12  C   UNL     1      -4.251  13.488  -6.205  0.00  0.00    +0.038 A 
ATOM     13  S   UNL     1      -4.588  15.235  -6.055  0.00  0.00    -0.095 S 
ATOM     14  C   UNL     1      -4.996  15.561  -7.762  0.00  0.00    +0.046 A 
ENDBRANCH   1  12
BRANCH   8  15
ATOM     15  C   UNL     1      -2.279   7.221  -2.922  0.00  0.00    +0.269 C 
ATOM     16  O   UNL     1      -2.259   6.337  -3.757  0.00  0.00    -0.268 OA
ATOM     17  N   UNL     1      -1.965   6.945  -1.641  0.00  0.00    -0.274 N 
ATOM     18  H   UNL     1      -1.981   7.650  -0.975  0.00  0.00    +0.156 HD
BRANCH  17  19
ATOM     19  C   UNL     1      -1.621   5.653  -1.274  0.00  0.00    +0.090 A 
ATOM     20  C   UNL     1      -1.271   5.177  -0.019  0.00  0.00    +0.084 A 
ATOM     21  C   UNL     1      -0.951   3.765   0.100  0.00  0.00    -0.018 A 
ATOM     22  C   UNL     1      -1.032   3.059  -1.049  0.00  0.00    -0.004 A 
ATOM     23  S   UNL     1      -1.524   4.240  -2.273  0.00  0.00    -0.077 S 
ATOM     24  C   UNL     1      -0.761   1.597  -1.232  0.00  0.00    +0.043 C 
ATOM     25  C   UNL     1      -0.013   1.086   0.008  0.00  0.00    +0.005 C 
ATOM     26  C   UNL     1      -0.735   1.583   1.264  0.00  0.00    +0.005 C 
ATOM     27  C   UNL     1      -0.551   3.094   1.407  0.00  0.00    +0.037 C 
BRANCH  20  28
ATOM     28  C   UNL     1      -1.226   6.047   1.118  0.00  0.00    +0.102 C 
ATOM     29  N   UNL     1      -1.191   6.736   2.020  0.00  0.00    -0.191 NA
ENDBRANCH  20  28
ENDBRANCH  17  19
ENDBRANCH   8  15
BRANCH   3  30
ATOM     30  C   UNL     1      -3.099  12.514  -1.457  0.00  0.00    +0.434 C 
ATOM     31  F   UNL     1      -1.773  12.917  -1.267  0.00  0.00    -0.164 F 
ATOM     32  F   UNL     1      -3.956  13.585  -1.179  0.00  0.00    -0.164 F 
ATOM     33  F   UNL     1      -3.391  11.449  -0.598  0.00  0.00    -0.164 F 
ENDBRANCH   3  30
TORSDOF 5
