REMARK  Name = ZINC40992853
REMARK  11 active torsions:
REMARK  status: ('A' for Active; 'I' for Inactive)
REMARK    1  A    between atoms: C_1  and  C_2
REMARK    2  A    between atoms: C_5  and  N_8
REMARK    3  A    between atoms: N_8  and  S_24
REMARK    4  A    between atoms: C_9  and  C_11
REMARK    5  A    between atoms: C_11  and  O_12
REMARK    6  A    between atoms: O_12  and  C_13
REMARK    7  A    between atoms: C_15  and  C_23
REMARK    8  A    between atoms: C_18  and  C_19
REMARK    9  A    between atoms: C_19  and  C_20
REMARK   10  A    between atoms: C_19  and  C_21
REMARK   11  A    between atoms: S_24  and  C_27
REMARK                            x       y       z     vdW  Elec       q    Type
REMARK                         _______ _______ _______ _____ _____    ______ ____
ROOT
ATOM      1  N   UNL     1       0.059  -4.170  -0.021  0.00  0.00    -0.137 N 
ATOM      2  C   UNL     1       0.443  -4.826  -1.134  0.00  0.00    +0.277 C 
ATOM      3  O   UNL     1       0.876  -4.208  -2.083  0.00  0.00    -0.270 OA
ENDROOT
BRANCH   1   8
ATOM      4  C   UNL     1       0.064   1.503   0.072  0.00  0.00    +0.044 C 
ATOM      5  C   UNL     1       0.062  -0.004   0.048  0.00  0.00    -0.050 A 
ATOM      6  C   UNL     1      -0.720  -0.678  -0.872  0.00  0.00    +0.005 A 
ATOM      7  C   UNL     1      -0.724  -2.059  -0.897  0.00  0.00    +0.025 A 
ATOM      8  C   UNL     1       0.060  -2.771   0.002  0.00  0.00    +0.060 A 
ATOM      9  C   UNL     1       0.845  -2.091   0.923  0.00  0.00    +0.025 A 
ATOM     10  C   UNL     1       0.848  -0.710   0.941  0.00  0.00    +0.005 A 
ENDBRANCH   1   8
BRANCH   1  11
ATOM     11  S   UNL     1      -0.415  -5.019   1.319  0.00  0.00    +0.081 S 
ATOM     12  O   UNL     1       0.307  -6.243   1.301  0.00  0.00    -0.149 OA
ATOM     13  O   UNL     1      -0.355  -4.116   2.415  0.00  0.00    -0.149 OA
BRANCH  11  14
ATOM     14  C   UNL     1      -2.114  -5.433   1.101  0.00  0.00    +0.109 A 
ATOM     15  C   UNL     1      -3.098  -4.570   1.545  0.00  0.00    +0.029 A 
ATOM     16  C   UNL     1      -4.431  -4.895   1.373  0.00  0.00    +0.002 A 
ATOM     17  C   UNL     1      -4.779  -6.082   0.756  0.00  0.00    +0.000 A 
ATOM     18  C   UNL     1      -3.795  -6.944   0.311  0.00  0.00    +0.002 A 
ATOM     19  C   UNL     1      -2.462  -6.618   0.479  0.00  0.00    +0.029 A 
ENDBRANCH  11  14
ENDBRANCH   1  11
BRANCH   2  20
ATOM     20  C   UNL     1       0.334  -6.328  -1.198  0.00  0.00    +0.326 C 
BRANCH  20  21
ATOM     21  O   UNL     1       0.799  -6.785  -2.470  0.00  0.00    -0.482 OA
BRANCH  21  22
ATOM     22  C   UNL     1       0.768  -8.125  -2.693  0.00  0.00    +0.125 A 
ATOM     23  C   UNL     1       0.294  -8.982  -1.710  0.00  0.00    +0.050 A 
ATOM     24  C   UNL     1       0.263 -10.344  -1.938  0.00  0.00    -0.033 A 
ATOM     25  C   UNL     1       0.704 -10.854  -3.147  0.00  0.00    +0.021 A 
ATOM     26  C   UNL     1       1.177 -10.001  -4.128  0.00  0.00    +0.023 A 
ATOM     27  C   UNL     1       1.204  -8.638  -3.905  0.00  0.00    -0.002 A 
ATOM     28 BR   UNL     1       0.661 -12.719  -3.457  0.00  0.00    -0.050 Br
ATOM     29  C   UNL     1      -0.252 -11.275  -0.871  0.00  0.00    +0.045 C 
BRANCH  27  30
ATOM     30  C   UNL     1       1.713  -7.709  -4.977  0.00  0.00    +0.016 C 
ATOM     31  C   UNL     1       3.164  -8.062  -5.312  0.00  0.00    +0.012 C 
ATOM     32  C   UNL     1       0.850  -7.856  -6.232  0.00  0.00    +0.012 C 
ENDBRANCH  27  30
ENDBRANCH  21  22
ENDBRANCH  20  21
ENDBRANCH   2  20
TORSDOF 7
