REMARK  Name = ZINC36305022
REMARK  14 active torsions:
REMARK  status: ('A' for Active; 'I' for Inactive)
REMARK    1  A    between atoms: C_1  and  C_2
REMARK    2  A    between atoms: C_2  and  C_3
REMARK    3  A    between atoms: C_2  and  C_4
REMARK    4  A    between atoms: C_4  and  C_6
REMARK    5  A    between atoms: C_4  and  O_36
REMARK    6  A    between atoms: C_6  and  N_7
REMARK    7  A    between atoms: N_7  and  C_8
REMARK    8  A    between atoms: N_7  and  C_29
REMARK    9  A    between atoms: C_8  and  C_9
REMARK   10  A    between atoms: C_10  and  C_23
REMARK   11  A    between atoms: N_12  and  C_22
REMARK   12  A    between atoms: C_13  and  O_14
REMARK   13  A    between atoms: O_14  and  C_15
REMARK   14  A    between atoms: C_29  and  C_30
REMARK                            x       y       z     vdW  Elec       q    Type
REMARK                         _______ _______ _______ _____ _____    ______ ____
ROOT
ATOM      1  C   UNL     1      -4.809  -4.557  -0.361  0.00  0.00    +0.025 A 
ATOM      2  C   UNL     1      -5.588  -4.759   0.793  0.00  0.00    +0.098 A 
ATOM      3  N   UNL     1      -6.830  -4.977   0.416  0.00  0.00    -0.168 NA
ATOM      4  N   UNL     1      -6.880  -4.921  -0.983  0.00  0.00    -0.235 N 
ATOM      5  C   UNL     1      -5.629  -4.657  -1.439  0.00  0.00    +0.221 A 
ATOM      6  C   UNL     1      -8.075  -5.110  -1.810  0.00  0.00    +0.176 C 
ENDROOT
BRANCH   2   7
ATOM      7  C   UNL     1      -5.096  -4.731   2.193  0.00  0.00    +0.002 A 
ATOM      8  C   UNL     1      -3.896  -5.356   2.524  0.00  0.00    +0.010 A 
ATOM      9  C   UNL     1      -3.442  -5.327   3.828  0.00  0.00    +0.001 A 
ATOM     10  C   UNL     1      -4.177  -4.679   4.804  0.00  0.00    +0.000 A 
ATOM     11  C   UNL     1      -5.369  -4.057   4.481  0.00  0.00    +0.001 A 
ATOM     12  C   UNL     1      -5.829  -4.075   3.179  0.00  0.00    +0.010 A 
ENDBRANCH   2   7
BRANCH   1  13
ATOM     13  C   UNL     1      -3.329  -4.274  -0.395  0.00  0.00    -0.035 C 
BRANCH  13  14
ATOM     14  N   UNL     1      -3.110  -2.826  -0.505  0.00  0.00    +0.386 N 
ATOM     15  H   UNL     1      -3.613  -2.469  -1.303  0.00  0.00    -0.081 HD
BRANCH  14  16
ATOM     16  C   UNL     1      -3.593  -2.164   0.715  0.00  0.00    -0.046 C 
BRANCH  16  17
ATOM     17  C   UNL     1      -3.480  -0.647   0.550  0.00  0.00    +0.101 C 
BRANCH  17  19
ATOM     18  C   UNL     1      -3.752   1.555   1.699  0.00  0.00    +0.010 C 
ATOM     19  C   UNL     1      -3.865   0.038   1.863  0.00  0.00    +0.010 C 
ATOM     20  C   UNL     1      -5.305  -0.329   2.227  0.00  0.00    +0.010 C 
ENDBRANCH  17  19
BRANCH  17  21
ATOM     21  O   UNL     1      -4.359  -0.213  -0.489  0.00  0.00    -0.393 OA
ATOM     22  H   UNL     1      -5.291  -0.414  -0.325  0.00  0.00    +0.210 HD
ENDBRANCH  17  21
ENDBRANCH  16  17
ENDBRANCH  14  16
BRANCH  14  23
ATOM     23  C   UNL     1      -1.675  -2.559  -0.671  0.00  0.00    -0.046 C 
BRANCH  23  24
ATOM     24  C   UNL     1      -1.204  -3.119  -2.014  0.00  0.00    +0.102 C 
ATOM     25  C   UNL     1       0.297  -2.817  -2.211  0.00  0.00    +0.032 C 
ATOM     26  C   UNL     1       0.368  -2.465  -3.722  0.00  0.00    +0.030 C 
ATOM     27  C   UNL     1      -1.001  -1.767  -3.925  0.00  0.00    +0.160 C 
ATOM     28  O   UNL     1      -1.918  -2.486  -3.082  0.00  0.00    -0.378 OA
ENDBRANCH  23  24
ENDBRANCH  14  23
ENDBRANCH  13  14
ENDBRANCH   1  13
BRANCH   5  29
ATOM     29  O   UNL     1      -5.262  -4.521  -2.739  0.00  0.00    -0.437 OA
BRANCH  29  30
ATOM     30  C   UNL     1      -4.963  -5.647  -3.438  0.00  0.00    +0.149 A 
ATOM     31  C   UNL     1      -5.136  -6.894  -2.856  0.00  0.00    +0.048 A 
ATOM     32  C   UNL     1      -4.831  -8.037  -3.570  0.00  0.00    +0.004 A 
ATOM     33  C   UNL     1      -4.352  -7.939  -4.863  0.00  0.00    +0.002 A 
ATOM     34  C   UNL     1      -4.178  -6.698  -5.447  0.00  0.00    +0.024 A 
ATOM     35  C   UNL     1      -4.488  -5.551  -4.740  0.00  0.00    +0.083 A 
ATOM     36 CL   UNL     1      -4.277  -3.993  -5.475  0.00  0.00    -0.080 Cl
ENDBRANCH  29  30
ENDBRANCH   5  29
TORSDOF 11
