REMARK  Name = ZINC40008980
REMARK  17 active torsions:
REMARK  status: ('A' for Active; 'I' for Inactive)
REMARK    1  A    between atoms: C_1  and  C_2
REMARK    2  A    between atoms: C_2  and  C_3
REMARK    3  A    between atoms: C_3  and  C_4
REMARK    4  A    between atoms: C_4  and  N_5
REMARK    5  A    between atoms: N_5  and  C_6
REMARK    6  A    between atoms: N_5  and  C_10
REMARK    7  A    between atoms: C_6  and  C_7
REMARK    8  A    between atoms: C_7  and  C_8
REMARK    9  A    between atoms: C_8  and  C_9
REMARK   10  A    between atoms: C_10  and  C_11
REMARK   11  A    between atoms: C_11  and  C_12
REMARK   12  A    between atoms: C_12  and  N_13
REMARK   13  A    between atoms: C_14  and  C_31
REMARK   14  A    between atoms: C_21  and  C_30
REMARK   15  A    between atoms: C_22  and  C_29
REMARK   16  A    between atoms: C_34  and  C_37
REMARK   17  A    between atoms: C_37  and  C_38
REMARK                            x       y       z     vdW  Elec       q    Type
REMARK                         _______ _______ _______ _____ _____    ______ ____
ROOT
ATOM      1  N   UNL     1      -5.843  -6.582   0.173  0.00  0.00    -0.284 N 
ATOM      2  C   UNL     1      -6.811  -6.686   1.277  0.00  0.00    +0.144 C 
ATOM      3  C   UNL     1      -8.069  -7.212   0.667  0.00  0.00    +0.072 A 
ATOM      4  C   UNL     1      -9.371  -7.532   1.262  0.00  0.00    +0.199 A 
ATOM      5  O   UNL     1      -9.675  -7.234   2.403  0.00  0.00    -0.287 OA
ATOM      6  C   UNL     1     -10.284  -8.254   0.340  0.00  0.00    +0.065 A 
ATOM      7  C   UNL     1     -11.476  -8.802   0.812  0.00  0.00    +0.019 A 
ATOM      8  C   UNL     1     -12.304  -9.468  -0.049  0.00  0.00    -0.047 A 
ATOM      9  C   UNL     1     -11.961  -9.599  -1.387  0.00  0.00    -0.044 A 
ATOM     10  C   UNL     1     -10.789  -9.062  -1.871  0.00  0.00    +0.050 A 
ATOM     11  C   UNL     1      -9.928  -8.377  -1.014  0.00  0.00    +0.140 A 
ATOM     12  O   UNL     1      -8.787  -7.849  -1.512  0.00  0.00    -0.450 OA
ATOM     13  C   UNL     1      -7.842  -7.389  -0.668  0.00  0.00    +0.199 A 
ATOM     14  C   UNL     1      -6.454  -6.989  -0.958  0.00  0.00    +0.283 C 
ATOM     15  O   UNL     1      -5.934  -7.024  -2.056  0.00  0.00    -0.267 OA
ATOM     16  C   UNL     1     -12.883 -10.338  -2.323  0.00  0.00    +0.044 C 
ATOM     17  C   UNL     1     -13.594 -10.061   0.457  0.00  0.00    +0.044 C 
ENDROOT
BRANCH   2  18
ATOM     18  C   UNL     1      -7.055  -5.328   1.884  0.00  0.00    -0.022 A 
ATOM     19  C   UNL     1      -7.161  -4.216   1.071  0.00  0.00    +0.006 A 
ATOM     20  C   UNL     1      -7.384  -2.971   1.628  0.00  0.00    +0.004 A 
ATOM     21  C   UNL     1      -7.502  -2.838   2.999  0.00  0.00    -0.048 A 
ATOM     22  C   UNL     1      -7.397  -3.951   3.812  0.00  0.00    +0.004 A 
ATOM     23  C   UNL     1      -7.178  -5.197   3.255  0.00  0.00    +0.006 A 
BRANCH  21  24
ATOM     24  C   UNL     1      -7.745  -1.480   3.606  0.00  0.00    +0.032 C 
ATOM     25  C   UNL     1      -9.251  -1.230   3.709  0.00  0.00    +0.009 C 
ENDBRANCH  21  24
ENDBRANCH   2  18
BRANCH   1  26
ATOM     26  C   UNL     1      -4.460  -6.112   0.284  0.00  0.00    +0.107 C 
BRANCH  26  27
ATOM     27  C   UNL     1      -4.417  -4.598   0.072  0.00  0.00    +0.000 C 
BRANCH  27  28
ATOM     28  C   UNL     1      -2.972  -4.107   0.187  0.00  0.00    -0.077 C 
BRANCH  28  29
ATOM     29  N   UNL     1      -2.913  -2.677  -0.142  0.00  0.00    +0.380 N 
ATOM     30  H   UNL     1      -3.320  -2.524  -1.052  0.00  0.00    -0.082 HD
BRANCH  29  31
ATOM     31  C   UNL     1      -3.662  -1.912   0.864  0.00  0.00    -0.079 C 
BRANCH  31  32
ATOM     32  C   UNL     1      -3.706  -0.438   0.455  0.00  0.00    -0.019 C 
BRANCH  32  34
ATOM     33  C   UNL     1      -4.531   1.832   1.093  0.00  0.00    +0.004 C 
ATOM     34  C   UNL     1      -4.487   0.358   1.502  0.00  0.00    -0.005 C 
ENDBRANCH  32  34
ENDBRANCH  31  32
ENDBRANCH  29  31
BRANCH  29  35
ATOM     35  C   UNL     1      -1.512  -2.234  -0.150  0.00  0.00    -0.079 C 
BRANCH  35  36
ATOM     36  C   UNL     1      -0.769  -2.915  -1.302  0.00  0.00    -0.019 C 
BRANCH  36  37
ATOM     37  C   UNL     1       0.708  -2.516  -1.262  0.00  0.00    -0.005 C 
ATOM     38  C   UNL     1       1.451  -3.197  -2.413  0.00  0.00    +0.004 C 
ENDBRANCH  36  37
ENDBRANCH  35  36
ENDBRANCH  29  35
ENDBRANCH  28  29
ENDBRANCH  27  28
ENDBRANCH  26  27
ENDBRANCH   1  26
TORSDOF 12
