REMARK  Name = ZINC12296982
REMARK  2 active torsions:
REMARK  status: ('A' for Active; 'I' for Inactive)
REMARK    1  A    between atoms: C_2  and  C_11
REMARK    2  A    between atoms: C_11  and  P_12
REMARK                            x       y       z     vdW  Elec       q    Type
REMARK                         _______ _______ _______ _____ _____    ______ ____
ROOT
ATOM      1  C   UNL     1      -1.246   1.911   0.018  0.00  0.00    +0.092 A 
ATOM      2  C   UNL     1      -1.236   3.261   0.032  0.00  0.00    +0.037 A 
ATOM      3  N   UNL     1      -0.043   3.930   0.024  0.00  0.00    -0.311 N 
ATOM      4  H   UNL     1      -0.035   4.931   0.030  0.00  0.00    +0.170 HD
ATOM      5  C   UNL     1       1.121   3.256   0.009  0.00  0.00    +0.327 A 
ATOM      6  O   UNL     1       2.170   3.870   0.002  0.00  0.00    -0.247 OA
ATOM      7  N   UNL     1       1.140   1.910   0.001  0.00  0.00    -0.275 N 
ATOM      8  H   UNL     1       2.014   1.424  -0.010  0.00  0.00    +0.173 HD
ATOM      9  C   UNL     1      -0.014   1.214   0.009  0.00  0.00    +0.254 A 
ATOM     10  O   UNL     1       0.002  -0.004   0.002  0.00  0.00    -0.268 OA
ENDROOT
BRANCH   2  11
ATOM     11  C   UNL     1      -2.534   4.028   0.049  0.00  0.00    +0.185 C 
BRANCH  11  12
ATOM     12  P   UNL     1      -3.931   2.857   0.056  0.00  0.00    +0.392 P 
ATOM     13  O   UNL     1      -3.784   1.921   1.192  0.00  0.00    -0.254 OA
ATOM     14  O   UNL     1      -5.312   3.671   0.205  0.00  0.00    -0.138 OA
ATOM     15  O   UNL     1      -3.944   2.028  -1.325  0.00  0.00    -0.138 OA
ENDBRANCH  11  12
ENDBRANCH   2  11
TORSDOF 2
