REMARK  Name = ZINC09866775
REMARK  9 active torsions:
REMARK  status: ('A' for Active; 'I' for Inactive)
REMARK    1  A    between atoms: C_1  and  C_2
REMARK    2  A    between atoms: C_2  and  C_4
REMARK    3  A    between atoms: C_2  and  N_61
REMARK    4  A    between atoms: C_7  and  S_17
REMARK    5  A    between atoms: N_8  and  C_9
REMARK    6  A    between atoms: C_12  and  O_15
REMARK    7  A    between atoms: O_15  and  C_16
REMARK    8  A    between atoms: S_17  and  C_18
REMARK    9  A    between atoms: C_18  and  N_19
REMARK                            x       y       z     vdW  Elec       q    Type
REMARK                         _______ _______ _______ _____ _____    ______ ____
ROOT
ATOM      1  C   UNL     1      -0.767  -0.841   0.811  0.00  0.00    +0.125 A 
ATOM      2  N   UNL     1      -0.586  -2.061   0.388  0.00  0.00    -0.135 NA
ATOM      3  N   UNL     1       0.050  -2.052  -0.729  0.00  0.00    -0.122 NA
ATOM      4  C   UNL     1       0.307  -0.815  -1.086  0.00  0.00    +0.198 A 
ATOM      5  N   UNL     1      -0.202  -0.002  -0.111  0.00  0.00    -0.275 N 
ENDROOT
BRANCH   5   6
ATOM      6  C   UNL     1      -0.158   1.401  -0.068  0.00  0.00    +0.050 A 
ATOM      7  C   UNL     1      -1.334   2.134  -0.149  0.00  0.00    +0.030 A 
ATOM      8  C   UNL     1      -1.291   3.514  -0.102  0.00  0.00    +0.047 A 
ATOM      9  C   UNL     1      -0.073   4.166   0.016  0.00  0.00    +0.120 A 
ATOM     10  C   UNL     1       1.103   3.434   0.092  0.00  0.00    +0.047 A 
ATOM     11  C   UNL     1       1.061   2.054   0.050  0.00  0.00    +0.030 A 
BRANCH   9  12
ATOM     12  O   UNL     1      -0.031   5.525   0.058  0.00  0.00    -0.495 OA
ATOM     13  C   UNL     1      -1.279   6.215  -0.025  0.00  0.00    +0.277 C 
ENDBRANCH   9  12
ENDBRANCH   5   6
BRANCH   1  15
ATOM     14  C   UNL     1      -0.560  -0.710   3.279  0.00  0.00    -0.005 C 
ATOM     15  C   UNL     1      -1.469  -0.431   2.080  0.00  0.00    -0.002 C 
BRANCH  15  21
ATOM     16  C   UNL     1      -3.570  -1.032   1.040  0.00  0.00    -0.078 C 
ATOM     17  C   UNL     1      -4.786  -1.955   1.156  0.00  0.00    -0.019 C 
ATOM     18  C   UNL     1      -5.565  -1.606   2.427  0.00  0.00    -0.004 C 
ATOM     19  C   UNL     1      -4.638  -1.739   3.638  0.00  0.00    -0.019 C 
ATOM     20  C   UNL     1      -3.426  -0.823   3.450  0.00  0.00    -0.078 C 
ATOM     21  N   UNL     1      -2.706  -1.226   2.223  0.00  0.00    +0.386 N 
ATOM     22  H   UNL     1      -2.457  -2.220   2.294  0.00  0.00    -0.081 HD
ENDBRANCH  15  21
ENDBRANCH   1  15
BRANCH   4  23
ATOM     23  S   UNL     1       1.151  -0.300  -2.545  0.00  0.00    -0.062 S 
BRANCH  23  24
ATOM     24  C   UNL     1       1.635  -1.911  -3.213  0.00  0.00    +0.226 C 
BRANCH  24  25
ATOM     25  N   UNL     1       2.769  -2.436  -2.450  0.00  0.00    -0.200 N 
ATOM     26  C   UNL     1       4.031  -2.066  -2.772  0.00  0.00    +0.279 A 
ATOM     27  O   UNL     1       4.250  -1.298  -3.691  0.00  0.00    -0.265 OA
ATOM     28  C   UNL     1       5.126  -2.624  -1.964  0.00  0.00    +0.068 A 
ATOM     29  C   UNL     1       6.458  -2.300  -2.215  0.00  0.00    +0.015 A 
ATOM     30  C   UNL     1       7.450  -2.852  -1.435  0.00  0.00    +0.001 A 
ATOM     31  C   UNL     1       7.133  -3.727  -0.404  0.00  0.00    +0.002 A 
ATOM     32  C   UNL     1       5.823  -4.060  -0.140  0.00  0.00    +0.030 A 
ATOM     33  C   UNL     1       4.799  -3.513  -0.917  0.00  0.00    +0.100 A 
ATOM     34  N   UNL     1       3.498  -3.818  -0.686  0.00  0.00    -0.131 NA
ATOM     35  N   UNL     1       2.547  -3.323  -1.393  0.00  0.00    -0.061 NA
ENDBRANCH  24  25
ENDBRANCH  23  24
ENDBRANCH   4  23
TORSDOF 7
