REMARK  Name = ZINC40110915
REMARK  14 active torsions:
REMARK  status: ('A' for Active; 'I' for Inactive)
REMARK    1  A    between atoms: C_1  and  C_2
REMARK    2  A    between atoms: C_2  and  C_3
REMARK    3  A    between atoms: C_3  and  C_4
REMARK    4  A    between atoms: C_4  and  N_5
REMARK    5  A    between atoms: C_6  and  C_27
REMARK    6  A    between atoms: C_8  and  C_13
REMARK    7  A    between atoms: C_13  and  C_15
REMARK    8  A    between atoms: C_18  and  S_21
REMARK    9  A    between atoms: S_21  and  N_24
REMARK   10  A    between atoms: N_24  and  C_25
REMARK   11  A    between atoms: N_24  and  C_26
REMARK   12  A    between atoms: C_32  and  O_33
REMARK   13  A    between atoms: O_33  and  C_34
REMARK   14  A    between atoms: C_34  and  C_35
REMARK                            x       y       z     vdW  Elec       q    Type
REMARK                         _______ _______ _______ _____ _____    ______ ____
ROOT
ATOM      1  N   UNL     1       1.438  -2.506  -2.450  0.00  0.00    -0.283 N 
ATOM      2  C   UNL     1       0.751  -2.703  -3.732  0.00  0.00    +0.148 C 
ATOM      3  C   UNL     1       1.780  -3.280  -4.676  0.00  0.00    +0.076 C 
ATOM      4  C   UNL     1       2.933  -3.392  -3.976  0.00  0.00    +0.249 C 
ATOM      5  C   UNL     1       2.714  -2.905  -2.598  0.00  0.00    +0.288 C 
ATOM      6  O   UNL     1       3.561  -2.871  -1.727  0.00  0.00    -0.266 OA
ATOM      7  O   UNL     1       4.102  -3.869  -4.462  0.00  0.00    -0.282 OA
ENDROOT
BRANCH   2   8
ATOM      8  C   UNL     1      -0.396  -3.665  -3.563  0.00  0.00    +0.019 A 
ATOM      9  C   UNL     1      -0.367  -4.606  -2.551  0.00  0.00    +0.009 A 
ATOM     10  C   UNL     1      -1.419  -5.489  -2.396  0.00  0.00    +0.001 A 
ATOM     11  C   UNL     1      -2.504  -5.433  -3.252  0.00  0.00    +0.004 A 
ATOM     12  C   UNL     1      -2.538  -4.494  -4.264  0.00  0.00    +0.046 A 
ATOM     13  C   UNL     1      -1.486  -3.603  -4.419  0.00  0.00    +0.126 A 
BRANCH  13  14
ATOM     14  O   UNL     1      -1.520  -2.675  -5.411  0.00  0.00    -0.492 OA
BRANCH  14  15
ATOM     15  C   UNL     1      -2.716  -2.601  -6.189  0.00  0.00    +0.225 C 
ATOM     16  C   UNL     1      -2.536  -1.569  -7.304  0.00  0.00    +0.048 C 
ENDBRANCH  14  15
ENDBRANCH  13  14
ENDBRANCH   2   8
BRANCH   3  17
ATOM     17  C   UNL     1       1.570  -3.648  -6.079  0.00  0.00    +0.195 C 
ATOM     18  O   UNL     1       1.498  -2.783  -6.931  0.00  0.00    -0.287 OA
BRANCH  17  19
ATOM     19  C   UNL     1       1.445  -5.072  -6.460  0.00  0.00    +0.022 A 
ATOM     20  C   UNL     1       1.424  -6.062  -5.475  0.00  0.00    +0.013 A 
ATOM     21  C   UNL     1       1.306  -7.388  -5.837  0.00  0.00    +0.029 A 
ATOM     22  C   UNL     1       1.210  -7.738  -7.172  0.00  0.00    +0.105 A 
ATOM     23  C   UNL     1       1.231  -6.762  -8.153  0.00  0.00    +0.029 A 
ATOM     24  C   UNL     1       1.342  -5.432  -7.805  0.00  0.00    +0.013 A 
BRANCH  22  25
ATOM     25  S   UNL     1       1.062  -9.434  -7.625  0.00  0.00    +0.060 S 
ATOM     26  O   UNL     1       1.425  -9.521  -8.996  0.00  0.00    -0.153 OA
ATOM     27  O   UNL     1       1.720 -10.184  -6.614  0.00  0.00    -0.153 OA
BRANCH  25  28
ATOM     28  N   UNL     1      -0.545  -9.826  -7.535  0.00  0.00    -0.183 NA
ATOM     29  C   UNL     1      -1.406  -9.661  -8.709  0.00  0.00    +0.131 C 
ATOM     30  C   UNL     1      -1.105 -10.336  -6.282  0.00  0.00    +0.131 C 
ENDBRANCH  25  28
ENDBRANCH  22  25
ENDBRANCH  17  19
ENDBRANCH   3  17
BRANCH   1  31
ATOM     31  C   UNL     1       0.840  -1.966  -1.226  0.00  0.00    +0.109 C 
BRANCH  31  32
ATOM     32  C   UNL     1       1.001  -0.444  -1.209  0.00  0.00    +0.019 C 
BRANCH  32  34
ATOM     33  C   UNL     1       0.538   1.642   0.085  0.00  0.00    +0.004 C 
ATOM     34  C   UNL     1       0.377   0.121   0.068  0.00  0.00    -0.002 C 
ENDBRANCH  32  34
ENDBRANCH  31  32
ENDBRANCH   1  31
TORSDOF 10
