REMARK  Name = ZINC39937368
REMARK  8 active torsions:
REMARK  status: ('A' for Active; 'I' for Inactive)
REMARK    1  A    between atoms: C_1  and  C_2
REMARK    2  A    between atoms: C_2  and  C_4
REMARK    3  A    between atoms: C_2  and  C_8
REMARK    4  A    between atoms: C_4  and  C_5
REMARK    5  A    between atoms: C_14  and  C_35
REMARK    6  A    between atoms: C_15  and  O_34
REMARK    7  A    between atoms: C_26  and  C_33
REMARK    8  A    between atoms: C_29  and  O_32
REMARK                            x       y       z     vdW  Elec       q    Type
REMARK                         _______ _______ _______ _____ _____    ______ ____
ROOT
ATOM      1  C   UNL     1      -1.513  -0.390   0.081  0.00  0.00    +0.001 C 
ATOM      2  C   UNL     1      -2.286  -0.164  -1.245  0.00  0.00    +0.005 C 
ATOM      3  C   UNL     1      -3.066  -1.482  -1.526  0.00  0.00    +0.005 C 
ATOM      4  C   UNL     1      -3.064  -2.153  -0.142  0.00  0.00    +0.001 C 
ATOM      5  C   UNL     1      -1.603  -1.918   0.298  0.00  0.00    +0.000 C 
ATOM      6  C   UNL     1      -1.389  -2.383   1.712  0.00  0.00    +0.121 C 
ATOM      7  C   UNL     1      -1.965  -3.784   1.945  0.00  0.00    +0.036 C 
ATOM      8  C   UNL     1      -2.466  -4.446   0.677  0.00  0.00    +0.001 C 
ATOM      9  C   UNL     1      -3.483  -3.586  -0.065  0.00  0.00    -0.004 C 
ATOM     10  C   UNL     1      -3.761  -4.215  -1.431  0.00  0.00    +0.004 C 
ATOM     11  C   UNL     1      -4.357  -5.611  -1.212  0.00  0.00    +0.004 C 
ATOM     12  C   UNL     1      -4.450  -5.910   0.281  0.00  0.00    -0.002 C 
ATOM     13  C   UNL     1      -3.085  -5.823   0.956  0.00  0.00    -0.026 C 
ATOM     14  C   UNL     1      -3.248  -6.042   2.458  0.00  0.00    +0.010 C 
ATOM     15  C   UNL     1      -3.892  -7.400   2.734  0.00  0.00    +0.032 C 
ATOM     16  C   UNL     1      -5.236  -7.520   2.019  0.00  0.00    +0.115 C 
ATOM     17  C   UNL     1      -5.070  -7.287   0.517  0.00  0.00    +0.035 C 
ATOM     18  C   UNL     1      -2.136  -6.883   0.387  0.00  0.00    +0.012 C 
ATOM     19  C   UNL     1      -0.585  -2.547  -0.653  0.00  0.00    +0.014 C 
ENDROOT
BRANCH   1  21
ATOM     20  C   UNL     1       0.020   1.506  -0.453  0.00  0.00    +0.008 C 
ATOM     21  C   UNL     1      -0.052   0.025  -0.074  0.00  0.00    +0.000 C 
BRANCH  21  22
ATOM     22  C   UNL     1       0.685  -0.199   1.248  0.00  0.00    +0.128 C 
BRANCH  22  23
ATOM     23  C   UNL     1       2.140   0.152   1.077  0.00  0.00    +0.356 C 
ATOM     24  O   UNL     1       2.550   0.545  -0.002  0.00  0.00    -0.246 OA
ATOM     25  O   UNL     1       2.908   0.043   2.018  0.00  0.00    -0.246 OA
ENDBRANCH  22  23
ENDBRANCH  21  22
ENDBRANCH   1  21
BRANCH  16  26
ATOM     26  O   UNL     1      -6.152  -6.561   2.554  0.00  0.00    -0.392 OA
ATOM     27  H   UNL     1      -6.323  -6.666   3.500  0.00  0.00    +0.210 HD
ENDBRANCH  16  26
BRANCH   6  28
ATOM     28  O   UNL     1      -1.994  -1.460   2.632  0.00  0.00    -0.391 OA
ATOM     29  H   UNL     1      -1.890  -1.706   3.561  0.00  0.00    +0.210 HD
ENDBRANCH   6  28
TORSDOF 5
