REMARK  Name = ZINC35069371
REMARK  11 active torsions:
REMARK  status: ('A' for Active; 'I' for Inactive)
REMARK    1  A    between atoms: C_1  and  C_2
REMARK    2  A    between atoms: C_2  and  C_3
REMARK    3  A    between atoms: C_3  and  C_5
REMARK    4  A    between atoms: C_3  and  N_23
REMARK    5  A    between atoms: N_15  and  C_16
REMARK    6  A    between atoms: N_23  and  C_24
REMARK    7  A    between atoms: C_24  and  C_25
REMARK    8  A    between atoms: C_25  and  N_26
REMARK    9  A    between atoms: N_26  and  C_27
REMARK   10  A    between atoms: N_26  and  C_28
REMARK   11  A    between atoms: C_29  and  C_31
REMARK                            x       y       z     vdW  Elec       q    Type
REMARK                         _______ _______ _______ _____ _____    ______ ____
ROOT
ATOM      1  C   UNL     1      -1.312  -2.466   0.128  0.00  0.00    +0.138 A 
ATOM      2  N   UNL     1      -2.085  -3.162  -0.649  0.00  0.00    -0.231 NA
ATOM      3  C   UNL     1      -2.322  -4.478  -0.423  0.00  0.00    +0.078 A 
ATOM      4  C   UNL     1      -3.153  -5.227  -1.259  0.00  0.00    +0.028 A 
ATOM      5  C   UNL     1      -3.366  -6.560  -0.992  0.00  0.00    +0.002 A 
ATOM      6  C   UNL     1      -2.765  -7.172   0.101  0.00  0.00    +0.001 A 
ATOM      7  C   UNL     1      -1.941  -6.455   0.940  0.00  0.00    +0.015 A 
ATOM      8  C   UNL     1      -1.712  -5.104   0.687  0.00  0.00    +0.065 A 
ATOM      9  C   UNL     1      -0.842  -4.289   1.547  0.00  0.00    +0.266 A 
ATOM     10  O   UNL     1      -0.286  -4.767   2.519  0.00  0.00    -0.267 OA
ATOM     11  N   UNL     1      -0.679  -2.987   1.214  0.00  0.00    -0.263 N 
ENDROOT
BRANCH  11  12
ATOM     12  C   UNL     1       0.143  -2.167   1.998  0.00  0.00    +0.051 A 
ATOM     13  C   UNL     1      -0.391  -1.060   2.644  0.00  0.00    +0.027 A 
ATOM     14  C   UNL     1       0.421  -0.254   3.416  0.00  0.00    +0.017 A 
ATOM     15  C   UNL     1       1.767  -0.548   3.547  0.00  0.00    +0.018 A 
ATOM     16  C   UNL     1       2.302  -1.650   2.904  0.00  0.00    +0.017 A 
ATOM     17  C   UNL     1       1.492  -2.464   2.136  0.00  0.00    +0.027 A 
ATOM     18 BR   UNL     1       2.877   0.559   4.604  0.00  0.00    -0.050 Br
ENDBRANCH  11  12
BRANCH   1  19
ATOM     19  C   UNL     1      -1.099  -1.009  -0.193  0.00  0.00    +0.143 C 
BRANCH  19  20
ATOM     20  N   UNL     1      -1.798  -0.676  -1.436  0.00  0.00    -0.287 N 
ATOM     21  C   UNL     1      -1.436  -1.266  -2.592  0.00  0.00    +0.282 C 
ATOM     22  O   UNL     1      -1.933  -0.904  -3.642  0.00  0.00    -0.267 OA
BRANCH  21  23
ATOM     23  C   UNL     1      -0.442  -2.345  -2.585  0.00  0.00    +0.189 A 
ATOM     24  C   UNL     1       0.114  -2.931  -3.686  0.00  0.00    +0.054 A 
ATOM     25  C   UNL     1       1.006  -3.907  -3.216  0.00  0.00    +0.042 A 
ATOM     26  C   UNL     1       0.957  -3.874  -1.865  0.00  0.00    +0.196 A 
ATOM     27  O   UNL     1       0.087  -2.928  -1.489  0.00  0.00    -0.458 OA
ENDBRANCH  21  23
BRANCH  20  28
ATOM     28  C   UNL     1      -2.892   0.299  -1.423  0.00  0.00    +0.090 C 
BRANCH  28  29
ATOM     29  C   UNL     1      -2.328   1.701  -1.665  0.00  0.00    -0.060 C 
BRANCH  29  30
ATOM     30  N   UNL     1      -3.425   2.678  -1.651  0.00  0.00    +0.377 N 
ATOM     31  C   UNL     1      -2.872   4.035  -1.763  0.00  0.00    -0.097 C 
ATOM     32  C   UNL     1      -4.324   2.421  -2.783  0.00  0.00    -0.097 C 
ATOM     33  H   UNL     1      -3.939   2.595  -0.787  0.00  0.00    -0.083 HD
ENDBRANCH  29  30
ENDBRANCH  28  29
ENDBRANCH  20  28
ENDBRANCH  19  20
BRANCH  19  35
ATOM     34  C   UNL     1       0.630   0.769  -0.495  0.00  0.00    +0.006 C 
ATOM     35  C   UNL     1       0.398  -0.737  -0.361  0.00  0.00    +0.027 C 
ENDBRANCH  19  35
ENDBRANCH   1  19
TORSDOF 8
