REMARK  Name = ZINC35894666
REMARK  5 active torsions:
REMARK  status: ('A' for Active; 'I' for Inactive)
REMARK    1  A    between atoms: C_6  and  C_7
REMARK    2  A    between atoms: C_7  and  N_8
REMARK    3  A    between atoms: C_9  and  C_11
REMARK    4  A    between atoms: C_16  and  N_34
REMARK    5  A    between atoms: N_24  and  C_27
REMARK                            x       y       z     vdW  Elec       q    Type
REMARK                         _______ _______ _______ _____ _____    ______ ____
ROOT
ATOM      1  C   UNL     1      -3.314  -1.914  -3.025  0.00  0.00    +0.101 C 
ATOM      2  C   UNL     1      -2.235  -2.714  -3.752  0.00  0.00    +0.051 C 
ATOM      3  C   UNL     1      -2.727  -3.041  -5.139  0.00  0.00    -0.023 A 
ATOM      4  C   UNL     1      -1.816  -3.197  -6.167  0.00  0.00    +0.038 A 
ATOM      5  C   UNL     1      -2.258  -3.487  -7.444  0.00  0.00    +0.127 A 
ATOM      6  C   UNL     1      -3.611  -3.620  -7.696  0.00  0.00    +0.034 A 
ATOM      7  C   UNL     1      -4.524  -3.469  -6.672  0.00  0.00    +0.025 A 
ATOM      8  C   UNL     1      -4.081  -3.183  -5.383  0.00  0.00    +0.033 A 
ATOM      9  N   UNL     1      -5.033  -3.062  -4.356  0.00  0.00    -0.323 N 
ATOM     10  C   UNL     1      -4.627  -2.704  -3.009  0.00  0.00    +0.103 C 
ATOM     11  C   UNL     1      -5.668  -1.886  -2.263  0.00  0.00    +0.128 C 
ATOM     12  N   UNL     1      -7.028  -2.226  -2.633  0.00  0.00    -0.327 N 
ATOM     13  C   UNL     1      -7.422  -2.491  -4.006  0.00  0.00    +0.124 C 
ATOM     14  C   UNL     1      -6.417  -3.371  -4.712  0.00  0.00    +0.124 C 
ENDROOT
BRANCH  12  15
ATOM     15  C   UNL     1      -7.998  -2.304  -1.629  0.00  0.00    +0.030 A 
ATOM     16  C   UNL     1      -7.632  -2.168  -0.296  0.00  0.00    +0.026 A 
ATOM     17  C   UNL     1      -8.591  -2.244   0.694  0.00  0.00    +0.040 A 
ATOM     18  C   UNL     1      -9.918  -2.456   0.359  0.00  0.00    +0.124 A 
ATOM     19  C   UNL     1     -10.286  -2.592  -0.969  0.00  0.00    +0.040 A 
ATOM     20  C   UNL     1      -9.330  -2.511  -1.963  0.00  0.00    +0.026 A 
ATOM     21  F   UNL     1     -10.855  -2.531   1.329  0.00  0.00    -0.205 F 
ENDBRANCH  12  15
BRANCH   1  23
ATOM     22  N   UNL     1      -1.737  -0.961  -1.375  0.00  0.00    -0.311 N 
ATOM     23  C   UNL     1      -2.872  -1.649  -1.609  0.00  0.00    +0.219 C 
ATOM     24  O   UNL     1      -3.538  -2.055  -0.680  0.00  0.00    -0.275 OA
ATOM     25  H   UNL     1      -1.205  -0.636  -2.118  0.00  0.00    +0.149 HD
BRANCH  22  26
ATOM     26  C   UNL     1      -1.308  -0.703   0.002  0.00  0.00    +0.139 C 
BRANCH  26  32
ATOM     27  C   UNL     1      -0.050   1.461  -0.016  0.00  0.00    +0.008 A 
ATOM     28  C   UNL     1       1.131   2.179  -0.029  0.00  0.00    +0.038 A 
ATOM     29  C   UNL     1       2.345   1.513  -0.038  0.00  0.00    +0.123 A 
ATOM     30  C   UNL     1       2.374   0.129  -0.034  0.00  0.00    +0.038 A 
ATOM     31  C   UNL     1       1.192  -0.587  -0.021  0.00  0.00    +0.008 A 
ATOM     32  C   UNL     1      -0.019   0.079  -0.012  0.00  0.00    -0.030 A 
ATOM     33  F   UNL     1       3.500   2.214  -0.051  0.00  0.00    -0.205 F 
ENDBRANCH  26  32
ENDBRANCH  22  26
ENDBRANCH   1  23
BRANCH   5  34
ATOM     34  N   UNL     1      -1.282  -3.654  -8.544  0.00  0.00    +0.056 N 
ATOM     35  O   UNL     1      -0.099  -3.538  -8.325  0.00  0.00    -0.126 OA
ATOM     36  O   UNL     1      -1.667  -3.908  -9.661  0.00  0.00    -0.126 OA
ENDBRANCH   5  34
TORSDOF 5
