REMARK  Name = ZINC38003153
REMARK  7 active torsions:
REMARK  status: ('A' for Active; 'I' for Inactive)
REMARK    1  A    between atoms: C_1  and  C_2
REMARK    2  A    between atoms: C_2  and  C_4
REMARK    3  A    between atoms: C_2  and  N_10
REMARK    4  A    between atoms: N_10  and  C_11
REMARK    5  A    between atoms: C_15  and  N_17
REMARK    6  A    between atoms: N_17  and  S_18
REMARK    7  A    between atoms: S_18  and  N_21
REMARK                            x       y       z     vdW  Elec       q    Type
REMARK                         _______ _______ _______ _____ _____    ______ ____
ROOT
ATOM      1  C   UNL     1      -2.075  -0.647  -1.187  0.00  0.00    +0.029 A 
ATOM      2  C   UNL     1      -1.470  -0.308  -2.391  0.00  0.00    +0.023 A 
ATOM      3  C   UNL     1      -2.165  -0.442  -3.577  0.00  0.00    +0.004 A 
ATOM      4  C   UNL     1      -3.463  -0.914  -3.571  0.00  0.00    +0.024 A 
ATOM      5  C   UNL     1      -4.075  -1.256  -2.371  0.00  0.00    +0.051 A 
ATOM      6  C   UNL     1      -3.377  -1.128  -1.178  0.00  0.00    +0.047 A 
ENDROOT
BRANCH   1   7
ATOM      7  N   UNL     1      -1.372  -0.511   0.012  0.00  0.00    -0.337 N 
ATOM      8  H   UNL     1      -1.794  -0.752   0.852  0.00  0.00    +0.147 HD
BRANCH   7  10
ATOM      9  C   UNL     1      -0.019   1.526   0.010  0.00  0.00    +0.033 C 
ATOM     10  C   UNL     1       0.002  -0.004   0.002  0.00  0.00    +0.104 C 
BRANCH  10  11
ATOM     11  C   UNL     1       0.731  -0.503   1.223  0.00  0.00    +0.011 A 
ATOM     12  C   UNL     1       2.010  -0.938   1.335  0.00  0.00    +0.014 A 
ATOM     13  C   UNL     1       2.470  -1.355   2.570  0.00  0.00    +0.023 A 
ATOM     14  C   UNL     1       1.629  -1.315   3.633  0.00  0.00    +0.055 A 
ATOM     15  S   UNL     1       0.136  -0.668   2.898  0.00  0.00    -0.085 S 
ATOM     16 BR   UNL     1       1.954  -1.810   5.429  0.00  0.00    -0.043 Br
ENDBRANCH  10  11
ENDBRANCH   7  10
ENDBRANCH   1   7
BRANCH   5  17
ATOM     17  N   UNL     1      -5.387  -1.732  -2.366  0.00  0.00    -0.207 N 
ATOM     18  H   UNL     1      -6.024  -1.393  -1.717  0.00  0.00    +0.175 HD
BRANCH  17  19
ATOM     19  S   UNL     1      -5.857  -2.876  -3.467  0.00  0.00    +0.107 S 
ATOM     20  O   UNL     1      -7.220  -3.170  -3.191  0.00  0.00    -0.138 OA
ATOM     21  O   UNL     1      -5.419  -2.420  -4.739  0.00  0.00    -0.138 OA
BRANCH  19  22
ATOM     22  N   UNL     1      -5.000  -4.254  -3.138  0.00  0.00    -0.191 NA
ATOM     23  H   UNL     1      -5.386  -5.123  -3.331  0.00  0.00    +0.146 HD
ATOM     24  H   UNL     1      -4.113  -4.193  -2.751  0.00  0.00    +0.146 HD
ENDBRANCH  19  22
ENDBRANCH  17  19
ENDBRANCH   5  17
TORSDOF 6
