REMARK  Name = ZINC06245139
REMARK  13 active torsions:
REMARK  status: ('A' for Active; 'I' for Inactive)
REMARK    1  A    between atoms: C_1  and  C_2
REMARK    2  A    between atoms: C_5  and  N_8
REMARK    3  A    between atoms: N_8  and  C_9
REMARK    4  A    between atoms: C_9  and  C_11
REMARK    5  A    between atoms: C_9  and  C_17
REMARK    6  A    between atoms: N_19  and  C_20
REMARK    7  A    between atoms: C_20  and  C_21
REMARK    8  A    between atoms: C_21  and  C_22
REMARK    9  A    between atoms: C_22  and  C_23
REMARK   10  A    between atoms: C_22  and  C_24
REMARK   11  A    between atoms: C_25  and  C_27
REMARK   12  A    between atoms: C_27  and  N_28
REMARK   13  A    between atoms: C_30  and  C_33
REMARK                            x       y       z     vdW  Elec       q    Type
REMARK                         _______ _______ _______ _____ _____    ______ ____
ROOT
ATOM      1  N   UNL     1       1.317   1.846   0.474  0.00  0.00    -0.254 N 
ATOM      2  C   UNL     1       0.357   1.024   0.942  0.00  0.00    +0.244 C 
ATOM      3  O   UNL     1       0.403  -0.164   0.698  0.00  0.00    -0.273 OA
ENDROOT
BRANCH   1   8
ATOM      4  C   UNL     1       0.903   7.445   1.290  0.00  0.00    +0.044 C 
ATOM      5  C   UNL     1       1.012   5.957   1.074  0.00  0.00    -0.050 A 
ATOM      6  C   UNL     1       0.146   5.321   0.203  0.00  0.00    +0.005 A 
ATOM      7  C   UNL     1       0.245   3.958   0.002  0.00  0.00    +0.024 A 
ATOM      8  C   UNL     1       1.214   3.227   0.676  0.00  0.00    +0.038 A 
ATOM      9  C   UNL     1       2.078   3.868   1.554  0.00  0.00    +0.024 A 
ATOM     10  C   UNL     1       1.979   5.232   1.746  0.00  0.00    +0.005 A 
ENDBRANCH   1   8
BRANCH   1  11
ATOM     11  C   UNL     1       2.467   1.294  -0.246  0.00  0.00    +0.197 C 
BRANCH  11  12
ATOM     12  C   UNL     1       3.466   2.391  -0.513  0.00  0.00    -0.015 A 
ATOM     13  C   UNL     1       3.094   3.537  -1.199  0.00  0.00    +0.025 A 
ATOM     14  C   UNL     1       4.037   4.523  -1.422  0.00  0.00    +0.111 A 
ATOM     15  N   UNL     1       5.277   4.379  -0.999  0.00  0.00    -0.263 NA
ATOM     16  C   UNL     1       5.666   3.301  -0.347  0.00  0.00    +0.111 A 
ATOM     17  C   UNL     1       4.779   2.275  -0.084  0.00  0.00    +0.025 A 
ENDBRANCH  11  12
BRANCH  11  18
ATOM     18  C   UNL     1       2.005   0.706  -1.554  0.00  0.00    +0.238 C 
ATOM     19  O   UNL     1       0.831   0.743  -1.856  0.00  0.00    -0.273 OA
ATOM     20  N   UNL     1       2.897   0.137  -2.390  0.00  0.00    -0.313 N 
ATOM     21  H   UNL     1       3.836   0.107  -2.149  0.00  0.00    +0.149 HD
BRANCH  20  22
ATOM     22  C   UNL     1       2.449  -0.435  -3.662  0.00  0.00    +0.104 C 
BRANCH  22  23
ATOM     23  C   UNL     1       3.650  -1.011  -4.413  0.00  0.00    +0.022 C 
BRANCH  23  24
ATOM     24  C   UNL     1       3.181  -1.609  -5.742  0.00  0.00    -0.016 C 
ATOM     25  C   UNL     1       4.395  -2.073  -6.549  0.00  0.00    +0.007 C 
ATOM     26  C   UNL     1       2.264  -2.803  -5.468  0.00  0.00    +0.007 C 
ENDBRANCH  23  24
ENDBRANCH  22  23
ENDBRANCH  20  22
ENDBRANCH  11  18
ENDBRANCH   1  11
BRANCH   2  27
ATOM     27  C   UNL     1      -0.777   1.580   1.764  0.00  0.00    +0.264 C 
BRANCH  27  28
ATOM     28  N   UNL     1      -1.611   0.479   2.254  0.00  0.00    -0.154 N 
ATOM     29  N   UNL     1      -2.633  -0.012   1.641  0.00  0.00    -0.130 NA
ATOM     30  C   UNL     1      -3.121  -0.983   2.386  0.00  0.00    +0.205 A 
ATOM     31  N   UNL     1      -2.352  -1.051   3.482  0.00  0.00    -0.108 NA
ATOM     32  N   UNL     1      -1.441  -0.145   3.367  0.00  0.00    -0.045 NA
BRANCH  30  33
ATOM     33  C   UNL     1      -4.298  -1.833   2.075  0.00  0.00    +0.023 A 
ATOM     34  C   UNL     1      -5.006  -1.639   0.891  0.00  0.00    +0.014 A 
ATOM     35  C   UNL     1      -6.096  -2.435   0.603  0.00  0.00    +0.039 A 
ATOM     36  C   UNL     1      -6.493  -3.418   1.495  0.00  0.00    +0.123 A 
ATOM     37  C   UNL     1      -5.794  -3.612   2.675  0.00  0.00    +0.039 A 
ATOM     38  C   UNL     1      -4.700  -2.824   2.968  0.00  0.00    +0.014 A 
ATOM     39  F   UNL     1      -7.564  -4.192   1.212  0.00  0.00    -0.205 F 
ENDBRANCH  30  33
ENDBRANCH  27  28
ENDBRANCH   2  27
TORSDOF 10
