REMARK  Name = ZINC00919616
REMARK  7 active torsions:
REMARK  status: ('A' for Active; 'I' for Inactive)
REMARK    1  A    between atoms: C_1  and  C_2
REMARK    2  A    between atoms: C_3  and  N_15
REMARK    3  A    between atoms: N_6  and  C_9
REMARK    4  A    between atoms: N_7  and  C_8
REMARK    5  A    between atoms: C_16  and  C_18
REMARK    6  A    between atoms: C_23  and  C_34
REMARK    7  A    between atoms: C_26  and  C_29
REMARK                            x       y       z     vdW  Elec       q    Type
REMARK                         _______ _______ _______ _____ _____    ______ ____
ROOT
ATOM      1  C   UNL     1       0.588  -0.314  -4.858  0.00  0.00    +0.149 A 
ATOM      2  C   UNL     1       1.088  -0.913  -6.037  0.00  0.00    +0.078 A 
ATOM      3  C   UNL     1       0.844  -0.068  -7.057  0.00  0.00    +0.119 A 
ATOM      4  N   UNL     1       0.208   1.033  -6.556  0.00  0.00    -0.238 N 
ATOM      5  N   UNL     1       0.058   0.852  -5.182  0.00  0.00    -0.164 NA
ATOM      6  C   UNL     1      -0.222   2.168  -7.377  0.00  0.00    +0.215 C 
ATOM      7  C   UNL     1      -0.293   1.722  -8.842  0.00  0.00    +0.066 C 
ATOM      8  C   UNL     1       1.008   1.015  -9.236  0.00  0.00    +0.140 C 
ATOM      9  N   UNL     1       1.147  -0.204  -8.415  0.00  0.00    -0.319 N 
ATOM     10  H   UNL     1       1.433  -1.050  -8.795  0.00  0.00    +0.148 HD
ENDROOT
BRANCH   8  11
ATOM     11  C   UNL     1       0.960   0.643 -10.696  0.00  0.00    +0.125 A 
ATOM     12  C   UNL     1       1.550   1.318 -11.699  0.00  0.00    +0.046 A 
ATOM     13  C   UNL     1       1.249   0.623 -12.893  0.00  0.00    +0.041 A 
ATOM     14  C   UNL     1       0.492  -0.434 -12.548  0.00  0.00    +0.195 A 
ATOM     15  O   UNL     1       0.326  -0.420 -11.215  0.00  0.00    -0.466 OA
ENDBRANCH   8  11
BRANCH   1  17
ATOM     16  N   UNL     1       0.122  -0.219  -2.457  0.00  0.00    -0.274 N 
ATOM     17  C   UNL     1       0.644  -0.895  -3.501  0.00  0.00    +0.269 C 
ATOM     18  O   UNL     1       1.160  -1.982  -3.325  0.00  0.00    -0.268 OA
ATOM     19  H   UNL     1      -0.225   0.677  -2.585  0.00  0.00    +0.155 HD
BRANCH  16  22
ATOM     20  C   UNL     1      -2.433  -0.670  -0.820  0.00  0.00    +0.067 C 
ATOM     21  C   UNL     1      -1.022  -1.031  -0.432  0.00  0.00    +0.059 A 
ATOM     22  C   UNL     1       0.082  -0.816  -1.182  0.00  0.00    +0.122 A 
ATOM     23  C   UNL     1       1.227  -1.318  -0.421  0.00  0.00    +0.293 A 
ATOM     24  O   UNL     1       2.393  -1.300  -0.771  0.00  0.00    -0.264 OA
ATOM     25  N   UNL     1       0.744  -1.806   0.740  0.00  0.00    -0.216 N 
ATOM     26  N   UNL     1      -0.644  -1.627   0.742  0.00  0.00    -0.282 N 
ATOM     27  C   UNL     1      -1.549  -2.016   1.827  0.00  0.00    +0.171 C 
BRANCH  25  28
ATOM     28  C   UNL     1       1.499  -2.385   1.765  0.00  0.00    +0.067 A 
ATOM     29  C   UNL     1       1.101  -3.591   2.326  0.00  0.00    +0.028 A 
ATOM     30  C   UNL     1       1.848  -4.160   3.338  0.00  0.00    +0.002 A 
ATOM     31  C   UNL     1       2.992  -3.530   3.793  0.00  0.00    +0.000 A 
ATOM     32  C   UNL     1       3.391  -2.329   3.236  0.00  0.00    +0.002 A 
ATOM     33  C   UNL     1       2.651  -1.758   2.220  0.00  0.00    +0.028 A 
ENDBRANCH  25  28
ENDBRANCH  16  22
ENDBRANCH   1  17
BRANCH   6  34
ATOM     34  C   UNL     1      -1.601   2.642  -6.915  0.00  0.00    +0.412 C 
ATOM     35  F   UNL     1      -1.534   3.036  -5.574  0.00  0.00    -0.168 F 
ATOM     36  F   UNL     1      -2.009   3.725  -7.700  0.00  0.00    -0.168 F 
ATOM     37  F   UNL     1      -2.522   1.597  -7.048  0.00  0.00    -0.168 F 
ENDBRANCH   6  34
TORSDOF 5
