REMARK  Name = ZINC15967472
REMARK  7 active torsions:
REMARK  status: ('A' for Active; 'I' for Inactive)
REMARK    1  A    between atoms: C_1  and  C_2
REMARK    2  A    between atoms: C_7  and  C_8
REMARK    3  A    between atoms: C_17  and  C_20
REMARK    4  A    between atoms: C_20  and  C_21
REMARK    5  A    between atoms: C_21  and  C_22
REMARK    6  A    between atoms: N_27  and  C_30
REMARK    7  A    between atoms: C_30  and  C_31
REMARK                            x       y       z     vdW  Elec       q    Type
REMARK                         _______ _______ _______ _____ _____    ______ ____
ROOT
ATOM      1  C   UNL     1      -0.018   1.503   0.010  0.00  0.00    +0.044 C 
ATOM      2  C   UNL     1       0.002  -0.004   0.002  0.00  0.00    -0.046 A 
ATOM      3  C   UNL     1       0.006  -0.685  -1.202  0.00  0.00    +0.004 A 
ATOM      4  C   UNL     1       0.024  -2.069  -1.209  0.00  0.00    +0.008 A 
ATOM      5  C   UNL     1       0.039  -2.765  -0.021  0.00  0.00    +0.004 A 
ATOM      6  C   UNL     1       0.035  -2.090   1.196  0.00  0.00    +0.042 A 
ATOM      7  C   UNL     1       0.023  -0.697   1.195  0.00  0.00    -0.026 A 
ATOM      8  C   UNL     1       0.026   0.056   2.500  0.00  0.00    +0.046 C 
ATOM      9  N   UNL     1       0.051  -3.001   2.254  0.00  0.00    -0.283 N 
ATOM     10  C   UNL     1       0.063  -4.278   1.824  0.00  0.00    +0.243 C 
ATOM     11  O   UNL     1       0.076  -5.275   2.515  0.00  0.00    -0.273 OA
ATOM     12  C   UNL     1       0.058  -4.228   0.321  0.00  0.00    +0.136 C 
ATOM     13  C   UNL     1      -1.159  -4.956  -0.261  0.00  0.00    +0.122 C 
ATOM     14  C   UNL     1      -0.621  -6.359  -0.659  0.00  0.00    +0.107 C 
ATOM     15  C   UNL     1       0.866  -6.346  -0.245  0.00  0.00    +0.068 C 
ATOM     16  N   UNL     1       1.242  -4.900  -0.245  0.00  0.00    -0.295 NA
ATOM     17  C   UNL     1      -0.735  -6.363  -2.166  0.00  0.00    +0.227 C 
ATOM     18  O   UNL     1      -0.410  -7.279  -2.891  0.00  0.00    -0.275 OA
ATOM     19  N   UNL     1      -1.252  -5.199  -2.576  0.00  0.00    -0.237 N 
ATOM     20  C   UNL     1      -1.542  -4.327  -1.582  0.00  0.00    +0.229 C 
ATOM     21  O   UNL     1      -2.024  -3.223  -1.718  0.00  0.00    -0.275 OA
ATOM     22  H   UNL     1       0.053  -2.745   3.189  0.00  0.00    +0.155 HD
ATOM     23  H   UNL     1       1.436  -4.567  -1.177  0.00  0.00    +0.123 HD
ENDROOT
BRANCH  15  24
ATOM     24  C   UNL     1       1.711  -7.102  -1.272  0.00  0.00    +0.031 C 
BRANCH  24  25
ATOM     25  C   UNL     1       3.158  -7.184  -0.781  0.00  0.00    +0.126 C 
BRANCH  25  26
ATOM     26  C   UNL     1       3.990  -7.929  -1.792  0.00  0.00    +0.356 C 
ATOM     27  O   UNL     1       3.474  -8.356  -2.811  0.00  0.00    -0.246 OA
ATOM     28  O   UNL     1       5.180  -8.106  -1.591  0.00  0.00    -0.246 OA
ENDBRANCH  25  26
ENDBRANCH  24  25
ENDBRANCH  15  24
BRANCH  19  29
ATOM     29  C   UNL     1      -1.492  -4.892  -3.988  0.00  0.00    +0.151 C 
BRANCH  29  30
ATOM     30  C   UNL     1      -2.883  -5.330  -4.367  0.00  0.00    -0.026 A 
ATOM     31  C   UNL     1      -3.098  -6.610  -4.842  0.00  0.00    +0.009 A 
ATOM     32  C   UNL     1      -4.372  -7.017  -5.191  0.00  0.00    +0.050 A 
ATOM     33  C   UNL     1      -5.438  -6.141  -5.066  0.00  0.00    +0.166 A 
ATOM     34  C   UNL     1      -5.222  -4.851  -4.588  0.00  0.00    +0.167 A 
ATOM     35  C   UNL     1      -3.943  -4.452  -4.235  0.00  0.00    +0.054 A 
ATOM     36  O   UNL     1      -6.416  -4.190  -4.559  0.00  0.00    -0.453 OA
ATOM     37  C   UNL     1      -7.297  -4.952  -5.406  0.00  0.00    +0.466 C 
ATOM     38  O   UNL     1      -6.768  -6.289  -5.336  0.00  0.00    -0.453 OA
ENDBRANCH  29  30
ENDBRANCH  19  29
TORSDOF 5
