REMARK  Name = ZINC13214056
REMARK  6 active torsions:
REMARK  status: ('A' for Active; 'I' for Inactive)
REMARK    1  A    between atoms: C_4  and  C_7
REMARK    2  A    between atoms: C_10  and  C_13
REMARK    3  A    between atoms: C_15  and  C_30
REMARK    4  A    between atoms: N_19  and  C_20
REMARK    5  A    between atoms: C_24  and  C_26
REMARK    6  A    between atoms: C_30  and  C_32
REMARK                            x       y       z     vdW  Elec       q    Type
REMARK                         _______ _______ _______ _____ _____    ______ ____
ROOT
ATOM      1  C   UNL     1       7.211  -2.762  -0.022  0.00  0.00    +0.150 C 
ATOM      2  C   UNL     1       7.795  -3.178   1.308  0.00  0.00    +0.080 C 
ATOM      3  C   UNL     1       8.042  -4.505   1.228  0.00  0.00    +0.250 C 
ATOM      4  C   UNL     1       7.646  -4.993  -0.108  0.00  0.00    +0.292 C 
ATOM      5  O   UNL     1       7.744  -6.144  -0.487  0.00  0.00    -0.266 OA
ATOM      6  N   UNL     1       7.159  -3.976  -0.844  0.00  0.00    -0.253 N 
ATOM      7  O   UNL     1       8.571  -5.266   2.215  0.00  0.00    -0.282 OA
ENDROOT
BRANCH   1  11
ATOM      8  C   UNL     1       3.274  -1.187   0.527  0.00  0.00    -0.018 A 
ATOM      9  C   UNL     1       4.328  -0.336   0.201  0.00  0.00    +0.009 A 
ATOM     10  C   UNL     1       5.597  -0.850   0.025  0.00  0.00    +0.006 A 
ATOM     11  C   UNL     1       5.823  -2.207   0.172  0.00  0.00    -0.022 A 
ATOM     12  C   UNL     1       4.781  -3.056   0.495  0.00  0.00    +0.006 A 
ATOM     13  C   UNL     1       3.509  -2.552   0.679  0.00  0.00    +0.009 A 
BRANCH   8  17
ATOM     14  C   UNL     1      -0.642   0.379   1.073  0.00  0.00    +0.000 A 
ATOM     15  C   UNL     1       0.400   1.227   0.744  0.00  0.00    +0.001 A 
ATOM     16  C   UNL     1       1.673   0.724   0.565  0.00  0.00    +0.008 A 
ATOM     17  C   UNL     1       1.908  -0.641   0.718  0.00  0.00    -0.018 A 
ATOM     18  C   UNL     1       0.855  -1.491   1.049  0.00  0.00    +0.008 A 
ATOM     19  C   UNL     1      -0.414  -0.977   1.225  0.00  0.00    +0.001 A 
ENDBRANCH   8  17
ENDBRANCH   1  11
BRANCH   6  20
ATOM     20  C   UNL     1       6.687  -4.062  -2.157  0.00  0.00    +0.038 A 
ATOM     21  C   UNL     1       6.214  -2.923  -2.801  0.00  0.00    +0.023 A 
ATOM     22  C   UNL     1       5.746  -3.002  -4.100  0.00  0.00    +0.003 A 
ATOM     23  C   UNL     1       5.744  -4.210  -4.766  0.00  0.00    +0.015 A 
ATOM     24  C   UNL     1       6.217  -5.360  -4.129  0.00  0.00    +0.065 A 
ATOM     25  C   UNL     1       6.695  -5.279  -2.819  0.00  0.00    +0.038 A 
BRANCH  24  26
ATOM     26  C   UNL     1       6.217  -6.654  -4.838  0.00  0.00    +0.387 C 
ATOM     27  O   UNL     1       5.802  -6.721  -5.987  0.00  0.00    -0.241 OA
ATOM     28  O   UNL     1       6.631  -7.659  -4.278  0.00  0.00    -0.241 OA
ENDBRANCH  24  26
ENDBRANCH   6  20
BRANCH   2  29
ATOM     29  C   UNL     1       8.045  -2.309   2.464  0.00  0.00    +0.230 C 
ATOM     30  O   UNL     1       7.436  -2.488   3.504  0.00  0.00    -0.283 OA
BRANCH  29  31
ATOM     31  C   UNL     1       9.029  -1.226   2.368  0.00  0.00    +0.175 A 
ATOM     32  C   UNL     1       9.421  -0.393   3.393  0.00  0.00    +0.053 A 
ATOM     33  C   UNL     1      10.372   0.485   2.852  0.00  0.00    +0.042 A 
ATOM     34  C   UNL     1      10.520   0.160   1.547  0.00  0.00    +0.196 A 
ATOM     35  O   UNL     1       9.715  -0.872   1.261  0.00  0.00    -0.460 OA
ENDBRANCH  29  31
ENDBRANCH   2  29
TORSDOF 6
