REMARK  Name = ZINC12203538
REMARK  8 active torsions:
REMARK  status: ('A' for Active; 'I' for Inactive)
REMARK    1  A    between atoms: C_1  and  C_2
REMARK    2  A    between atoms: N_4  and  C_5
REMARK    3  A    between atoms: C_5  and  C_6
REMARK    4  A    between atoms: C_6  and  C_7
REMARK    5  A    between atoms: C_13  and  C_15
REMARK    6  A    between atoms: C_15  and  C_16
REMARK    7  A    between atoms: C_23  and  C_24
REMARK    8  A    between atoms: C_23  and  N_67
REMARK                            x       y       z     vdW  Elec       q    Type
REMARK                         _______ _______ _______ _____ _____    ______ ____
ROOT
ATOM      1  C   UNL     1      -0.497  -2.848   7.146  0.00  0.00    +0.028 C 
ATOM      2  C   UNL     1      -1.892  -2.291   7.193  0.00  0.00    +0.200 C 
ATOM      3  O   UNL     1      -2.602  -2.418   6.218  0.00  0.00    -0.278 OA
ATOM      4  N   UNL     1      -2.384  -1.663   8.266  0.00  0.00    -0.318 N 
ATOM      5  C   UNL     1      -1.601  -1.427   9.476  0.00  0.00    +0.085 C 
ATOM      6  C   UNL     1      -0.386  -2.356   9.504  0.00  0.00    -0.058 C 
ATOM      7  H   UNL     1      -3.301  -1.349   8.239  0.00  0.00    +0.149 HD
ATOM      8  N   UNL     1       0.316  -2.231   8.211  0.00  0.00    +0.391 N 
ATOM      9  H   UNL     1       0.450  -1.236   7.997  0.00  0.00    -0.080 HD
ENDROOT
BRANCH   1  10
ATOM     10  C   UNL     1       0.132  -2.524   5.789  0.00  0.00    +0.090 C 
BRANCH  10  17
ATOM     11  C   UNL     1       1.155   0.521   1.942  0.00  0.00    -0.007 C 
ATOM     12  C   UNL     1       0.873  -0.967   2.163  0.00  0.00    +0.022 C 
ATOM     13  C   UNL     1       1.438  -1.393   3.522  0.00  0.00    +0.108 C 
ATOM     14  N   UNL     1       0.884  -0.513   4.561  0.00  0.00    -0.301 N 
ATOM     15  C   UNL     1       1.020   0.941   4.401  0.00  0.00    +0.108 C 
ATOM     16  C   UNL     1       0.460   1.341   3.032  0.00  0.00    +0.022 C 
ATOM     17  C   UNL     1       0.264  -1.031   5.639  0.00  0.00    +0.214 C 
ATOM     18  O   UNL     1      -0.190  -0.294   6.490  0.00  0.00    -0.276 OA
BRANCH  11  19
ATOM     19  C   UNL     1       0.623   0.942   0.571  0.00  0.00    +0.022 C 
BRANCH  19  20
ATOM     20  C   UNL     1       1.404   0.214  -0.525  0.00  0.00    +0.104 C 
BRANCH  20  24
ATOM     21  C   UNL     1       0.912   0.515  -4.309  0.00  0.00    +0.109 C 
ATOM     22  C   UNL     1       1.436   0.100  -2.959  0.00  0.00    +0.210 C 
ATOM     23  O   UNL     1       2.345  -0.700  -2.880  0.00  0.00    -0.276 OA
ATOM     24  N   UNL     1       0.895   0.617  -1.838  0.00  0.00    -0.316 N 
ATOM     25  H   UNL     1       0.168   1.257  -1.901  0.00  0.00    +0.149 HD
ENDBRANCH  20  24
ENDBRANCH  19  20
ENDBRANCH  11  19
ENDBRANCH  10  17
ENDBRANCH   1  10
BRANCH   8  26
ATOM     26  C   UNL     1       1.639  -2.891   8.284  0.00  0.00    -0.041 C 
BRANCH  26  27
ATOM     27  C   UNL     1       2.493  -2.166   9.293  0.00  0.00    -0.056 A 
ATOM     28  C   UNL     1       3.308  -1.151   8.897  0.00  0.00    +0.002 A 
ATOM     29  C   UNL     1       4.104  -0.469   9.815  0.00  0.00    +0.001 A 
ATOM     30  C   UNL     1       4.089  -0.799  11.136  0.00  0.00    +0.008 A 
ATOM     31  C   UNL     1       3.260  -1.842  11.583  0.00  0.00    -0.018 A 
ATOM     32  C   UNL     1       2.446  -2.531  10.649  0.00  0.00    -0.017 A 
ATOM     33  C   UNL     1       1.621  -3.578  11.096  0.00  0.00    +0.009 A 
ATOM     34  C   UNL     1       1.607  -3.908  12.416  0.00  0.00    +0.001 A 
ATOM     35  C   UNL     1       2.403  -3.226  13.335  0.00  0.00    +0.001 A 
ATOM     36  C   UNL     1       3.218  -2.211  12.938  0.00  0.00    +0.008 A 
ENDBRANCH  26  27
ENDBRANCH   8  26
TORSDOF 7
