REMARK  Name = ZINC02139105
REMARK  13 active torsions:
REMARK  status: ('A' for Active; 'I' for Inactive)
REMARK    1  A    between atoms: C_1  and  C_2
REMARK    2  A    between atoms: C_3  and  C_34
REMARK    3  A    between atoms: C_9  and  C_33
REMARK    4  A    between atoms: C_22  and  C_32
REMARK    5  A    between atoms: C_25  and  O_28
REMARK    6  A    between atoms: O_28  and  C_29
REMARK    7  A    between atoms: C_29  and  C_31
REMARK    8  A    between atoms: C_34  and  C_35
REMARK    9  A    between atoms: C_35  and  C_36
REMARK   10  A    between atoms: C_36  and  C_38
REMARK   11  A    between atoms: C_36  and  C_39
REMARK   12  A    between atoms: C_39  and  N_40
REMARK   13  A    between atoms: C_41  and  C_43
REMARK                            x       y       z     vdW  Elec       q    Type
REMARK                         _______ _______ _______ _____ _____    ______ ____
ROOT
ATOM      1  C   UNL     1       0.493   0.667  -6.746  0.00  0.00    +0.043 C 
ATOM      2  C   UNL     1       0.754  -0.782  -6.410  0.00  0.00    -0.028 C 
ATOM      3  C   UNL     1      -0.203  -1.667  -6.208  0.00  0.00    +0.098 C 
ATOM      4  O   UNL     1       0.243  -2.913  -5.967  0.00  0.00    -0.493 OA
ATOM      5  C   UNL     1       1.672  -2.970  -6.082  0.00  0.00    +0.181 C 
ATOM      6  C   UNL     1       2.078  -1.488  -6.312  0.00  0.00    +0.065 C 
ATOM      7  C   UNL     1       2.962  -1.098  -5.137  0.00  0.00    -0.019 C 
ATOM      8  C   UNL     1       2.881   0.332  -4.678  0.00  0.00    +0.008 C 
ATOM      9  C   UNL     1       1.863   0.603  -3.580  0.00  0.00    +0.005 C 
ATOM     10  C   UNL     1       2.135  -0.356  -2.418  0.00  0.00    +0.003 C 
ATOM     11  C   UNL     1       1.858  -1.776  -2.914  0.00  0.00    +0.000 C 
ATOM     12  C   UNL     1       2.814  -2.151  -4.038  0.00  0.00    +0.003 C 
ATOM     13  C   UNL     1       2.276  -3.413  -4.744  0.00  0.00    +0.049 C 
ATOM     14  C   UNL     1       0.400  -1.867  -3.355  0.00  0.00    +0.031 C 
ATOM     15  C   UNL     1      -0.488  -1.442  -2.217  0.00  0.00    -0.027 C 
ATOM     16  C   UNL     1      -0.101  -0.622  -1.286  0.00  0.00    -0.064 C 
ATOM     17  C   UNL     1       1.270  -0.014  -1.216  0.00  0.00    -0.008 C 
ATOM     18  C   UNL     1       1.144   1.503  -1.064  0.00  0.00    +0.015 C 
ATOM     19  C   UNL     1       0.212   1.859   0.094  0.00  0.00    +0.046 C 
ATOM     20  C   UNL     1      -1.182   1.281  -0.153  0.00  0.00    +0.180 C 
ATOM     21  C   UNL     1      -1.096  -0.248  -0.199  0.00  0.00    +0.075 C 
ATOM     22  C   UNL     1       1.978  -0.565   0.029  0.00  0.00    +0.016 C 
ATOM     23  C   UNL     1       4.428  -1.259  -5.654  0.00  0.00    +0.012 C 
ENDROOT
BRANCH  20  24
ATOM     24  O   UNL     1      -2.073   1.684   0.920  0.00  0.00    -0.461 OA
BRANCH  24  25
ATOM     25  C   UNL     1      -3.372   1.824   0.613  0.00  0.00    +0.304 C 
ATOM     26  O   UNL     1      -3.752   1.617  -0.515  0.00  0.00    -0.251 OA
ATOM     27  C   UNL     1      -4.357   2.240   1.675  0.00  0.00    +0.136 C 
ENDBRANCH  24  25
ENDBRANCH  20  24
BRANCH   3  28
ATOM     28  C   UNL     1      -1.667  -1.308  -6.262  0.00  0.00    +0.074 C 
BRANCH  28  29
ATOM     29  C   UNL     1      -2.209  -1.584  -7.666  0.00  0.00    +0.012 C 
BRANCH  29  30
ATOM     30  C   UNL     1      -3.694  -1.219  -7.721  0.00  0.00    +0.003 C 
ATOM     31  C   UNL     1      -4.481  -2.147  -6.793  0.00  0.00    +0.009 C 
BRANCH  30  32
ATOM     32  C   UNL     1      -4.205  -1.376  -9.154  0.00  0.00    +0.107 C 
BRANCH  32  33
ATOM     33  N   UNL     1      -5.593  -0.914  -9.231  0.00  0.00    -0.315 N 
ATOM     34  C   UNL     1      -6.255  -0.959 -10.404  0.00  0.00    +0.210 C 
ATOM     35  O   UNL     1      -5.701  -1.382 -11.397  0.00  0.00    -0.276 OA
ATOM     36  C   UNL     1      -7.683  -0.483 -10.483  0.00  0.00    +0.109 C 
ATOM     37  H   UNL     1      -6.036  -0.576  -8.437  0.00  0.00    +0.149 HD
ENDBRANCH  32  33
ENDBRANCH  30  32
ENDBRANCH  29  30
ENDBRANCH  28  29
ENDBRANCH   3  28
TORSDOF 7
