REMARK  Name = ZINC32943923
REMARK  6 active torsions:
REMARK  status: ('A' for Active; 'I' for Inactive)
REMARK    1  A    between atoms: C_1  and  C_2
REMARK    2  A    between atoms: C_8  and  S_13
REMARK    3  A    between atoms: S_13  and  N_16
REMARK    4  A    between atoms: N_16  and  C_17
REMARK    5  A    between atoms: C_20  and  C_23
REMARK    6  A    between atoms: C_28  and  C_30
REMARK                            x       y       z     vdW  Elec       q    Type
REMARK                         _______ _______ _______ _____ _____    ______ ____
ROOT
ATOM      1  S   UNL     1      -1.986   2.444  -0.600  0.00  0.00    +0.072 S 
ATOM      2  O   UNL     1      -3.115   1.588  -0.699  0.00  0.00    -0.150 OA
ATOM      3  O   UNL     1      -1.962   3.577   0.258  0.00  0.00    -0.150 OA
ENDROOT
BRANCH   1  10
ATOM      4  C   UNL     1      -1.345   3.693  -8.932  0.00  0.00    +0.021 C 
ATOM      5  C   UNL     1      -1.236   3.209  -7.485  0.00  0.00    +0.066 C 
ATOM      6  C   UNL     1      -2.588   2.645  -7.021  0.00  0.00    +0.128 C 
ATOM      7  N   UNL     1      -2.429   2.089  -5.681  0.00  0.00    -0.269 N 
ATOM      8  C   UNL     1      -1.909   2.819  -4.610  0.00  0.00    +0.052 A 
ATOM      9  C   UNL     1      -2.158   2.359  -3.319  0.00  0.00    +0.053 A 
ATOM     10  C   UNL     1      -1.659   3.038  -2.226  0.00  0.00    +0.110 A 
ATOM     11  C   UNL     1      -0.907   4.185  -2.403  0.00  0.00    +0.030 A 
ATOM     12  C   UNL     1      -0.648   4.649  -3.678  0.00  0.00    +0.018 A 
ATOM     13  C   UNL     1      -1.152   3.974  -4.783  0.00  0.00    +0.030 A 
ATOM     14  S   UNL     1      -0.819   4.604  -6.397  0.00  0.00    -0.119 S 
ATOM     15  C   UNL     1      -2.801   0.811  -5.467  0.00  0.00    +0.217 C 
ATOM     16  O   UNL     1      -2.575   0.284  -4.398  0.00  0.00    -0.276 OA
ATOM     17  C   UNL     1      -3.499   0.037  -6.556  0.00  0.00    +0.109 C 
ENDBRANCH   1  10
BRANCH   1  18
ATOM     18  N   UNL     1      -0.706   1.490  -0.159  0.00  0.00    -0.216 N 
ATOM     19  H   UNL     1      -0.859   0.418   0.031  0.00  0.00    +0.174 HD
BRANCH  18  20
ATOM     20  C   UNL     1       0.566   2.047  -0.030  0.00  0.00    +0.048 A 
ATOM     21  C   UNL     1       1.533   1.800  -0.999  0.00  0.00    +0.025 A 
ATOM     22  C   UNL     1       2.789   2.353  -0.878  0.00  0.00    +0.013 A 
ATOM     23  C   UNL     1       3.094   3.152   0.226  0.00  0.00    +0.020 A 
ATOM     24  C   UNL     1       2.123   3.393   1.200  0.00  0.00    +0.013 A 
ATOM     25  C   UNL     1       0.867   2.842   1.070  0.00  0.00    +0.025 A 
BRANCH  23  26
ATOM     26  C   UNL     1       4.442   3.741   0.363  0.00  0.00    +0.167 A 
ATOM     27  C   UNL     1       5.496   3.594  -0.499  0.00  0.00    +0.072 A 
ATOM     28  C   UNL     1       6.525   4.352   0.093  0.00  0.00    +0.157 A 
ATOM     29  N   UNL     1       6.035   4.852   1.192  0.00  0.00    -0.086 NA
ATOM     30  O   UNL     1       4.883   4.526   1.362  0.00  0.00    -0.355 OA
ENDBRANCH  23  26
ENDBRANCH  18  20
ENDBRANCH   1  18
TORSDOF 4
