REMARK  Name = ZINC08622905
REMARK  13 active torsions:
REMARK  status: ('A' for Active; 'I' for Inactive)
REMARK    1  A    between atoms: C_1  and  C_2
REMARK    2  A    between atoms: C_2  and  C_3
REMARK    3  A    between atoms: C_3  and  N_4
REMARK    4  A    between atoms: C_5  and  O_7
REMARK    5  A    between atoms: O_7  and  C_8
REMARK    6  A    between atoms: C_8  and  C_9
REMARK    7  A    between atoms: C_17  and  C_19
REMARK    8  A    between atoms: C_21  and  C_31
REMARK    9  A    between atoms: C_23  and  C_25
REMARK   10  A    between atoms: C_31  and  C_32
REMARK   11  A    between atoms: C_31  and  C_34
REMARK   12  A    between atoms: C_32  and  C_33
REMARK   13  A    between atoms: C_34  and  C_35
REMARK                            x       y       z     vdW  Elec       q    Type
REMARK                         _______ _______ _______ _____ _____    ______ ____
ROOT
ATOM      1  C   UNL     1       2.430   0.650  -4.346  0.00  0.00    -0.030 C 
ATOM      2  C   UNL     1       0.983   0.607  -4.846  0.00  0.00    -0.008 C 
ATOM      3  C   UNL     1       0.719   1.851  -5.704  0.00  0.00    -0.007 C 
ATOM      4  C   UNL     1       1.708   1.856  -6.876  0.00  0.00    -0.015 C 
ATOM      5  C   UNL     1       3.134   1.863  -6.320  0.00  0.00    -0.078 C 
ATOM      6  C   UNL     1       2.416   3.072  -4.347  0.00  0.00    -0.068 C 
ATOM      7  C   UNL     1       0.969   3.099  -4.848  0.00  0.00    +0.024 C 
ATOM      8  N   UNL     1       3.111   1.865  -4.842  0.00  0.00    +0.384 N 
ATOM      9  H   UNL     1       4.077   1.870  -4.494  0.00  0.00    -0.081 HD
ENDROOT
BRANCH   7  10
ATOM     10  C   UNL     1       0.028   3.101  -3.671  0.00  0.00    +0.047 A 
ATOM     11  C   UNL     1       0.351   3.794  -2.514  0.00  0.00    +0.047 A 
ATOM     12  C   UNL     1      -0.540   3.765  -1.452  0.00  0.00    +0.048 A 
ATOM     13  N   UNL     1      -1.670   3.090  -1.577  0.00  0.00    -0.232 NA
ATOM     14  C   UNL     1      -1.952   2.442  -2.699  0.00  0.00    +0.160 A 
ATOM     15  N   UNL     1      -1.119   2.445  -3.730  0.00  0.00    -0.232 NA
BRANCH  14  16
ATOM     16  C   UNL     1      -3.230   1.696  -2.802  0.00  0.00    +0.022 A 
ATOM     17  C   UNL     1      -3.565   1.005  -3.970  0.00  0.00    +0.031 A 
ATOM     18  C   UNL     1      -4.762   0.319  -4.022  0.00  0.00    +0.111 A 
ATOM     19  N   UNL     1      -5.588   0.319  -2.994  0.00  0.00    -0.263 NA
ATOM     20  C   UNL     1      -5.312   0.962  -1.876  0.00  0.00    +0.111 A 
ATOM     21  C   UNL     1      -4.134   1.669  -1.737  0.00  0.00    +0.031 A 
ENDBRANCH  14  16
BRANCH  12  22
ATOM     22  C   UNL     1      -0.229   4.500  -0.174  0.00  0.00    +0.037 C 
BRANCH  22  23
ATOM     23  C   UNL     1       0.657   3.624   0.715  0.00  0.00    +0.006 C 
ATOM     24  C   UNL     1       0.871   4.316   2.062  0.00  0.00    +0.004 C 
ENDBRANCH  22  23
BRANCH  22  25
ATOM     25  C   UNL     1       0.506   5.802  -0.500  0.00  0.00    +0.006 C 
ATOM     26  C   UNL     1      -0.421   6.726  -1.292  0.00  0.00    +0.004 C 
ENDBRANCH  22  25
ENDBRANCH  12  22
ENDBRANCH   7  10
BRANCH   1  27
ATOM     27  C   UNL     1       2.442   0.662  -2.816  0.00  0.00    +0.218 C 
BRANCH  27  28
ATOM     28  O   UNL     1       3.814   0.669  -2.343  0.00  0.00    -0.452 OA
BRANCH  28  30
ATOM     29  N   UNL     1       5.244   0.680  -0.499  0.00  0.00    -0.281 N 
ATOM     30  C   UNL     1       4.003   0.577  -1.013  0.00  0.00    +0.400 C 
ATOM     31  O   UNL     1       3.053   0.400  -0.276  0.00  0.00    -0.226 OA
ATOM     32  H   UNL     1       6.002   0.821  -1.088  0.00  0.00    +0.152 HD
BRANCH  29  33
ATOM     33  C   UNL     1       5.449   0.580   0.948  0.00  0.00    +0.107 C 
BRANCH  33  35
ATOM     34  C   UNL     1       7.153   0.626   2.775  0.00  0.00    +0.005 C 
ATOM     35  C   UNL     1       6.939   0.730   1.264  0.00  0.00    +0.015 C 
ENDBRANCH  33  35
ENDBRANCH  29  33
ENDBRANCH  28  30
ENDBRANCH  27  28
ENDBRANCH   1  27
TORSDOF 10
