REMARK  Name = ZINC22062482
REMARK  9 active torsions:
REMARK  status: ('A' for Active; 'I' for Inactive)
REMARK    1  A    between atoms: C_1  and  C_2
REMARK    2  A    between atoms: C_5  and  N_9
REMARK    3  A    between atoms: C_6  and  C_8
REMARK    4  A    between atoms: N_9  and  S_10
REMARK    5  A    between atoms: S_10  and  C_13
REMARK    6  A    between atoms: C_16  and  N_22
REMARK    7  A    between atoms: C_17  and  N_19
REMARK    8  A    between atoms: C_25  and  C_28
REMARK    9  A    between atoms: N_30  and  C_31
REMARK                            x       y       z     vdW  Elec       q    Type
REMARK                         _______ _______ _______ _____ _____    ______ ____
ROOT
ATOM      1  C   UNL     1       1.157   0.066   4.514  0.00  0.00    +0.111 A 
ATOM      2  C   UNL     1       0.620  -0.643   3.455  0.00  0.00    +0.031 A 
ATOM      3  C   UNL     1       0.195   0.022   2.322  0.00  0.00    +0.027 A 
ATOM      4  C   UNL     1       0.307   1.405   2.247  0.00  0.00    +0.060 A 
ATOM      5  C   UNL     1       0.852   2.113   3.310  0.00  0.00    +0.149 A 
ATOM      6  C   UNL     1       1.270   1.442   4.443  0.00  0.00    +0.063 A 
ENDROOT
BRANCH   4   7
ATOM      7  N   UNL     1      -0.122   2.081   1.103  0.00  0.00    -0.328 N 
ATOM      8  C   UNL     1      -1.568   1.919   0.906  0.00  0.00    +0.106 C 
ATOM      9  C   UNL     1      -2.026   2.788  -0.267  0.00  0.00    +0.031 C 
ATOM     10  C   UNL     1      -1.270   2.368  -1.531  0.00  0.00    +0.078 C 
ATOM     11  C   UNL     1       0.235   2.500  -1.284  0.00  0.00    +0.031 C 
ATOM     12  C   UNL     1       0.627   1.639  -0.081  0.00  0.00    +0.106 C 
BRANCH  10  13
ATOM     13  C   UNL     1      -1.673   3.258  -2.678  0.00  0.00    +0.216 C 
ATOM     14  O   UNL     1      -2.485   4.142  -2.503  0.00  0.00    -0.276 OA
ATOM     15  N   UNL     1      -1.132   3.073  -3.898  0.00  0.00    -0.318 N 
ATOM     16  C   UNL     1      -1.524   3.938  -5.013  0.00  0.00    +0.128 C 
ATOM     17  H   UNL     1      -0.396   2.271  -4.057  0.00  0.00    +0.148 HD
ENDBRANCH  10  13
ENDBRANCH   4   7
BRANCH   1  18
ATOM     18  S   UNL     1       1.697  -0.787   5.958  0.00  0.00    +0.072 S 
ATOM     19  O   UNL     1       1.657   0.152   7.024  0.00  0.00    -0.150 OA
ATOM     20  O   UNL     1       0.981  -2.014   5.997  0.00  0.00    -0.150 OA
BRANCH  18  21
ATOM     21  N   UNL     1       3.291  -1.176   5.730  0.00  0.00    -0.216 N 
ATOM     22  H   UNL     1       3.607  -2.229   5.743  0.00  0.00    +0.174 HD
BRANCH  21  27
ATOM     23  C   UNL     1       7.117   2.922   4.880  0.00  0.00    +0.044 C 
ATOM     24  C   UNL     1       6.099   1.834   5.106  0.00  0.00    -0.050 A 
ATOM     25  C   UNL     1       5.040   2.047   5.968  0.00  0.00    +0.005 A 
ATOM     26  C   UNL     1       4.106   1.051   6.178  0.00  0.00    +0.025 A 
ATOM     27  C   UNL     1       4.232  -0.166   5.520  0.00  0.00    +0.051 A 
ATOM     28  C   UNL     1       5.301  -0.379   4.658  0.00  0.00    -0.028 A 
ATOM     29  C   UNL     1       6.228   0.623   4.450  0.00  0.00    +0.008 A 
ATOM     30  C   UNL     1       5.445  -1.700   3.948  0.00  0.00    +0.046 C 
ENDBRANCH  21  27
ENDBRANCH  18  21
ENDBRANCH   1  18
BRANCH   5  31
ATOM     31  N   UNL     1       0.979   3.585   3.232  0.00  0.00    +0.058 N 
ATOM     32  O   UNL     1       1.540   4.196   4.124  0.00  0.00    -0.126 OA
ATOM     33  O   UNL     1       0.522   4.186   2.277  0.00  0.00    -0.126 OA
ENDBRANCH   5  31
TORSDOF 6
