REMARK  Name = ZINC11129046
REMARK  4 active torsions:
REMARK  status: ('A' for Active; 'I' for Inactive)
REMARK    1  A    between atoms: C_1  and  C_2
REMARK    2  A    between atoms: C_15  and  C_17
REMARK    3  A    between atoms: C_17  and  N_18
REMARK    4  A    between atoms: N_18  and  C_19
REMARK                            x       y       z     vdW  Elec       q    Type
REMARK                         _______ _______ _______ _____ _____    ______ ____
ROOT
ATOM      1  C   UNL     1      -0.726   1.578   1.269  0.00  0.00    +0.029 C 
ATOM      2  C   UNL     1      -0.013   1.086   0.008  0.00  0.00    +0.087 C 
ATOM      3  C   UNL     1      -0.761   1.591  -1.227  0.00  0.00    +0.118 C 
ATOM      4  C   UNL     1       0.112   1.469  -2.447  0.00  0.00    +0.219 C 
ATOM      5  O   UNL     1      -0.092   0.581  -3.248  0.00  0.00    -0.275 OA
ATOM      6  N   UNL     1       1.122   2.341  -2.656  0.00  0.00    -0.284 N 
ATOM      7  C   UNL     1       1.432   3.312  -1.697  0.00  0.00    +0.055 A 
ATOM      8  C   UNL     1       1.618   4.635  -2.059  0.00  0.00    +0.025 A 
ATOM      9  C   UNL     1       1.978   5.566  -1.103  0.00  0.00    +0.002 A 
ATOM     10  C   UNL     1       2.152   5.181   0.214  0.00  0.00    +0.002 A 
ATOM     11  C   UNL     1       1.956   3.864   0.586  0.00  0.00    +0.025 A 
ATOM     12  C   UNL     1       1.587   2.926  -0.365  0.00  0.00    +0.058 A 
ATOM     13  N   UNL     1       1.361   1.591  -0.002  0.00  0.00    -0.265 N 
ATOM     14  C   UNL     1       2.391   0.787   0.330  0.00  0.00    +0.237 C 
ATOM     15  O   UNL     1       2.183  -0.367   0.641  0.00  0.00    -0.274 OA
ATOM     16  H   UNL     1       1.636   2.295  -3.478  0.00  0.00    +0.155 HD
ENDROOT
BRANCH  14  17
ATOM     17  C   UNL     1       3.800   1.321   0.314  0.00  0.00    +0.198 C 
BRANCH  17  18
ATOM     18  N   UNL     1       4.729   0.260   0.711  0.00  0.00    -0.335 N 
ATOM     19  H   UNL     1       4.392  -0.622   0.931  0.00  0.00    +0.147 HD
BRANCH  18  20
ATOM     20  C   UNL     1       6.100   0.519   0.771  0.00  0.00    +0.030 A 
ATOM     21  C   UNL     1       6.585   1.780   0.450  0.00  0.00    +0.043 A 
ATOM     22  C   UNL     1       7.942   2.035   0.515  0.00  0.00    +0.044 A 
ATOM     23  C   UNL     1       8.818   1.032   0.890  0.00  0.00    +0.040 A 
ATOM     24  C   UNL     1       8.338  -0.227   1.205  0.00  0.00    +0.044 A 
ATOM     25  C   UNL     1       6.982  -0.486   1.146  0.00  0.00    +0.043 A 
ATOM     26 CL   UNL     1       9.441  -1.483   1.674  0.00  0.00    -0.083 Cl
ATOM     27 CL   UNL     1       8.548   3.613   0.120  0.00  0.00    -0.083 Cl
ENDBRANCH  18  20
ENDBRANCH  17  18
ENDBRANCH  14  17
TORSDOF 3
