REMARK  Name = ZINC40318339
REMARK  11 active torsions:
REMARK  status: ('A' for Active; 'I' for Inactive)
REMARK    1  A    between atoms: C_3  and  O_9
REMARK    2  A    between atoms: C_6  and  C_7
REMARK    3  A    between atoms: O_9  and  C_10
REMARK    4  A    between atoms: C_10  and  C_11
REMARK    5  A    between atoms: C_11  and  C_13
REMARK    6  A    between atoms: C_11  and  O_36
REMARK    7  A    between atoms: C_13  and  N_14
REMARK    8  A    between atoms: N_14  and  C_15
REMARK    9  A    between atoms: N_14  and  C_28
REMARK   10  A    between atoms: C_15  and  C_16
REMARK   11  A    between atoms: C_19  and  C_21
REMARK                            x       y       z     vdW  Elec       q    Type
REMARK                         _______ _______ _______ _____ _____    ______ ____
ROOT
ATOM      1  N   UNL     1       8.367   2.161   0.393  0.00  0.00    +0.389 N 
ATOM      2  H   UNL     1       8.676   2.426   1.316  0.00  0.00    -0.081 HD
ENDROOT
BRANCH   1   3
ATOM      3  C   UNL     1       7.808   3.334  -0.293  0.00  0.00    -0.045 C 
ATOM      4  C   UNL     1       8.810   4.498  -0.229  0.00  0.00    +0.009 C 
ATOM      5  C   UNL     1       8.117   5.815  -0.656  0.00  0.00    +0.164 C 
ATOM      6  S   UNL     1       6.363   5.516  -0.193  0.00  0.00    -0.033 S 
ATOM      7  O   UNL     1       5.564   5.532  -1.368  0.00  0.00    -0.174 OA
ATOM      8  O   UNL     1       6.021   6.364   0.896  0.00  0.00    -0.174 OA
ATOM      9  C   UNL     1       6.499   3.783   0.416  0.00  0.00    +0.151 C 
ENDBRANCH   1   3
BRANCH   1  10
ATOM     10  C   UNL     1       7.336   1.120   0.502  0.00  0.00    -0.043 C 
BRANCH  10  11
ATOM     11  C   UNL     1       6.992   0.896   1.976  0.00  0.00    +0.135 C 
BRANCH  11  12
ATOM     12  O   UNL     1       8.128   0.357   2.654  0.00  0.00    -0.390 OA
ATOM     13  H   UNL     1       8.432  -0.490   2.299  0.00  0.00    +0.210 HD
ENDBRANCH  11  12
BRANCH  11  14
ATOM     14  C   UNL     1       5.822  -0.084   2.083  0.00  0.00    +0.258 C 
BRANCH  14  15
ATOM     15  O   UNL     1       5.424  -0.204   3.450  0.00  0.00    -0.489 OA
BRANCH  15  18
ATOM     16  C   UNL     1       2.911  -2.047   5.309  0.00  0.00    +0.014 A 
ATOM     17  C   UNL     1       3.955  -1.203   5.031  0.00  0.00    +0.046 A 
ATOM     18  C   UNL     1       4.391  -1.041   3.720  0.00  0.00    +0.121 A 
ATOM     19  C   UNL     1       3.772  -1.734   2.686  0.00  0.00    +0.046 A 
ATOM     20  C   UNL     1       2.727  -2.580   2.953  0.00  0.00    +0.014 A 
ATOM     21  C   UNL     1       2.284  -2.747   4.271  0.00  0.00    +0.014 A 
BRANCH  21  22
ATOM     22  C   UNL     1       1.165  -3.652   4.564  0.00  0.00    +0.258 C 
ATOM     23  O   UNL     1       0.623  -4.257   3.663  0.00  0.00    -0.296 OA
ENDBRANCH  21  22
ENDBRANCH  15  18
ENDBRANCH  14  15
ENDBRANCH  11  14
ENDBRANCH  10  11
ENDBRANCH   1  10
BRANCH   1  24
ATOM     24  C   UNL     1       9.507   1.642  -0.375  0.00  0.00    -0.003 C 
BRANCH  24  25
ATOM     25  C   UNL     1      10.624   2.653  -0.361  0.00  0.00    +0.089 A 
ATOM     26  C   UNL     1      11.313   3.048   0.728  0.00  0.00    +0.043 A 
ATOM     27  C   UNL     1      12.259   3.999   0.295  0.00  0.00    +0.050 A 
ATOM     28  C   UNL     1      12.094   4.133  -1.047  0.00  0.00    +0.135 A 
ATOM     29  O   UNL     1      11.103   3.306  -1.433  0.00  0.00    -0.462 OA
BRANCH  28  30
ATOM     30  C   UNL     1      12.871   5.026  -1.932  0.00  0.00    +0.017 A 
ATOM     31  C   UNL     1      13.884   5.827  -1.403  0.00  0.00    +0.014 A 
ATOM     32  C   UNL     1      14.607   6.659  -2.233  0.00  0.00    +0.039 A 
ATOM     33  C   UNL     1      14.327   6.701  -3.589  0.00  0.00    +0.123 A 
ATOM     34  C   UNL     1      13.322   5.908  -4.120  0.00  0.00    +0.039 A 
ATOM     35  C   UNL     1      12.598   5.068  -3.300  0.00  0.00    +0.014 A 
ATOM     36  F   UNL     1      15.037   7.518  -4.398  0.00  0.00    -0.205 F 
ENDBRANCH  28  30
ENDBRANCH  24  25
ENDBRANCH   1  24
TORSDOF 11
