REMARK  Name = ZINC08607088
REMARK  10 active torsions:
REMARK  status: ('A' for Active; 'I' for Inactive)
REMARK    1  A    between atoms: C_1  and  C_2
REMARK    2  A    between atoms: C_8  and  C_12
REMARK    3  A    between atoms: C_12  and  O_13
REMARK    4  A    between atoms: O_13  and  C_14
REMARK    5  A    between atoms: C_14  and  C_16
REMARK    6  A    between atoms: C_21  and  N_22
REMARK    7  A    between atoms: C_23  and  C_25
REMARK    8  A    between atoms: C_25  and  C_27
REMARK    9  A    between atoms: C_25  and  O_28
REMARK   10  A    between atoms: O_28  and  C_29
REMARK                            x       y       z     vdW  Elec       q    Type
REMARK                         _______ _______ _______ _____ _____    ______ ____
ROOT
ATOM      1  C   UNL     1       2.232  -8.248  -2.736  0.00  0.00    +0.080 A 
ATOM      2  C   UNL     1       2.351  -7.354  -3.803  0.00  0.00    +0.017 A 
ATOM      3  C   UNL     1       2.985  -7.747  -4.961  0.00  0.00    +0.001 A 
ATOM      4  C   UNL     1       3.506  -9.025  -5.075  0.00  0.00    +0.002 A 
ATOM      5  C   UNL     1       3.396  -9.920  -4.029  0.00  0.00    +0.024 A 
ATOM      6  C   UNL     1       2.766  -9.540  -2.852  0.00  0.00    +0.048 A 
ENDROOT
BRANCH   6   7
ATOM      7  N   UNL     1       2.659 -10.439  -1.794  0.00  0.00    -0.282 N 
ATOM      8  C   UNL     1       3.651 -11.320  -1.555  0.00  0.00    +0.258 C 
ATOM      9  O   UNL     1       4.678 -11.265  -2.197  0.00  0.00    -0.271 OA
ATOM     10  H   UNL     1       1.871 -10.432  -1.228  0.00  0.00    +0.155 HD
BRANCH   8  11
ATOM     11  C   UNL     1       3.483 -12.374  -0.491  0.00  0.00    +0.256 C 
ATOM     12  C   UNL     1       2.359 -13.331  -0.894  0.00  0.00    +0.062 C 
BRANCH  11  13
ATOM     13  O   UNL     1       4.703 -13.105  -0.348  0.00  0.00    -0.480 OA
BRANCH  13  14
ATOM     14  C   UNL     1       5.018 -13.541   0.899  0.00  0.00    +0.122 A 
ATOM     15  C   UNL     1       6.245 -14.145   1.135  0.00  0.00    +0.045 A 
ATOM     16  C   UNL     1       6.563 -14.587   2.405  0.00  0.00    +0.004 A 
ATOM     17  C   UNL     1       5.660 -14.429   3.440  0.00  0.00    +0.000 A 
ATOM     18  C   UNL     1       4.436 -13.829   3.207  0.00  0.00    +0.004 A 
ATOM     19  C   UNL     1       4.116 -13.379   1.941  0.00  0.00    +0.045 A 
ENDBRANCH  13  14
ENDBRANCH  11  13
ENDBRANCH   8  11
ENDBRANCH   6   7
BRANCH   1  20
ATOM     20  C   UNL     1       1.555  -7.834  -1.493  0.00  0.00    +0.341 C 
ATOM     21  O   UNL     1       1.379  -8.639  -0.600  0.00  0.00    -0.245 OA
BRANCH  20  22
ATOM     22  O   UNL     1       1.132  -6.563  -1.348  0.00  0.00    -0.455 OA
BRANCH  22  23
ATOM     23  C   UNL     1       0.485  -6.232  -0.118  0.00  0.00    +0.288 C 
BRANCH  23  31
ATOM     24  C   UNL     1       0.214   1.590  -0.260  0.00  0.00    +0.075 C 
ATOM     25  C   UNL     1       0.213   0.084  -0.231  0.00  0.00    +0.099 A 
ATOM     26  N   UNL     1      -0.798  -0.731  -0.192  0.00  0.00    -0.159 NA
ATOM     27  N   UNL     1      -0.622  -2.111  -0.170  0.00  0.00    -0.171 N 
ATOM     28  C   UNL     1      -1.597  -3.067  -0.130  0.00  0.00    +0.275 A 
ATOM     29  O   UNL     1      -2.773  -2.740  -0.110  0.00  0.00    -0.266 OA
ATOM     30  C   UNL     1      -1.246  -4.417  -0.113  0.00  0.00    +0.099 A 
ATOM     31  C   UNL     1       0.084  -4.779  -0.136  0.00  0.00    +0.087 A 
ATOM     32  N   UNL     1       1.008  -3.822  -0.175  0.00  0.00    -0.223 NA
ATOM     33  C   UNL     1       0.671  -2.558  -0.191  0.00  0.00    +0.199 A 
ATOM     34  S   UNL     1       1.600  -1.041  -0.248  0.00  0.00    -0.033 S 
ENDBRANCH  23  31
ENDBRANCH  22  23
ENDBRANCH  20  22
ENDBRANCH   1  20
TORSDOF 8
