REMARK  Name = ZINC39730049
REMARK  6 active torsions:
REMARK  status: ('A' for Active; 'I' for Inactive)
REMARK    1  A    between atoms: C_3  and  N_26
REMARK    2  A    between atoms: C_4  and  N_11
REMARK    3  A    between atoms: C_6  and  C_7
REMARK    4  A    between atoms: N_11  and  C_12
REMARK    5  A    between atoms: C_12  and  C_13
REMARK    6  A    between atoms: N_26  and  C_27
REMARK                            x       y       z     vdW  Elec       q    Type
REMARK                         _______ _______ _______ _____ _____    ______ ____
ROOT
ATOM      1  C   UNL     1       0.779   2.048   0.487  0.00  0.00    +0.014 A 
ATOM      2  C   UNL     1       2.053   2.584   0.542  0.00  0.00    +0.025 A 
ATOM      3  C   UNL     1       3.159   1.751   0.466  0.00  0.00    +0.049 A 
ATOM      4  C   UNL     1       2.982   0.374   0.334  0.00  0.00    +0.049 A 
ATOM      5  C   UNL     1       1.702  -0.155   0.279  0.00  0.00    +0.037 A 
ATOM      6  C   UNL     1       0.604   0.683   0.356  0.00  0.00    +0.057 A 
ENDROOT
BRANCH   6   7
ATOM      7  C   UNL     1      -0.787   0.106   0.297  0.00  0.00    +0.417 C 
ATOM      8  F   UNL     1      -1.725   1.139   0.393  0.00  0.00    -0.166 F 
ATOM      9  F   UNL     1      -0.960  -0.570  -0.916  0.00  0.00    -0.166 F 
ATOM     10  F   UNL     1      -0.966  -0.787   1.359  0.00  0.00    -0.166 F 
ENDBRANCH   6   7
BRANCH   4  11
ATOM     11  N   UNL     1       4.095  -0.472   0.256  0.00  0.00    -0.334 N 
ATOM     12  H   UNL     1       4.991  -0.101   0.294  0.00  0.00    +0.147 HD
BRANCH  11  13
ATOM     13  C   UNL     1       3.908  -1.919   0.117  0.00  0.00    +0.198 C 
BRANCH  13  14
ATOM     14  C   UNL     1       5.252  -2.596   0.057  0.00  0.00    +0.234 C 
ATOM     15  O   UNL     1       6.268  -1.936   0.122  0.00  0.00    -0.274 OA
ATOM     16  N   UNL     1       5.327  -3.936  -0.071  0.00  0.00    -0.284 N 
ATOM     17  C   UNL     1       6.005  -4.466  -1.070  0.00  0.00    +0.036 C 
ATOM     18  C   UNL     1       6.575  -3.602  -2.111  0.00  0.00    +0.025 C 
ATOM     19  C   UNL     1       7.270  -4.137  -3.134  0.00  0.00    +0.032 C 
ATOM     20  C   UNL     1       7.462  -5.588  -3.214  0.00  0.00    +0.095 C 
ATOM     21  N   UNL     1       8.073  -6.390  -4.064  0.00  0.00    -0.190 NA
ATOM     22  C   UNL     1       7.937  -7.661  -3.651  0.00  0.00    +0.369 C 
ATOM     23  O   UNL     1       8.450  -8.733  -4.301  0.00  0.00    -0.243 OA
ATOM     24  N   UNL     1       7.246  -7.734  -2.538  0.00  0.00    -0.190 NA
ATOM     25  C   UNL     1       6.894  -6.467  -2.173  0.00  0.00    +0.097 C 
ATOM     26  C   UNL     1       6.198  -5.931  -1.138  0.00  0.00    +0.053 C 
ATOM     27  H   UNL     1       4.881  -4.510   0.572  0.00  0.00    +0.155 HD
ENDBRANCH  13  14
ENDBRANCH  11  13
ENDBRANCH   4  11
BRANCH   3  28
ATOM     28  N   UNL     1       4.449   2.292   0.521  0.00  0.00    -0.340 N 
ATOM     29  H   UNL     1       5.222   1.708   0.468  0.00  0.00    +0.146 HD
BRANCH  28  30
ATOM     30  C   UNL     1       4.632   3.739   0.659  0.00  0.00    +0.070 C 
ATOM     31  C   UNL     1       4.575   4.394  -0.722  0.00  0.00    +0.022 C 
ATOM     32  C   UNL     1       4.766   5.905  -0.578  0.00  0.00    +0.002 C 
ATOM     33  C   UNL     1       6.125   6.189   0.066  0.00  0.00    +0.000 C 
ATOM     34  C   UNL     1       6.182   5.533   1.447  0.00  0.00    +0.002 C 
ATOM     35  C   UNL     1       5.991   4.022   1.303  0.00  0.00    +0.022 C 
ENDBRANCH  28  30
ENDBRANCH   3  28
TORSDOF 6
