REMARK  Name = ZINC01210384
REMARK  8 active torsions:
REMARK  status: ('A' for Active; 'I' for Inactive)
REMARK    1  A    between atoms: C_4  and  C_7
REMARK    2  A    between atoms: C_10  and  S_18
REMARK    3  A    between atoms: N_11  and  C_12
REMARK    4  A    between atoms: S_18  and  C_19
REMARK    5  A    between atoms: C_19  and  C_20
REMARK    6  A    between atoms: N_22  and  N_23
REMARK    7  A    between atoms: C_24  and  C_25
REMARK    8  A    between atoms: C_30  and  N_31
REMARK                            x       y       z     vdW  Elec       q    Type
REMARK                         _______ _______ _______ _____ _____    ______ ____
ROOT
ATOM      1  C   UNL     1     -11.586  -1.621  -0.565  0.00  0.00    +0.169 A 
ATOM      2  N   UNL     1     -10.562  -2.436  -0.454  0.00  0.00    -0.128 NA
ATOM      3  N   UNL     1      -9.467  -1.764  -0.413  0.00  0.00    -0.122 NA
ATOM      4  C   UNL     1      -9.723  -0.477  -0.496  0.00  0.00    +0.197 A 
ATOM      5  N   UNL     1     -11.081  -0.339  -0.590  0.00  0.00    -0.270 N 
ENDROOT
BRANCH   1   9
ATOM      6  C   UNL     1     -15.681  -2.726  -0.788  0.00  0.00    +0.000 A 
ATOM      7  C   UNL     1     -14.740  -3.649  -0.366  0.00  0.00    +0.001 A 
ATOM      8  C   UNL     1     -13.409  -3.296  -0.291  0.00  0.00    +0.011 A 
ATOM      9  C   UNL     1     -13.011  -2.005  -0.643  0.00  0.00    +0.020 A 
ATOM     10  C   UNL     1     -13.965  -1.077  -1.063  0.00  0.00    +0.011 A 
ATOM     11  C   UNL     1     -15.293  -1.444  -1.138  0.00  0.00    +0.001 A 
ENDBRANCH   1   9
BRANCH   5  12
ATOM     12  C   UNL     1     -11.806   0.856  -0.692  0.00  0.00    +0.051 A 
ATOM     13  C   UNL     1     -12.673   1.233   0.325  0.00  0.00    +0.026 A 
ATOM     14  C   UNL     1     -13.383   2.413   0.224  0.00  0.00    +0.002 A 
ATOM     15  C   UNL     1     -13.239   3.214  -0.894  0.00  0.00    +0.000 A 
ATOM     16  C   UNL     1     -12.380   2.840  -1.911  0.00  0.00    +0.002 A 
ATOM     17  C   UNL     1     -11.663   1.663  -1.813  0.00  0.00    +0.026 A 
ENDBRANCH   5  12
BRANCH   4  18
ATOM     18  S   UNL     1      -8.538   0.827  -0.481  0.00  0.00    -0.076 S 
BRANCH  18  19
ATOM     19  C   UNL     1      -7.013  -0.136  -0.328  0.00  0.00    +0.174 C 
BRANCH  19  20
ATOM     20  C   UNL     1      -5.830   0.798  -0.295  0.00  0.00    +0.242 C 
ATOM     21  O   UNL     1      -6.002   1.996  -0.367  0.00  0.00    -0.273 OA
ATOM     22  N   UNL     1      -4.582   0.301  -0.185  0.00  0.00    -0.206 N 
ATOM     23  H   UNL     1      -4.445  -0.658  -0.127  0.00  0.00    +0.177 HD
BRANCH  22  24
ATOM     24  N   UNL     1      -3.483   1.169  -0.154  0.00  0.00    -0.188 NA
ATOM     25  C   UNL     1      -2.281   0.691  -0.048  0.00  0.00    +0.140 C 
BRANCH  25  26
ATOM     26  C   UNL     1      -1.124   1.604  -0.016  0.00  0.00    +0.025 A 
ATOM     27  C   UNL     1      -1.322   2.987   0.029  0.00  0.00    +0.012 A 
ATOM     28  C   UNL     1      -0.236   3.835   0.065  0.00  0.00    +0.001 A 
ATOM     29  C   UNL     1       1.049   3.320   0.051  0.00  0.00    +0.002 A 
ATOM     30  C   UNL     1       1.253   1.953   0.001  0.00  0.00    +0.033 A 
ATOM     31  C   UNL     1       0.175   1.092  -0.035  0.00  0.00    +0.135 A 
BRANCH  31  32
ATOM     32  N   UNL     1       0.395  -0.370  -0.090  0.00  0.00    +0.057 N 
ATOM     33  O   UNL     1       1.523  -0.812  -0.217  0.00  0.00    -0.126 OA
ATOM     34  O   UNL     1      -0.552  -1.132  -0.007  0.00  0.00    -0.126 OA
ENDBRANCH  31  32
ENDBRANCH  25  26
ENDBRANCH  22  24
ENDBRANCH  19  20
ENDBRANCH  18  19
ENDBRANCH   4  18
TORSDOF 8
