REMARK  Name = ZINC18217698
REMARK  2 active torsions:
REMARK  status: ('A' for Active; 'I' for Inactive)
REMARK    1  A    between atoms: C_2  and  C_14
REMARK    2  A    between atoms: C_6  and  C_8
REMARK                            x       y       z     vdW  Elec       q    Type
REMARK                         _______ _______ _______ _____ _____    ______ ____
ROOT
ATOM      1  C   UNL     1      -0.013   1.076   0.008  0.00  0.00    +0.096 A 
ATOM      2  C   UNL     1      -1.189   1.742   0.017  0.00  0.00    +0.065 A 
ATOM      3  N   UNL     1      -1.183   3.110   0.029  0.00  0.00    -0.216 N 
ATOM      4  C   UNL     1       0.010   3.788   0.021  0.00  0.00    +0.160 A 
ATOM      5  C   UNL     1      -0.288   5.141   0.031  0.00  0.00    +0.085 A 
ATOM      6  C   UNL     1      -1.682   5.266   0.045  0.00  0.00    +0.176 A 
ATOM      7  N   UNL     1      -2.215   4.055   0.044  0.00  0.00    -0.158 NA
ATOM      8  N   UNL     1       1.174   3.120   0.007  0.00  0.00    -0.190 NA
ATOM      9  C   UNL     1       1.195   1.804   0.000  0.00  0.00    +0.274 A 
ATOM     10  O   UNL     1       2.380   1.147  -0.015  0.00  0.00    -0.266 OA
ENDROOT
BRANCH   6  11
ATOM     11  C   UNL     1      -2.433   6.539   0.059  0.00  0.00    +0.406 C 
ATOM     12  O   UNL     1      -1.836   7.596   0.059  0.00  0.00    -0.239 OA
ATOM     13  O   UNL     1      -3.780   6.526   0.072  0.00  0.00    -0.239 OA
ENDBRANCH   6  11
BRANCH   2  14
ATOM     14  C   UNL     1      -2.492   0.985   0.019  0.00  0.00    +0.164 C 
ATOM     15 CL   UNL     1      -3.004   0.675   1.720  0.00  0.00    -0.119 Cl
ENDBRANCH   2  14
TORSDOF 2
