REMARK  Name = ZINC06172619
REMARK  7 active torsions:
REMARK  status: ('A' for Active; 'I' for Inactive)
REMARK    1  A    between atoms: C_1  and  C_2
REMARK    2  A    between atoms: C_5  and  S_8
REMARK    3  A    between atoms: S_8  and  N_11
REMARK    4  A    between atoms: C_18  and  N_62
REMARK    5  A    between atoms: C_21  and  C_22
REMARK    6  A    between atoms: C_22  and  O_23
REMARK    7  A    between atoms: O_23  and  C_24
REMARK                            x       y       z     vdW  Elec       q    Type
REMARK                         _______ _______ _______ _____ _____    ______ ____
ROOT
ATOM      1  N   UNL     1       2.582   2.918  -2.817  0.00  0.00    -0.177 N 
ATOM      2  C   UNL     1       3.525   3.933  -2.965  0.00  0.00    +0.058 A 
ATOM      3  C   UNL     1       4.426   4.471  -2.046  0.00  0.00    +0.025 A 
ATOM      4  C   UNL     1       5.278   5.488  -2.424  0.00  0.00    +0.002 A 
ATOM      5  C   UNL     1       5.245   5.982  -3.716  0.00  0.00    +0.000 A 
ATOM      6  C   UNL     1       4.354   5.454  -4.633  0.00  0.00    +0.004 A 
ATOM      7  C   UNL     1       3.502   4.437  -4.258  0.00  0.00    -0.032 A 
ATOM      8  C   UNL     1       2.445   3.667  -5.015  0.00  0.00    +0.012 C 
ATOM      9  C   UNL     1       1.887   2.696  -3.997  0.00  0.00    +0.024 C 
ATOM     10  C   UNL     1       0.930   1.808  -4.194  0.00  0.00    +0.033 C 
ENDROOT
BRANCH   8  16
ATOM     11  C   UNL     1       1.824   5.298  -6.694  0.00  0.00    -0.049 C 
ATOM     12  C   UNL     1       0.678   6.186  -7.188  0.00  0.00    +0.141 C 
ATOM     13  O   UNL     1       0.281   7.072  -6.137  0.00  0.00    -0.383 OA
ATOM     14  C   UNL     1      -0.146   6.400  -4.949  0.00  0.00    +0.141 C 
ATOM     15  C   UNL     1       0.991   5.514  -4.433  0.00  0.00    -0.049 C 
ATOM     16  N   UNL     1       1.369   4.561  -5.497  0.00  0.00    +0.391 N 
ATOM     17  H   UNL     1       0.550   3.994  -5.745  0.00  0.00    -0.080 HD
ENDBRANCH   8  16
BRANCH   1  18
ATOM     18  S   UNL     1       2.323   2.083  -1.411  0.00  0.00    +0.079 S 
ATOM     19  O   UNL     1       3.309   2.526  -0.488  0.00  0.00    -0.149 OA
ATOM     20  O   UNL     1       0.931   2.169  -1.137  0.00  0.00    -0.149 OA
BRANCH  18  25
ATOM     21  C   UNL     1       3.504  -3.725  -2.541  0.00  0.00    +0.044 C 
ATOM     22  C   UNL     1       3.209  -2.275  -2.259  0.00  0.00    -0.050 A 
ATOM     23  C   UNL     1       3.943  -1.285  -2.885  0.00  0.00    +0.005 A 
ATOM     24  C   UNL     1       3.672   0.045  -2.627  0.00  0.00    +0.029 A 
ATOM     25  C   UNL     1       2.668   0.387  -1.741  0.00  0.00    +0.109 A 
ATOM     26  C   UNL     1       1.937  -0.603  -1.110  0.00  0.00    +0.029 A 
ATOM     27  C   UNL     1       2.204  -1.933  -1.372  0.00  0.00    +0.005 A 
ENDBRANCH  18  25
ENDBRANCH   1  18
BRANCH  10  28
ATOM     28  C   UNL     1       0.101   1.323  -3.032  0.00  0.00    +0.258 C 
BRANCH  28  29
ATOM     29  O   UNL     1      -0.763   2.373  -2.592  0.00  0.00    -0.486 OA
BRANCH  29  30
ATOM     30  C   UNL     1      -1.596   2.092  -1.556  0.00  0.00    +0.139 A 
ATOM     31  C   UNL     1      -1.586   0.832  -0.978  0.00  0.00    +0.048 A 
ATOM     32  C   UNL     1      -2.430   0.551   0.080  0.00  0.00    +0.023 A 
ATOM     33  C   UNL     1      -3.293   1.522   0.555  0.00  0.00    +0.043 A 
ATOM     34  C   UNL     1      -3.309   2.779  -0.023  0.00  0.00    +0.043 A 
ATOM     35  C   UNL     1      -2.462   3.066  -1.077  0.00  0.00    +0.084 A 
ATOM     36 CL   UNL     1      -2.483   4.643  -1.803  0.00  0.00    -0.080 Cl
ATOM     37 CL   UNL     1      -4.357   1.163   1.879  0.00  0.00    -0.083 Cl
ENDBRANCH  29  30
ENDBRANCH  28  29
ENDBRANCH  10  28
TORSDOF 6
