REMARK  Name = ZINC23247707
REMARK  7 active torsions:
REMARK  status: ('A' for Active; 'I' for Inactive)
REMARK    1  A    between atoms: C_1  and  N_2
REMARK    2  A    between atoms: N_2  and  C_3
REMARK    3  A    between atoms: C_14  and  C_16
REMARK    4  A    between atoms: C_16  and  N_17
REMARK    5  A    between atoms: N_20  and  C_23
REMARK    6  A    between atoms: C_23  and  C_24
REMARK    7  A    between atoms: C_23  and  C_31
REMARK                            x       y       z     vdW  Elec       q    Type
REMARK                         _______ _______ _______ _____ _____    ______ ____
ROOT
ATOM      1  N   UNL     1       4.193   1.387  -0.056  0.00  0.00    +0.387 N 
ATOM      2  C   UNL     1       3.439   2.009   1.041  0.00  0.00    -0.063 C 
ATOM      3  C   UNL     1       2.026   1.422   1.083  0.00  0.00    +0.067 C 
ATOM      4  N   UNL     1       1.363   1.656  -0.208  0.00  0.00    -0.295 NA
ATOM      5  C   UNL     1       2.118   1.034  -1.305  0.00  0.00    +0.067 C 
ATOM      6  C   UNL     1       3.530   1.621  -1.346  0.00  0.00    -0.063 C 
ATOM      7  H   UNL     1       4.218   0.301   0.122  0.00  0.00    -0.081 HD
ENDROOT
BRANCH   1   8
ATOM      8  C   UNL     1       5.580   1.870  -0.081  0.00  0.00    +0.019 C 
BRANCH   8  11
ATOM      9  C   UNL     1       8.214   2.749   0.489  0.00  0.00    +0.132 C 
ATOM     10  N   UNL     1       7.553   1.822   1.411  0.00  0.00    -0.299 N 
ATOM     11  C   UNL     1       6.300   1.395   1.155  0.00  0.00    +0.199 C 
ATOM     12  O   UNL     1       5.753   0.628   1.918  0.00  0.00    -0.278 OA
BRANCH  10  13
ATOM     13  C   UNL     1       8.252   1.361   2.612  0.00  0.00    +0.106 C 
ATOM     14  C   UNL     1       9.515   0.606   2.201  0.00  0.00    +0.027 C 
ATOM     15  C   UNL     1      10.341   0.322   3.461  0.00  0.00    +0.007 C 
ATOM     16  C   UNL     1      10.910   1.644   3.972  0.00  0.00    +0.035 C 
ATOM     17  C   UNL     1       9.819   2.675   4.101  0.00  0.00    -0.042 A 
ATOM     18  C   UNL     1       8.601   2.548   3.471  0.00  0.00    -0.024 A 
ATOM     19  C   UNL     1       7.643   3.542   3.621  0.00  0.00    +0.006 A 
ATOM     20  C   UNL     1       7.900   4.652   4.399  0.00  0.00    +0.000 A 
ATOM     21  C   UNL     1       9.120   4.777   5.035  0.00  0.00    +0.000 A 
ATOM     22  C   UNL     1      10.075   3.791   4.886  0.00  0.00    +0.004 A 
ENDBRANCH  10  13
ENDBRANCH   8  11
ENDBRANCH   1   8
BRANCH   4  23
ATOM     23  C   UNL     1      -0.024   1.173  -0.183  0.00  0.00    +0.117 C 
BRANCH  23  24
ATOM     24  C   UNL     1      -0.670   1.430  -1.520  0.00  0.00    -0.026 A 
ATOM     25  C   UNL     1      -0.426   2.615  -2.188  0.00  0.00    +0.008 A 
ATOM     26  C   UNL     1      -1.014   2.849  -3.417  0.00  0.00    +0.038 A 
ATOM     27  C   UNL     1      -1.856   1.901  -3.973  0.00  0.00    +0.123 A 
ATOM     28  C   UNL     1      -2.103   0.716  -3.300  0.00  0.00    +0.038 A 
ATOM     29  C   UNL     1      -1.510   0.482  -2.074  0.00  0.00    +0.008 A 
ATOM     30  F   UNL     1      -2.435   2.131  -5.172  0.00  0.00    -0.205 F 
ENDBRANCH  23  24
BRANCH  23  31
ATOM     31  C   UNL     1      -0.790   1.900   0.893  0.00  0.00    -0.026 A 
ATOM     32  C   UNL     1      -0.581   3.252   1.096  0.00  0.00    +0.008 A 
ATOM     33  C   UNL     1      -1.286   3.920   2.078  0.00  0.00    +0.038 A 
ATOM     34  C   UNL     1      -2.194   3.234   2.867  0.00  0.00    +0.123 A 
ATOM     35  C   UNL     1      -2.398   1.879   2.666  0.00  0.00    +0.038 A 
ATOM     36  C   UNL     1      -1.696   1.214   1.679  0.00  0.00    +0.008 A 
ATOM     37  F   UNL     1      -2.880   3.886   3.831  0.00  0.00    -0.205 F 
ENDBRANCH  23  31
ENDBRANCH   4  23
TORSDOF 6
