REMARK  Name = ZINC39574372
REMARK  9 active torsions:
REMARK  status: ('A' for Active; 'I' for Inactive)
REMARK    1  A    between atoms: C_1  and  C_2
REMARK    2  A    between atoms: C_3  and  O_23
REMARK    3  A    between atoms: C_6  and  C_9
REMARK    4  A    between atoms: C_7  and  O_8
REMARK    5  A    between atoms: C_11  and  O_16
REMARK    6  A    between atoms: C_12  and  C_15
REMARK    7  A    between atoms: O_16  and  C_17
REMARK    8  A    between atoms: O_23  and  C_24
REMARK    9  A    between atoms: C_24  and  C_25
REMARK                            x       y       z     vdW  Elec       q    Type
REMARK                         _______ _______ _______ _____ _____    ______ ____
ROOT
ATOM      1  C   UNL     1      -0.775   1.813  -0.214  0.00  0.00    +0.051 C 
ATOM      2  C   UNL     1      -0.512   0.330  -0.225  0.00  0.00    +0.033 A 
ATOM      3  C   UNL     1      -0.421  -0.351  -1.429  0.00  0.00    +0.127 A 
ATOM      4  C   UNL     1      -0.179  -1.717  -1.436  0.00  0.00    +0.046 A 
ATOM      5  C   UNL     1      -0.030  -2.400  -0.244  0.00  0.00    +0.013 A 
ATOM      6  C   UNL     1      -0.122  -1.724   0.958  0.00  0.00    +0.026 A 
ATOM      7  C   UNL     1      -0.357  -0.357   0.970  0.00  0.00    +0.129 A 
ENDROOT
BRANCH   6   8
ATOM      8  C   UNL     1       0.040  -2.472   2.256  0.00  0.00    +0.200 C 
ATOM      9  C   UNL     1      -1.308  -2.933   2.783  0.00  0.00    +0.156 C 
ATOM     10  C   UNL     1      -1.200  -4.277   2.801  0.00  0.00    +0.098 C 
ATOM     11  N   UNL     1       0.005  -4.662   2.365  0.00  0.00    -0.179 NA
ATOM     12  N   UNL     1       0.762  -3.739   2.042  0.00  0.00    -0.294 N 
ATOM     13  C   UNL     1      -2.288  -5.217   3.252  0.00  0.00    +0.071 C 
ATOM     14  H   UNL     1       1.668  -3.830   1.707  0.00  0.00    +0.184 HD
BRANCH   9  15
ATOM     15  O   UNL     1      -2.365  -2.175   3.148  0.00  0.00    -0.456 OA
BRANCH  15  16
ATOM     16  C   UNL     1      -2.234  -1.384   4.245  0.00  0.00    +0.128 A 
ATOM     17  C   UNL     1      -1.083  -1.451   5.017  0.00  0.00    +0.046 A 
ATOM     18  C   UNL     1      -0.952  -0.645   6.131  0.00  0.00    +0.004 A 
ATOM     19  C   UNL     1      -1.968   0.227   6.478  0.00  0.00    +0.000 A 
ATOM     20  C   UNL     1      -3.116   0.295   5.710  0.00  0.00    +0.004 A 
ATOM     21  C   UNL     1      -3.249  -0.504   4.591  0.00  0.00    +0.046 A 
ENDBRANCH  15  16
ENDBRANCH   9  15
ENDBRANCH   6   8
BRANCH   7  22
ATOM     22  O   UNL     1      -0.440   0.308   2.152  0.00  0.00    -0.506 OA
ATOM     23  H   UNL     1      -1.334   0.347   2.519  0.00  0.00    +0.292 HD
ENDBRANCH   7  22
BRANCH   3  24
ATOM     24  O   UNL     1      -0.568   0.320  -2.602  0.00  0.00    -0.487 OA
BRANCH  24  25
ATOM     25  C   UNL     1      -0.461  -0.445  -3.804  0.00  0.00    +0.264 C 
BRANCH  25  26
ATOM     26  C   UNL     1      -0.650   0.461  -4.994  0.00  0.00    -0.010 A 
ATOM     27  C   UNL     1      -1.917   0.672  -5.508  0.00  0.00    +0.008 A 
ATOM     28  C   UNL     1      -2.091   1.502  -6.598  0.00  0.00    +0.020 A 
ATOM     29  C   UNL     1      -0.998   2.123  -7.177  0.00  0.00    +0.041 A 
ATOM     30  C   UNL     1       0.269   1.911  -6.662  0.00  0.00    +0.020 A 
ATOM     31  C   UNL     1       0.441   1.085  -5.568  0.00  0.00    +0.008 A 
ATOM     32 CL   UNL     1      -1.216   3.166  -8.547  0.00  0.00    -0.084 Cl
ENDBRANCH  25  26
ENDBRANCH  24  25
ENDBRANCH   3  24
TORSDOF 7
