REMARK  Name = ZINC09545470
REMARK  14 active torsions:
REMARK  status: ('A' for Active; 'I' for Inactive)
REMARK    1  A    between atoms: C_1  and  C_2
REMARK    2  A    between atoms: C_2  and  C_3
REMARK    3  A    between atoms: C_2  and  O_4
REMARK    4  A    between atoms: O_4  and  C_5
REMARK    5  A    between atoms: C_8  and  S_26
REMARK    6  A    between atoms: C_10  and  N_11
REMARK    7  A    between atoms: C_12  and  C_14
REMARK    8  A    between atoms: C_17  and  O_24
REMARK    9  A    between atoms: C_18  and  O_22
REMARK   10  A    between atoms: C_19  and  O_20
REMARK   11  A    between atoms: O_20  and  C_21
REMARK   12  A    between atoms: O_22  and  C_23
REMARK   13  A    between atoms: O_24  and  C_25
REMARK   14  A    between atoms: S_26  and  N_29
REMARK                            x       y       z     vdW  Elec       q    Type
REMARK                         _______ _______ _______ _____ _____    ______ ____
ROOT
ATOM      1  C   UNL     1      -2.590   1.020  -4.057  0.00  0.00    +0.142 A 
ATOM      2  C   UNL     1      -2.951  -0.168  -3.443  0.00  0.00    +0.049 A 
ATOM      3  C   UNL     1      -2.485  -0.461  -2.174  0.00  0.00    +0.032 A 
ATOM      4  C   UNL     1      -1.667   0.435  -1.511  0.00  0.00    +0.107 A 
ATOM      5  C   UNL     1      -1.302   1.622  -2.116  0.00  0.00    +0.055 A 
ATOM      6  C   UNL     1      -1.761   1.920  -3.391  0.00  0.00    +0.078 A 
ENDROOT
BRANCH   6   7
ATOM      7  N   UNL     1      -1.392   3.123  -4.007  0.00  0.00    -0.278 N 
ATOM      8  C   UNL     1      -0.216   3.705  -3.700  0.00  0.00    +0.252 C 
ATOM      9  O   UNL     1       0.494   3.222  -2.838  0.00  0.00    -0.270 OA
ATOM     10  H   UNL     1      -1.984   3.538  -4.654  0.00  0.00    +0.155 HD
BRANCH   8  11
ATOM     11  C   UNL     1       0.209   4.924  -4.408  0.00  0.00    +0.082 A 
ATOM     12  C   UNL     1      -0.603   5.478  -5.403  0.00  0.00    +0.020 A 
ATOM     13  C   UNL     1      -0.206   6.620  -6.060  0.00  0.00    +0.050 A 
ATOM     14  C   UNL     1       1.007   7.223  -5.747  0.00  0.00    +0.165 A 
ATOM     15  C   UNL     1       1.826   6.680  -4.763  0.00  0.00    +0.204 A 
ATOM     16  C   UNL     1       1.433   5.531  -4.091  0.00  0.00    +0.177 A 
BRANCH  16  17
ATOM     17  O   UNL     1       2.230   4.998  -3.130  0.00  0.00    -0.491 OA
ATOM     18  C   UNL     1       2.118   5.547  -1.815  0.00  0.00    +0.277 C 
ENDBRANCH  16  17
BRANCH  15  19
ATOM     19  O   UNL     1       3.013   7.274  -4.460  0.00  0.00    -0.488 OA
ATOM     20  C   UNL     1       4.143   6.907  -5.254  0.00  0.00    +0.277 C 
ENDBRANCH  15  19
BRANCH  14  21
ATOM     21  O   UNL     1       1.394   8.347  -6.404  0.00  0.00    -0.491 OA
ATOM     22  C   UNL     1       0.505   8.852  -7.403  0.00  0.00    +0.277 C 
ENDBRANCH  14  21
ENDBRANCH   8  11
ENDBRANCH   6   7
BRANCH   4  23
ATOM     23  S   UNL     1      -1.082   0.058   0.108  0.00  0.00    +0.061 S 
ATOM     24  O   UNL     1      -1.123  -1.357   0.235  0.00  0.00    -0.153 OA
ATOM     25  O   UNL     1       0.112   0.806   0.293  0.00  0.00    -0.153 OA
BRANCH  23  26
ATOM     26  N   UNL     1      -2.189   0.662   1.181  0.00  0.00    -0.177 NA
ATOM     27  C   UNL     1      -2.060   2.030   1.700  0.00  0.00    +0.109 C 
ATOM     28  C   UNL     1      -3.380   2.775   1.450  0.00  0.00    +0.017 C 
ATOM     29  C   UNL     1      -4.533   1.977   2.063  0.00  0.00    +0.003 C 
ATOM     30  C   UNL     1      -4.620   0.605   1.392  0.00  0.00    +0.017 C 
ATOM     31  C   UNL     1      -3.317  -0.163   1.637  0.00  0.00    +0.109 C 
ENDBRANCH  23  26
ENDBRANCH   4  23
BRANCH   1  32
ATOM     32  O   UNL     1      -3.042   1.306  -5.307  0.00  0.00    -0.488 OA
BRANCH  32  34
ATOM     33  C   UNL     1      -5.258   0.378  -5.569  0.00  0.00    +0.051 C 
ATOM     34  C   UNL     1      -3.786   0.286  -5.977  0.00  0.00    +0.167 C 
ATOM     35  C   UNL     1      -3.664   0.477  -7.490  0.00  0.00    +0.051 C 
ENDBRANCH  32  34
ENDBRANCH   1  32
TORSDOF 9
