REMARK  Name = ZINC36568693
REMARK  18 active torsions:
REMARK  status: ('A' for Active; 'I' for Inactive)
REMARK    1  A    between atoms: C_1  and  C_2
REMARK    2  A    between atoms: C_2  and  C_3
REMARK    3  A    between atoms: C_3  and  N_4
REMARK    4  A    between atoms: N_4  and  C_5
REMARK    5  A    between atoms: C_5  and  C_7
REMARK    6  A    between atoms: C_5  and  C_16
REMARK    7  A    between atoms: C_8  and  O_15
REMARK    8  A    between atoms: C_10  and  O_14
REMARK    9  A    between atoms: C_12  and  O_13
REMARK   10  A    between atoms: N_18  and  C_19
REMARK   11  A    between atoms: C_19  and  C_20
REMARK   12  A    between atoms: C_19  and  C_21
REMARK   13  A    between atoms: C_19  and  C_22
REMARK   14  A    between atoms: C_22  and  C_23
REMARK   15  A    between atoms: C_23  and  C_24
REMARK   16  A    between atoms: C_23  and  C_25
REMARK   17  A    between atoms: C_23  and  C_26
REMARK   18  A    between atoms: C_27  and  C_29
REMARK                            x       y       z     vdW  Elec       q    Type
REMARK                         _______ _______ _______ _____ _____    ______ ____
ROOT
ATOM      1  C   UNL     1       3.508  -2.081   2.116  0.00  0.00    +0.200 C 
ENDROOT
BRANCH   1   2
ATOM      2  C   UNL     1       4.066  -1.970   0.720  0.00  0.00    +0.065 A 
ATOM      3  C   UNL     1       4.504  -0.743   0.245  0.00  0.00    +0.129 A 
ATOM      4  C   UNL     1       5.018  -0.640  -1.039  0.00  0.00    +0.091 A 
ATOM      5  C   UNL     1       5.093  -1.765  -1.848  0.00  0.00    +0.124 A 
ATOM      6  C   UNL     1       4.656  -2.992  -1.372  0.00  0.00    +0.091 A 
ATOM      7  C   UNL     1       4.146  -3.095  -0.086  0.00  0.00    +0.129 A 
BRANCH   7   8
ATOM      8  O   UNL     1       3.722  -4.298   0.382  0.00  0.00    -0.506 OA
ATOM      9  H   UNL     1       2.789  -4.481   0.207  0.00  0.00    +0.292 HD
ENDBRANCH   7   8
BRANCH   5  10
ATOM     10  O   UNL     1       5.595  -1.664  -3.106  0.00  0.00    -0.507 OA
ATOM     11  H   UNL     1       6.551  -1.803  -3.161  0.00  0.00    +0.292 HD
ENDBRANCH   5  10
BRANCH   3  12
ATOM     12  O   UNL     1       4.430   0.359   1.037  0.00  0.00    -0.506 OA
ATOM     13  H   UNL     1       5.249   0.557   1.512  0.00  0.00    +0.292 HD
ENDBRANCH   3  12
ENDBRANCH   1   2
BRANCH   1  14
ATOM     14  C   UNL     1       4.165  -1.055   3.003  0.00  0.00    +0.239 C 
ATOM     15  O   UNL     1       3.590  -0.019   3.260  0.00  0.00    -0.273 OA
ATOM     16  N   UNL     1       5.391  -1.289   3.511  0.00  0.00    -0.308 N 
ATOM     17  H   UNL     1       5.851  -2.118   3.305  0.00  0.00    +0.149 HD
BRANCH  16  18
ATOM     18  C   UNL     1       6.030  -0.292   4.373  0.00  0.00    +0.030 C 
ATOM     19  C   UNL     1       6.308   0.977   3.565  0.00  0.00    +0.031 C 
ATOM     20  C   UNL     1       5.101   0.041   5.542  0.00  0.00    +0.031 C 
BRANCH  18  21
ATOM     21  C   UNL     1       7.348  -0.852   4.912  0.00  0.00    +0.031 C 
BRANCH  21  22
ATOM     22  C   UNL     1       7.140  -2.300   5.361  0.00  0.00    -0.036 C 
ATOM     23  C   UNL     1       7.134  -3.218   4.137  0.00  0.00    +0.010 C 
ATOM     24  C   UNL     1       8.276  -2.711   6.300  0.00  0.00    +0.010 C 
ATOM     25  C   UNL     1       5.803  -2.420   6.096  0.00  0.00    +0.010 C 
ENDBRANCH  21  22
ENDBRANCH  18  21
ENDBRANCH  16  18
ENDBRANCH   1  14
BRANCH   1  26
ATOM     26  N   UNL     1       2.063  -1.845   2.084  0.00  0.00    -0.279 N 
ATOM     27  C   UNL     1       1.220  -2.751   2.619  0.00  0.00    +0.283 C 
ATOM     28  O   UNL     1       0.045  -2.473   2.773  0.00  0.00    -0.267 OA
BRANCH  27  29
ATOM     29  C   UNL     1       1.719  -4.072   3.017  0.00  0.00    +0.189 A 
ATOM     30  C   UNL     1       1.056  -4.981   3.789  0.00  0.00    +0.054 A 
ATOM     31  C   UNL     1       1.899  -6.096   3.914  0.00  0.00    +0.042 A 
ATOM     32  C   UNL     1       3.026  -5.822   3.221  0.00  0.00    +0.196 A 
ATOM     33  O   UNL     1       2.912  -4.603   2.678  0.00  0.00    -0.458 OA
ENDBRANCH  27  29
BRANCH  26  34
ATOM     34  C   UNL     1       1.533  -0.625   1.471  0.00  0.00    +0.109 C 
BRANCH  34  36
ATOM     35  C   UNL     1       0.672   0.384  -0.647  0.00  0.00    +0.005 C 
ATOM     36  C   UNL     1       1.288  -0.869  -0.020  0.00  0.00    +0.016 C 
ENDBRANCH  34  36
ENDBRANCH  26  34
ENDBRANCH   1  26
TORSDOF 12
