REMARK  Name = ZINC33059082
REMARK  10 active torsions:
REMARK  status: ('A' for Active; 'I' for Inactive)
REMARK    1  A    between atoms: C_1  and  C_2
REMARK    2  A    between atoms: C_5  and  C_8
REMARK    3  A    between atoms: C_9  and  C_10
REMARK    4  A    between atoms: C_11  and  S_16
REMARK    5  A    between atoms: C_12  and  C_15
REMARK    6  A    between atoms: S_16  and  N_19
REMARK    7  A    between atoms: C_23  and  C_26
REMARK    8  A    between atoms: N_28  and  C_29
REMARK    9  A    between atoms: C_29  and  C_30
REMARK   10  A    between atoms: C_30  and  C_31
REMARK                            x       y       z     vdW  Elec       q    Type
REMARK                         _______ _______ _______ _____ _____    ______ ____
ROOT
ATOM      1  S   UNL     1      -2.550   4.687   0.052  0.00  0.00    +0.066 S 
ATOM      2  O   UNL     1      -2.486   5.363   1.300  0.00  0.00    -0.153 OA
ATOM      3  O   UNL     1      -2.510   5.376  -1.190  0.00  0.00    -0.153 OA
ENDROOT
BRANCH   1   5
ATOM      4  C   UNL     1      -4.751   3.297   1.148  0.00  0.00    +0.187 A 
ATOM      5  C   UNL     1      -4.044   3.752   0.062  0.00  0.00    +0.174 A 
ATOM      6  C   UNL     1      -4.794   3.302  -1.042  0.00  0.00    +0.107 A 
ATOM      7  N   UNL     1      -5.814   2.651  -0.560  0.00  0.00    -0.081 NA
ATOM      8  O   UNL     1      -5.814   2.637   0.649  0.00  0.00    -0.353 OA
ATOM      9  C   UNL     1      -4.476   3.528  -2.498  0.00  0.00    +0.071 C 
BRANCH   4  11
ATOM     10  C   UNL     1      -5.215   2.979   3.518  0.00  0.00    +0.011 C 
ATOM     11  C   UNL     1      -4.417   3.490   2.562  0.00  0.00    +0.051 C 
BRANCH  10  16
ATOM     12  C   UNL     1      -3.904   3.736   9.065  0.00  0.00    +0.044 C 
ATOM     13  C   UNL     1      -4.248   3.537   7.611  0.00  0.00    -0.050 A 
ATOM     14  C   UNL     1      -5.385   2.829   7.263  0.00  0.00    +0.004 A 
ATOM     15  C   UNL     1      -5.706   2.644   5.935  0.00  0.00    +0.008 A 
ATOM     16  C   UNL     1      -4.880   3.172   4.939  0.00  0.00    -0.025 A 
ATOM     17  C   UNL     1      -3.729   3.881   5.298  0.00  0.00    +0.008 A 
ATOM     18  C   UNL     1      -3.425   4.063   6.631  0.00  0.00    +0.004 A 
ENDBRANCH  10  16
ENDBRANCH   4  11
ENDBRANCH   1   5
BRANCH   1  19
ATOM     19  N   UNL     1      -1.296   3.606   0.034  0.00  0.00    -0.176 NA
ATOM     20  C   UNL     1      -0.717   3.111   1.290  0.00  0.00    +0.109 C 
ATOM     21  C   UNL     1      -0.729   1.579   1.268  0.00  0.00    +0.018 C 
ATOM     22  C   UNL     1      -0.013   1.086   0.008  0.00  0.00    +0.015 C 
ATOM     23  C   UNL     1      -0.752   1.593  -1.232  0.00  0.00    +0.091 C 
ATOM     24  C   UNL     1      -0.741   3.124  -1.238  0.00  0.00    +0.122 C 
BRANCH  23  25
ATOM     25  C   UNL     1      -0.066   1.080  -2.472  0.00  0.00    +0.217 C 
ATOM     26  O   UNL     1       0.385   1.861  -3.282  0.00  0.00    -0.275 OA
ATOM     27  N   UNL     1       0.047  -0.247  -2.680  0.00  0.00    -0.315 N 
ATOM     28  H   UNL     1      -0.363  -0.956  -1.945  0.00  0.00    +0.149 HD
BRANCH  27  29
ATOM     29  C   UNL     1       0.714  -0.746  -3.885  0.00  0.00    +0.108 C 
BRANCH  29  30
ATOM     30  C   UNL     1       0.706  -2.276  -3.876  0.00  0.00    +0.049 C 
BRANCH  30  31
ATOM     31  C   UNL     1       1.393  -2.789  -5.116  0.00  0.00    -0.072 C 
ATOM     32  C   UNL     1       2.648  -3.091  -5.033  0.00  0.00    -0.028 C 
ATOM     33  C   UNL     1       3.467  -3.603  -6.181  0.00  0.00    +0.027 C 
ATOM     34  C   UNL     1       2.551  -4.110  -7.297  0.00  0.00    +0.004 C 
ATOM     35  C   UNL     1       1.498  -3.034  -7.587  0.00  0.00    +0.005 C 
ATOM     36  C   UNL     1       0.576  -2.923  -6.368  0.00  0.00    +0.030 C 
ENDBRANCH  30  31
ENDBRANCH  29  30
ENDBRANCH  27  29
ENDBRANCH  23  25
ENDBRANCH   1  19
TORSDOF 8
