REMARK  Name = ZINC40096445
REMARK  9 active torsions:
REMARK  status: ('A' for Active; 'I' for Inactive)
REMARK    1  A    between atoms: C_5  and  C_7
REMARK    2  A    between atoms: C_9  and  C_21
REMARK    3  A    between atoms: N_13  and  C_14
REMARK    4  A    between atoms: C_14  and  C_15
REMARK    5  A    between atoms: C_15  and  O_16
REMARK    6  A    between atoms: O_16  and  C_17
REMARK    7  A    between atoms: C_17  and  C_18
REMARK    8  A    between atoms: C_18  and  O_19
REMARK    9  A    between atoms: C_21  and  C_23
REMARK                            x       y       z     vdW  Elec       q    Type
REMARK                         _______ _______ _______ _____ _____    ______ ____
ROOT
ATOM      1  C   UNL     1       1.183  -2.142   0.012  0.00  0.00    +0.146 C 
ATOM      2  C   UNL     1       1.435  -2.715   1.387  0.00  0.00    +0.076 C 
ATOM      3  C   UNL     1       0.377  -3.507   1.680  0.00  0.00    +0.249 C 
ATOM      4  C   UNL     1      -0.574  -3.485   0.549  0.00  0.00    +0.288 C 
ATOM      5  O   UNL     1      -1.624  -4.095   0.508  0.00  0.00    -0.266 OA
ATOM      6  N   UNL     1      -0.106  -2.687  -0.430  0.00  0.00    -0.281 N 
ATOM      7  O   UNL     1       0.216  -4.208   2.826  0.00  0.00    -0.282 OA
ENDROOT
BRANCH   1  12
ATOM      8  C   UNL     1      -0.162   1.367   0.375  0.00  0.00    +0.000 A 
ATOM      9  C   UNL     1       0.984   2.121   0.210  0.00  0.00    +0.001 A 
ATOM     10  C   UNL     1       2.196   1.496  -0.019  0.00  0.00    +0.015 A 
ATOM     11  C   UNL     1       2.260   0.116  -0.084  0.00  0.00    +0.023 A 
ATOM     12  C   UNL     1       1.113  -0.638   0.082  0.00  0.00    -0.008 A 
ATOM     13  C   UNL     1      -0.098  -0.013   0.312  0.00  0.00    +0.007 A 
ATOM     14 BR   UNL     1       3.917  -0.740  -0.398  0.00  0.00    -0.050 Br
ENDBRANCH   1  12
BRANCH   2  15
ATOM     15  C   UNL     1       2.600  -2.463   2.240  0.00  0.00    +0.195 C 
ATOM     16  O   UNL     1       2.695  -1.411   2.846  0.00  0.00    -0.287 OA
BRANCH  15  17
ATOM     17  C   UNL     1       3.659  -3.483   2.364  0.00  0.00    +0.026 A 
ATOM     18  C   UNL     1       3.614  -4.639   1.579  0.00  0.00    +0.015 A 
ATOM     19  C   UNL     1       4.603  -5.590   1.698  0.00  0.00    +0.050 A 
ATOM     20  C   UNL     1       5.648  -5.406   2.596  0.00  0.00    +0.162 A 
ATOM     21  C   UNL     1       5.700  -4.255   3.380  0.00  0.00    +0.163 A 
ATOM     22  C   UNL     1       4.713  -3.295   3.263  0.00  0.00    +0.061 A 
ATOM     23  O   UNL     1       6.721  -4.057   4.259  0.00  0.00    -0.485 OA
ATOM     24  C   UNL     1       7.496  -5.207   4.615  0.00  0.00    +0.270 C 
ATOM     25  C   UNL     1       7.837  -5.973   3.329  0.00  0.00    +0.270 C 
ATOM     26  O   UNL     1       6.611  -6.360   2.700  0.00  0.00    -0.485 OA
ENDBRANCH  15  17
ENDBRANCH   2  15
BRANCH   6  27
ATOM     27  C   UNL     1      -0.765  -2.412  -1.709  0.00  0.00    +0.137 C 
BRANCH  27  28
ATOM     28  C   UNL     1      -0.315  -3.442  -2.747  0.00  0.00    +0.179 C 
BRANCH  28  29
ATOM     29  O   UNL     1      -0.770  -4.739  -2.359  0.00  0.00    -0.376 OA
BRANCH  29  30
ATOM     30  C   UNL     1      -0.401  -5.780  -3.266  0.00  0.00    +0.187 C 
BRANCH  30  31
ATOM     31  C   UNL     1      -0.938  -7.118  -2.754  0.00  0.00    +0.184 C 
BRANCH  31  32
ATOM     32  O   UNL     1      -2.367  -7.094  -2.767  0.00  0.00    -0.393 OA
ATOM     33  H   UNL     1      -2.776  -7.912  -2.454  0.00  0.00    +0.209 HD
ENDBRANCH  31  32
ENDBRANCH  30  31
ENDBRANCH  29  30
ENDBRANCH  28  29
ENDBRANCH  27  28
ENDBRANCH   6  27
TORSDOF 9
