REMARK  Name = ZINC49507456
REMARK  9 active torsions:
REMARK  status: ('A' for Active; 'I' for Inactive)
REMARK    1  A    between atoms: C_1  and  C_2
REMARK    2  A    between atoms: C_2  and  C_3
REMARK    3  A    between atoms: C_3  and  N_4
REMARK    4  A    between atoms: C_8  and  N_18
REMARK    5  A    between atoms: C_13  and  C_16
REMARK    6  A    between atoms: C_13  and  C_17
REMARK    7  A    between atoms: C_19  and  C_21
REMARK    8  A    between atoms: C_26  and  O_27
REMARK    9  A    between atoms: O_27  and  C_28
REMARK                            x       y       z     vdW  Elec       q    Type
REMARK                         _______ _______ _______ _____ _____    ______ ____
ROOT
ATOM      1  N   UNL     1       2.655  -1.804  -2.450  0.00  0.00    -0.268 N 
ATOM      2  C   UNL     1       3.424  -2.806  -1.839  0.00  0.00    +0.078 A 
ATOM      3  C   UNL     1       3.693  -2.758  -0.481  0.00  0.00    +0.029 A 
ATOM      4  C   UNL     1       4.455  -3.750   0.107  0.00  0.00    +0.025 A 
ATOM      5  C   UNL     1       4.951  -4.795  -0.662  0.00  0.00    +0.037 A 
ATOM      6  C   UNL     1       4.681  -4.847  -2.023  0.00  0.00    +0.070 A 
ATOM      7  C   UNL     1       3.916  -3.856  -2.613  0.00  0.00    +0.144 A 
ATOM      8  O   UNL     1       3.635  -3.904  -3.942  0.00  0.00    -0.489 OA
ATOM      9  C   UNL     1       2.317  -4.301  -4.314  0.00  0.00    +0.244 C 
ATOM     10  C   UNL     1       1.282  -3.612  -3.429  0.00  0.00    +0.076 C 
ATOM     11  C   UNL     1       1.628  -2.156  -3.256  0.00  0.00    +0.229 C 
ATOM     12  O   UNL     1       0.992  -1.304  -3.839  0.00  0.00    -0.275 OA
ATOM     13  C   UNL     1      -0.099  -3.730  -4.077  0.00  0.00    +0.024 C 
ATOM     14  C   UNL     1       1.254  -4.290  -2.057  0.00  0.00    +0.024 C 
ENDROOT
BRANCH   5  15
ATOM     15  N   UNL     1       5.723  -5.797  -0.063  0.00  0.00    -0.281 N 
ATOM     16  C   UNL     1       6.506  -5.503   0.994  0.00  0.00    +0.252 C 
ATOM     17  O   UNL     1       6.431  -4.410   1.521  0.00  0.00    -0.270 OA
ATOM     18  H   UNL     1       5.696  -6.703  -0.409  0.00  0.00    +0.155 HD
BRANCH  16  19
ATOM     19  C   UNL     1       7.454  -6.508   1.511  0.00  0.00    +0.079 A 
ATOM     20  C   UNL     1       7.548  -7.764   0.905  0.00  0.00    +0.017 A 
ATOM     21  C   UNL     1       8.435  -8.698   1.394  0.00  0.00    +0.001 A 
ATOM     22  C   UNL     1       9.236  -8.399   2.484  0.00  0.00    +0.004 A 
ATOM     23  C   UNL     1       9.153  -7.162   3.093  0.00  0.00    +0.047 A 
ATOM     24  C   UNL     1       8.270  -6.207   2.611  0.00  0.00    +0.141 A 
BRANCH  24  25
ATOM     25  O   UNL     1       8.193  -4.990   3.204  0.00  0.00    -0.455 OA
BRANCH  25  26
ATOM     26  C   UNL     1       8.966  -4.763   4.298  0.00  0.00    +0.128 A 
ATOM     27  C   UNL     1      10.292  -4.386   4.145  0.00  0.00    +0.046 A 
ATOM     28  C   UNL     1      11.076  -4.155   5.259  0.00  0.00    +0.004 A 
ATOM     29  C   UNL     1      10.540  -4.301   6.526  0.00  0.00    +0.000 A 
ATOM     30  C   UNL     1       9.218  -4.678   6.680  0.00  0.00    +0.004 A 
ATOM     31  C   UNL     1       8.428  -4.902   5.570  0.00  0.00    +0.046 A 
ENDBRANCH  25  26
ENDBRANCH  24  25
ENDBRANCH  16  19
ENDBRANCH   5  15
BRANCH   1  32
ATOM     32  C   UNL     1       2.958  -0.390  -2.212  0.00  0.00    +0.113 C 
BRANCH  32  34
ATOM     33  C   UNL     1       2.489   1.578  -0.747  0.00  0.00    +0.005 C 
ATOM     34  C   UNL     1       2.173   0.102  -0.995  0.00  0.00    +0.016 C 
ENDBRANCH  32  34
ENDBRANCH   1  32
TORSDOF 6
