REMARK  Name = ZINC12902051
REMARK  5 active torsions:
REMARK  status: ('A' for Active; 'I' for Inactive)
REMARK    1  A    between atoms: C_1  and  C_2
REMARK    2  A    between atoms: C_13  and  C_15
REMARK    3  A    between atoms: C_15  and  C_16
REMARK    4  A    between atoms: C_23  and  O_26
REMARK    5  A    between atoms: N_29  and  C_32
REMARK                            x       y       z     vdW  Elec       q    Type
REMARK                         _______ _______ _______ _____ _____    ______ ____
ROOT
ATOM      1  C   UNL     1       5.885  -1.242   2.701  0.00  0.00    +0.044 C 
ATOM      2  C   UNL     1       5.498  -2.656   2.351  0.00  0.00    -0.050 A 
ATOM      3  C   UNL     1       6.438  -3.667   2.413  0.00  0.00    +0.005 A 
ATOM      4  C   UNL     1       6.089  -4.963   2.094  0.00  0.00    +0.024 A 
ATOM      5  C   UNL     1       4.785  -5.262   1.706  0.00  0.00    +0.036 A 
ATOM      6  C   UNL     1       3.847  -4.236   1.647  0.00  0.00    -0.027 A 
ATOM      7  C   UNL     1       4.200  -2.944   1.966  0.00  0.00    +0.008 A 
ATOM      8  C   UNL     1       2.564  -4.878   1.204  0.00  0.00    +0.050 C 
ATOM      9  C   UNL     1       2.046  -4.264  -0.103  0.00  0.00    +0.088 C 
ATOM     10  C   UNL     1       0.498  -4.289   0.042  0.00  0.00    +0.074 C 
ATOM     11  C   UNL     1       0.238  -4.923   1.425  0.00  0.00    -0.053 C 
ATOM     12  C   UNL     1       0.129  -2.824   0.090  0.00  0.00    +0.228 C 
ATOM     13  O   UNL     1      -0.997  -2.389   0.209  0.00  0.00    -0.275 OA
ATOM     14  N   UNL     1       1.237  -2.082  -0.020  0.00  0.00    -0.210 N 
ATOM     15  C   UNL     1       2.368  -2.787  -0.133  0.00  0.00    +0.229 C 
ATOM     16  O   UNL     1       3.479  -2.315  -0.242  0.00  0.00    -0.275 OA
ATOM     17  C   UNL     1       2.894  -6.335   1.032  0.00  0.00    +0.211 C 
ATOM     18  O   UNL     1       2.134  -7.214   0.682  0.00  0.00    -0.277 OA
ATOM     19  N   UNL     1       4.197  -6.475   1.340  0.00  0.00    -0.286 N 
ATOM     20  H   UNL     1       4.673  -7.320   1.312  0.00  0.00    +0.155 HD
ATOM     21  N   UNL     1       1.485  -4.693   2.159  0.00  0.00    +0.394 N 
ATOM     22  H   UNL     1       1.504  -3.739   2.536  0.00  0.00    -0.083 HD
ATOM     23  H   UNL     1       1.573  -5.367   2.928  0.00  0.00    -0.083 HD
ENDROOT
BRANCH  14  24
ATOM     24  C   UNL     1       1.214  -0.680  -0.013  0.00  0.00    +0.044 A 
ATOM     25  C   UNL     1       1.556   0.027  -1.158  0.00  0.00    +0.024 A 
ATOM     26  C   UNL     1       1.532   1.408  -1.148  0.00  0.00    +0.002 A 
ATOM     27  C   UNL     1       1.170   2.086   0.001  0.00  0.00    +0.000 A 
ATOM     28  C   UNL     1       0.829   1.385   1.143  0.00  0.00    +0.002 A 
ATOM     29  C   UNL     1       0.851   0.004   1.139  0.00  0.00    +0.024 A 
ENDBRANCH  14  24
BRANCH  11  30
ATOM     30  C   UNL     1      -0.947  -4.238   2.109  0.00  0.00    +0.022 C 
BRANCH  30  31
ATOM     31  C   UNL     1      -1.212  -4.902   3.436  0.00  0.00    -0.024 A 
ATOM     32  C   UNL     1      -2.102  -5.878   3.676  0.00  0.00    +0.087 A 
ATOM     33  N   UNL     1      -2.060  -6.233   4.997  0.00  0.00    -0.360 N 
ATOM     34  H   UNL     1      -2.609  -6.919   5.407  0.00  0.00    +0.165 HD
ATOM     35  C   UNL     1      -1.123  -5.466   5.658  0.00  0.00    +0.047 A 
ATOM     36  C   UNL     1      -0.552  -4.600   4.708  0.00  0.00    +0.006 A 
ATOM     37  C   UNL     1       0.439  -3.696   5.096  0.00  0.00    +0.055 A 
ATOM     38  C   UNL     1       0.852  -3.660   6.412  0.00  0.00    +0.118 A 
ATOM     39  C   UNL     1       0.285  -4.519   7.350  0.00  0.00    +0.047 A 
ATOM     40  C   UNL     1      -0.693  -5.414   6.979  0.00  0.00    +0.030 A 
BRANCH  38  41
ATOM     41  O   UNL     1       1.817  -2.781   6.795  0.00  0.00    -0.507 OA
ATOM     42  H   UNL     1       2.716  -3.131   6.728  0.00  0.00    +0.292 HD
ENDBRANCH  38  41
ENDBRANCH  30  31
ENDBRANCH  11  30
TORSDOF 4
