REMARK  Name = ZINC57352262
REMARK  1 active torsions:
REMARK  status: ('A' for Active; 'I' for Inactive)
REMARK    1  A    between atoms: C_4  and  C_7
REMARK                            x       y       z     vdW  Elec       q    Type
REMARK                         _______ _______ _______ _____ _____    ______ ____
ROOT
ATOM      1  C   UNL     1       3.698  -0.688  -0.038  0.00  0.00    +0.026 A 
ATOM      2  C   UNL     1       4.743  -0.462  -0.880  0.00  0.00    +0.093 A 
ATOM      3  N   UNL     1       5.755  -1.325  -0.586  0.00  0.00    -0.356 N 
ATOM      4  H   UNL     1       6.607  -1.360  -1.048  0.00  0.00    +0.166 HD
ATOM      5  C   UNL     1       5.392  -2.135   0.456  0.00  0.00    +0.111 A 
ATOM      6  C   UNL     1       4.105  -1.779   0.852  0.00  0.00    +0.101 A 
ATOM      7  N   UNL     1       3.508  -2.430   1.879  0.00  0.00    -0.234 NA
ATOM      8  C   UNL     1       4.091  -3.388   2.528  0.00  0.00    +0.210 A 
ATOM      9  N   UNL     1       5.357  -3.818   2.227  0.00  0.00    -0.232 N 
ATOM     10  C   UNL     1       6.053  -3.221   1.184  0.00  0.00    +0.188 A 
ATOM     11  N   UNL     1       7.224  -3.791   1.083  0.00  0.00    -0.149 NA
ATOM     12  N   UNL     1       7.302  -4.791   2.063  0.00  0.00    -0.226 N 
ATOM     13  H   UNL     1       8.057  -5.378   2.223  0.00  0.00    +0.194 HD
ATOM     14  C   UNL     1       6.144  -4.775   2.756  0.00  0.00    +0.350 A 
ATOM     15  O   UNL     1       5.854  -5.508   3.686  0.00  0.00    -0.245 OA
ENDROOT
BRANCH   1  19
ATOM     16  C   UNL     1      -0.017   1.379   0.010  0.00  0.00    +0.000 A 
ATOM     17  C   UNL     1       1.169   2.092   0.002  0.00  0.00    +0.001 A 
ATOM     18  C   UNL     1       2.377   1.427  -0.013  0.00  0.00    +0.008 A 
ATOM     19  C   UNL     1       2.402   0.033  -0.021  0.00  0.00    -0.014 A 
ATOM     20  C   UNL     1       1.205  -0.680  -0.013  0.00  0.00    +0.008 A 
ATOM     21  C   UNL     1       0.002  -0.004   0.002  0.00  0.00    +0.001 A 
ENDBRANCH   1  19
TORSDOF 1
