REMARK  Name = ZINC35664175
REMARK  11 active torsions:
REMARK  status: ('A' for Active; 'I' for Inactive)
REMARK    1  A    between atoms: C_1  and  C_2
REMARK    2  A    between atoms: C_2  and  N_3
REMARK    3  A    between atoms: C_4  and  C_23
REMARK    4  A    between atoms: C_5  and  C_18
REMARK    5  A    between atoms: C_6  and  C_11
REMARK    6  A    between atoms: C_15  and  C_17
REMARK    7  A    between atoms: C_18  and  O_20
REMARK    8  A    between atoms: O_20  and  C_21
REMARK    9  A    between atoms: C_21  and  C_22
REMARK   10  A    between atoms: C_23  and  N_24
REMARK   11  A    between atoms: C_31  and  C_33
REMARK                            x       y       z     vdW  Elec       q    Type
REMARK                         _______ _______ _______ _____ _____    ______ ____
ROOT
ATOM      1  N   UNL     1       0.617  -0.611  -1.908  0.00  0.00    -0.261 N 
ATOM      2  C   UNL     1      -0.212  -1.322  -2.729  0.00  0.00    +0.010 C 
ATOM      3  C   UNL     1       0.284  -2.154  -3.670  0.00  0.00    +0.076 C 
ATOM      4  C   UNL     1       1.791  -2.272  -3.783  0.00  0.00    +0.143 C 
ATOM      5  N   UNL     1       2.595  -1.463  -2.852  0.00  0.00    -0.288 N 
ATOM      6  C   UNL     1       1.953  -0.673  -1.968  0.00  0.00    +0.307 C 
ATOM      7  O   UNL     1       2.608   0.001  -1.198  0.00  0.00    -0.252 OA
ATOM      8  H   UNL     1       3.564  -1.496  -2.876  0.00  0.00    +0.151 HD
ENDROOT
BRANCH   4   9
ATOM      9  C   UNL     1       2.182  -1.889  -5.187  0.00  0.00    -0.022 A 
ATOM     10  C   UNL     1       2.281  -0.555  -5.538  0.00  0.00    +0.006 A 
ATOM     11  C   UNL     1       2.640  -0.203  -6.825  0.00  0.00    +0.001 A 
ATOM     12  C   UNL     1       2.901  -1.186  -7.763  0.00  0.00    +0.003 A 
ATOM     13  C   UNL     1       2.803  -2.519  -7.412  0.00  0.00    -0.050 A 
ATOM     14  C   UNL     1       2.448  -2.870  -6.123  0.00  0.00    +0.009 A 
ATOM     15  C   UNL     1       3.087  -3.590  -8.434  0.00  0.00    +0.044 C 
ENDBRANCH   4   9
BRANCH   1  17
ATOM     16  C   UNL     1      -0.328   1.617  -1.558  0.00  0.00    +0.025 C 
ATOM     17  C   UNL     1       0.010   0.273  -0.910  0.00  0.00    +0.111 C 
ENDBRANCH   1  17
BRANCH   3  18
ATOM     18  C   UNL     1      -0.573  -2.891  -4.520  0.00  0.00    +0.339 C 
ATOM     19  O   UNL     1      -1.776  -2.713  -4.473  0.00  0.00    -0.245 OA
BRANCH  18  20
ATOM     20  O   UNL     1      -0.057  -3.791  -5.382  0.00  0.00    -0.462 OA
BRANCH  20  21
ATOM     21  C   UNL     1      -0.981  -4.500  -6.211  0.00  0.00    +0.229 C 
ATOM     22  C   UNL     1      -0.216  -5.468  -7.115  0.00  0.00    +0.048 C 
ENDBRANCH  20  21
ENDBRANCH  18  20
ENDBRANCH   3  18
BRANCH   2  23
ATOM     23  C   UNL     1      -1.704  -1.175  -2.582  0.00  0.00    -0.026 C 
BRANCH  23  24
ATOM     24  N   UNL     1      -2.241  -2.330  -1.851  0.00  0.00    +0.384 N 
ATOM     25  C   UNL     1      -3.697  -2.312  -1.963  0.00  0.00    -0.077 C 
ATOM     26  C   UNL     1      -4.221  -3.729  -1.897  0.00  0.00    +0.000 C 
ATOM     27  C   UNL     1      -4.591  -4.072  -0.443  0.00  0.00    +0.106 C 
ATOM     28  N   UNL     1      -3.600  -3.517   0.502  0.00  0.00    -0.299 N 
ATOM     29  C   UNL     1      -2.175  -3.558   0.243  0.00  0.00    +0.089 C 
ATOM     30  C   UNL     1      -1.745  -2.289  -0.528  0.00  0.00    -0.059 C 
ATOM     31  C   UNL     1      -4.037  -2.953   1.645  0.00  0.00    +0.249 C 
ATOM     32  O   UNL     1      -3.248  -2.418   2.399  0.00  0.00    -0.270 OA
ATOM     33  H   UNL     1      -1.900  -3.171  -2.292  0.00  0.00    -0.081 HD
BRANCH  31  34
ATOM     34  C   UNL     1      -5.475  -2.984   1.981  0.00  0.00    +0.072 A 
ATOM     35  C   UNL     1      -6.151  -4.203   2.061  0.00  0.00    +0.016 A 
ATOM     36  C   UNL     1      -7.493  -4.226   2.375  0.00  0.00    +0.001 A 
ATOM     37  C   UNL     1      -8.172  -3.043   2.613  0.00  0.00    +0.003 A 
ATOM     38  C   UNL     1      -7.512  -1.831   2.537  0.00  0.00    +0.039 A 
ATOM     39  C   UNL     1      -6.165  -1.793   2.228  0.00  0.00    +0.135 A 
ATOM     40  F   UNL     1      -5.518  -0.609   2.159  0.00  0.00    -0.205 F 
ENDBRANCH  31  34
ENDBRANCH  23  24
ENDBRANCH   2  23
TORSDOF 8
