REMARK  Name = ZINC09347415
REMARK  11 active torsions:
REMARK  status: ('A' for Active; 'I' for Inactive)
REMARK    1  A    between atoms: C_1  and  C_2
REMARK    2  A    between atoms: C_2  and  O_3
REMARK    3  A    between atoms: O_3  and  C_4
REMARK    4  A    between atoms: C_4  and  C_6
REMARK    5  A    between atoms: C_10  and  N_11
REMARK    6  A    between atoms: C_12  and  C_14
REMARK    7  A    between atoms: C_18  and  S_20
REMARK    8  A    between atoms: S_20  and  C_23
REMARK    9  A    between atoms: C_23  and  C_24
REMARK   10  A    between atoms: C_28  and  C_29
REMARK   11  A    between atoms: C_28  and  N_63
REMARK                            x       y       z     vdW  Elec       q    Type
REMARK                         _______ _______ _______ _____ _____    ______ ____
ROOT
ATOM      1  C   UNL     1       1.829   3.369  -0.357  0.00  0.00    +0.091 A 
ATOM      2  C   UNL     1       1.423   2.022  -0.001  0.00  0.00    -0.025 A 
ATOM      3  C   UNL     1       2.430   1.185   0.337  0.00  0.00    -0.021 A 
ATOM      4  S   UNL     1       3.898   2.160   0.185  0.00  0.00    -0.079 S 
ATOM      5  C   UNL     1       3.188   3.659  -0.319  0.00  0.00    +0.086 A 
ATOM      6  C   UNL     1       2.295  -0.248   0.747  0.00  0.00    -0.035 C 
ATOM      7  C   UNL     1       0.002  -0.004   0.002  0.00  0.00    -0.073 C 
ATOM      8  C   UNL     1      -0.019   1.527   0.010  0.00  0.00    +0.018 C 
ATOM      9  N   UNL     1       0.873  -0.489   1.093  0.00  0.00    +0.386 N 
ATOM     10  H   UNL     1       0.647   0.024   1.953  0.00  0.00    -0.081 HD
ENDROOT
BRANCH   5  11
ATOM     11  N   UNL     1       3.821   4.855  -0.612  0.00  0.00    -0.275 N 
ATOM     12  C   UNL     1       5.162   4.949  -0.517  0.00  0.00    +0.249 C 
ATOM     13  O   UNL     1       5.816   3.983  -0.174  0.00  0.00    -0.270 OA
ATOM     14  H   UNL     1       3.299   5.626  -0.886  0.00  0.00    +0.156 HD
BRANCH  12  15
ATOM     15  C   UNL     1       5.837   6.226  -0.830  0.00  0.00    +0.039 A 
ATOM     16  C   UNL     1       5.089   7.337  -1.224  0.00  0.00    +0.013 A 
ATOM     17  C   UNL     1       5.726   8.525  -1.515  0.00  0.00    +0.003 A 
ATOM     18  C   UNL     1       7.103   8.618  -1.416  0.00  0.00    +0.027 A 
ATOM     19  C   UNL     1       7.851   7.521  -1.026  0.00  0.00    +0.089 A 
ATOM     20  C   UNL     1       7.226   6.328  -0.727  0.00  0.00    +0.040 A 
BRANCH  19  21
ATOM     21  S   UNL     1       9.603   7.650  -0.903  0.00  0.00    -0.003 S 
ATOM     22  O   UNL     1      10.080   6.326  -1.102  0.00  0.00    -0.169 OA
ATOM     23  O   UNL     1       9.954   8.690  -1.806  0.00  0.00    -0.169 OA
BRANCH  21  24
ATOM     24  C   UNL     1       9.913   8.175   0.805  0.00  0.00    +0.168 C 
ATOM     25  C   UNL     1      11.420   8.322   1.029  0.00  0.00    +0.028 C 
ENDBRANCH  21  24
ENDBRANCH  19  21
ENDBRANCH  12  15
ENDBRANCH   5  11
BRANCH   1  26
ATOM     26  C   UNL     1       0.845   4.383  -0.743  0.00  0.00    +0.342 C 
ATOM     27  O   UNL     1       0.345   5.098   0.104  0.00  0.00    -0.245 OA
BRANCH  26  28
ATOM     28  O   UNL     1       0.493   4.523  -2.037  0.00  0.00    -0.461 OA
BRANCH  28  30
ATOM     29  C   UNL     1      -0.758   5.558  -3.852  0.00  0.00    +0.048 C 
ATOM     30  C   UNL     1      -0.487   5.548  -2.346  0.00  0.00    +0.229 C 
ENDBRANCH  28  30
ENDBRANCH  26  28
ENDBRANCH   1  26
BRANCH   9  31
ATOM     31  C   UNL     1       0.644  -1.932   1.319  0.00  0.00    -0.043 C 
BRANCH  31  32
ATOM     32  C   UNL     1       1.372  -2.350   2.571  0.00  0.00    -0.064 A 
ATOM     33  C   UNL     1       2.670  -2.819   2.492  0.00  0.00    +0.002 A 
ATOM     34  C   UNL     1       3.339  -3.197   3.641  0.00  0.00    +0.000 A 
ATOM     35  C   UNL     1       2.707  -3.117   4.868  0.00  0.00    +0.000 A 
ATOM     36  C   UNL     1       1.407  -2.654   4.946  0.00  0.00    +0.000 A 
ATOM     37  C   UNL     1       0.739  -2.270   3.798  0.00  0.00    +0.002 A 
ENDBRANCH  31  32
ENDBRANCH   9  31
TORSDOF 9
