REMARK  Name = ZINC00377240
REMARK  3 active torsions:
REMARK  status: ('A' for Active; 'I' for Inactive)
REMARK    1  A    between atoms: C_1  and  C_2
REMARK    2  A    between atoms: C_5  and  C_16
REMARK    3  A    between atoms: C_9  and  C_12
REMARK                            x       y       z     vdW  Elec       q    Type
REMARK                         _______ _______ _______ _____ _____    ______ ____
ROOT
ATOM      1  C   UNL     1      -0.019   1.526   0.010  0.00  0.00    +0.028 C 
ATOM      2  C   UNL     1       0.002  -0.004   0.002  0.00  0.00    +0.071 C 
ATOM      3  C   UNL     1       0.728  -0.503  -1.253  0.00  0.00    +0.058 C 
ATOM      4  C   UNL     1       0.705  -2.035  -1.292  0.00  0.00    +0.214 C 
ATOM      5  N   UNL     1       1.147  -2.548   0.009  0.00  0.00    -0.238 N 
ATOM      6  C   UNL     1       1.150  -1.812   1.145  0.00  0.00    +0.132 A 
ATOM      7  C   UNL     1       1.630  -2.617   2.164  0.00  0.00    +0.122 A 
ATOM      8  C   UNL     1       1.916  -3.881   1.584  0.00  0.00    +0.151 A 
ATOM      9  N   UNL     1       1.625  -3.822   0.313  0.00  0.00    -0.177 NA
ATOM     10  N   UNL     1       0.724  -0.497   1.192  0.00  0.00    -0.326 N 
ATOM     11  H   UNL     1       0.893   0.071   1.960  0.00  0.00    +0.148 HD
ENDROOT
BRANCH   4  12
ATOM     12  C   UNL     1       1.645  -2.534  -2.390  0.00  0.00    +0.412 C 
ATOM     13  F   UNL     1       2.947  -2.095  -2.124  0.00  0.00    -0.168 F 
ATOM     14  F   UNL     1       1.623  -3.933  -2.423  0.00  0.00    -0.168 F 
ATOM     15  F   UNL     1       1.227  -2.031  -3.627  0.00  0.00    -0.168 F 
ENDBRANCH   4  12
BRANCH   7  16
ATOM     16  C   UNL     1       1.808  -2.239   3.566  0.00  0.00    +0.391 C 
ATOM     17  O   UNL     1       2.244  -3.054   4.369  0.00  0.00    -0.240 OA
ATOM     18  O   UNL     1       1.520  -1.108   3.936  0.00  0.00    -0.240 OA
ENDBRANCH   7  16
TORSDOF 2
