REMARK  Name = ZINC26579237
REMARK  8 active torsions:
REMARK  status: ('A' for Active; 'I' for Inactive)
REMARK    1  A    between atoms: C_1  and  C_2
REMARK    2  A    between atoms: C_2  and  N_3
REMARK    3  A    between atoms: N_3  and  C_4
REMARK    4  A    between atoms: C_7  and  C_21
REMARK    5  A    between atoms: C_15  and  S_17
REMARK    6  A    between atoms: S_17  and  N_20
REMARK    7  A    between atoms: C_22  and  C_24
REMARK    8  A    between atoms: CA_29  and  C_30
REMARK                            x       y       z     vdW  Elec       q    Type
REMARK                         _______ _______ _______ _____ _____    ______ ____
ROOT
ATOM      1  C   UNL     1      -3.849  -0.939   0.111  0.00  0.00    +0.111 C 
ATOM      2  C   UNL     1      -4.716  -0.508   1.283  0.00  0.00    +0.053 C 
ATOM      3  C   UNL     1      -6.038  -1.292   1.308  0.00  0.00    +0.136 C 
ATOM      4  S   UNL     1      -7.044  -0.672  -0.085  0.00  0.00    +0.006 S 
ATOM      5  O   UNL     1      -7.484   0.655   0.169  0.00  0.00    -0.169 OA
ATOM      6  O   UNL     1      -7.950  -1.672  -0.530  0.00  0.00    -0.169 OA
ATOM      7  C   UNL     1      -5.851  -0.526  -1.363  0.00  0.00    +0.132 A 
ATOM      8  C   UNL     1      -4.503  -0.639  -1.229  0.00  0.00    +0.007 A 
ATOM      9  C   UNL     1      -3.761  -0.464  -2.403  0.00  0.00    +0.043 A 
ATOM     10  C   UNL     1      -4.385  -0.210  -3.575  0.00  0.00    +0.144 A 
ATOM     11  S   UNL     1      -6.103  -0.197  -3.082  0.00  0.00    -0.050 S 
ATOM     12  C   UNL     1      -6.766  -1.045   2.631  0.00  0.00    +0.032 C 
ENDROOT
BRANCH   1  13
ATOM     13  N   UNL     1      -2.568  -0.233   0.184  0.00  0.00    -0.291 N 
ATOM     14  C   UNL     1      -2.533   1.111   0.089  0.00  0.00    +0.249 C 
ATOM     15  O   UNL     1      -3.569   1.745   0.048  0.00  0.00    -0.270 OA
BRANCH  14  16
ATOM     16  C   UNL     1      -1.232   1.815   0.035  0.00  0.00    +0.069 A 
ATOM     17  C   UNL     1      -0.349   1.598  -1.027  0.00  0.00    +0.017 A 
ATOM     18  C   UNL     1       0.853   2.286  -1.034  0.00  0.00    +0.020 A 
ATOM     19  C   UNL     1       1.146   3.157   0.004  0.00  0.00    +0.112 A 
ATOM     20  N   UNL     1       0.302   3.342   0.997  0.00  0.00    -0.248 NA
ATOM     21  CA  UNL     1      -0.861   2.710   1.052  0.00  0.00    +0.164 A 
BRANCH  21  22
ATOM     22  C   UNL     1      -1.778   2.952   2.191  0.00  0.00    +0.405 C 
ATOM     23  O   UNL     1      -2.877   2.438   2.205  0.00  0.00    -0.239 OA
ATOM     24  OXT UNL     1      -1.391   3.743   3.210  0.00  0.00    -0.239 OA
ENDBRANCH  21  22
ENDBRANCH  14  16
BRANCH  13  26
ATOM     25  C   UNL     1      -0.964  -1.038   1.845  0.00  0.00    +0.024 C 
ATOM     26  C   UNL     1      -1.325  -0.987   0.359  0.00  0.00    +0.105 C 
ENDBRANCH  13  26
ENDBRANCH   1  13
BRANCH  10  27
ATOM     27  S   UNL     1      -3.687   0.042  -5.173  0.00  0.00    +0.062 S 
ATOM     28  O   UNL     1      -4.634   0.798  -5.915  0.00  0.00    -0.153 OA
ATOM     29  O   UNL     1      -2.352   0.484  -4.968  0.00  0.00    -0.153 OA
BRANCH  27  30
ATOM     30  N   UNL     1      -3.587  -1.441  -5.903  0.00  0.00    -0.203 NA
ATOM     31  H   UNL     1      -3.154  -1.326  -6.908  0.00  0.00    +0.144 HD
ATOM     32  H   UNL     1      -4.593  -1.877  -5.985  0.00  0.00    +0.144 HD
ENDBRANCH  27  30
ENDBRANCH  10  27
TORSDOF 6
