REMARK  Name = ZINC39487333
REMARK  11 active torsions:
REMARK  status: ('A' for Active; 'I' for Inactive)
REMARK    1  A    between atoms: C_1  and  C_2
REMARK    2  A    between atoms: C_2  and  C_3
REMARK    3  A    between atoms: C_3  and  C_4
REMARK    4  A    between atoms: C_4  and  C_37
REMARK    5  A    between atoms: N_6  and  C_30
REMARK    6  A    between atoms: N_9  and  C_10
REMARK    7  A    between atoms: C_10  and  C_11
REMARK    8  A    between atoms: C_11  and  C_24
REMARK    9  A    between atoms: N_14  and  C_17
REMARK   10  A    between atoms: C_17  and  C_18
REMARK   11  A    between atoms: C_35  and  O_36
REMARK                            x       y       z     vdW  Elec       q    Type
REMARK                         _______ _______ _______ _____ _____    ______ ____
ROOT
ATOM      1  C   UNL     1       1.819  -1.189  -4.406  0.00  0.00    -0.014 C 
ATOM      2  C   UNL     1       3.324  -1.447  -4.527  0.00  0.00    -0.010 C 
ATOM      3  C   UNL     1       3.879  -1.850  -3.159  0.00  0.00    -0.078 C 
ATOM      4  N   UNL     1       3.643  -0.769  -2.194  0.00  0.00    +0.382 N 
ATOM      5  C   UNL     1       2.200  -0.565  -2.019  0.00  0.00    -0.078 C 
ATOM      6  C   UNL     1       1.580  -0.113  -3.343  0.00  0.00    -0.010 C 
ATOM      7  H   UNL     1       4.063   0.083  -2.535  0.00  0.00    -0.081 HD
ENDROOT
BRANCH   1   8
ATOM      8  C   UNL     1       1.270  -0.711  -5.751  0.00  0.00    -0.003 C 
ATOM      9  C   UNL     1       1.701  -1.682  -6.852  0.00  0.00    +0.004 C 
ATOM     10  C   UNL     1       1.152  -1.203  -8.198  0.00  0.00    +0.000 C 
ATOM     11  C   UNL     1       1.699   0.192  -8.505  0.00  0.00    +0.000 C 
ATOM     12  C   UNL     1       1.268   1.163  -7.404  0.00  0.00    +0.000 C 
ATOM     13  C   UNL     1       1.817   0.684  -6.058  0.00  0.00    +0.004 C 
ENDBRANCH   1   8
BRANCH   1  14
ATOM     14  C   UNL     1       1.110  -2.481  -3.994  0.00  0.00    +0.117 C 
BRANCH  14  20
ATOM     15  C   UNL     1      -1.427  -2.599  -4.589  0.00  0.00    +0.052 C 
ATOM     16  C   UNL     1      -2.667  -2.057  -3.852  0.00  0.00    +0.141 C 
ATOM     17  N   UNL     1      -2.110  -1.410  -2.654  0.00  0.00    -0.250 N 
ATOM     18  C   UNL     1      -0.777  -1.537  -2.666  0.00  0.00    +0.310 C 
ATOM     19  O   UNL     1      -0.061  -1.091  -1.790  0.00  0.00    -0.252 OA
ATOM     20  N   UNL     1      -0.303  -2.199  -3.729  0.00  0.00    -0.278 N 
ATOM     21  C   UNL     1      -1.494  -4.123  -4.712  0.00  0.00    +0.033 C 
BRANCH  17  22
ATOM     22  C   UNL     1      -2.856  -0.763  -1.659  0.00  0.00    +0.079 A 
ATOM     23  C   UNL     1      -3.398  -1.493  -0.612  0.00  0.00    +0.027 A 
ATOM     24  C   UNL     1      -4.133  -0.853   0.368  0.00  0.00    +0.002 A 
ATOM     25  C   UNL     1      -4.330   0.514   0.307  0.00  0.00    +0.004 A 
ATOM     26  C   UNL     1      -3.793   1.248  -0.734  0.00  0.00    +0.047 A 
ATOM     27  C   UNL     1      -3.050   0.615  -1.717  0.00  0.00    +0.138 A 
BRANCH  27  28
ATOM     28  O   UNL     1      -2.516   1.336  -2.739  0.00  0.00    -0.505 OA
ATOM     29  H   UNL     1      -3.125   1.486  -3.475  0.00  0.00    +0.292 HD
ENDBRANCH  27  28
ENDBRANCH  17  22
BRANCH  15  30
ATOM     30  C   UNL     1      -1.301  -1.956  -5.971  0.00  0.00    +0.027 C 
BRANCH  30  32
ATOM     31  C   UNL     1      -2.261  -1.881  -8.277  0.00  0.00    +0.004 C 
ATOM     32  C   UNL     1      -2.452  -2.429  -6.861  0.00  0.00    -0.001 C 
ENDBRANCH  30  32
ENDBRANCH  15  30
ENDBRANCH  14  20
ENDBRANCH   1  14
BRANCH   4  33
ATOM     33  C   UNL     1       4.245  -1.127  -0.903  0.00  0.00    -0.043 C 
BRANCH  33  34
ATOM     34  C   UNL     1       4.153   0.047   0.037  0.00  0.00    -0.064 A 
ATOM     35  C   UNL     1       5.110   1.044  -0.007  0.00  0.00    +0.002 A 
ATOM     36  C   UNL     1       5.025   2.122   0.856  0.00  0.00    +0.000 A 
ATOM     37  C   UNL     1       3.984   2.201   1.761  0.00  0.00    +0.000 A 
ATOM     38  C   UNL     1       3.027   1.205   1.804  0.00  0.00    +0.000 A 
ATOM     39  C   UNL     1       3.109   0.130   0.939  0.00  0.00    +0.002 A 
ENDBRANCH  33  34
ENDBRANCH   4  33
TORSDOF 9
