REMARK  Name = ZINC18969048
REMARK  13 active torsions:
REMARK  status: ('A' for Active; 'I' for Inactive)
REMARK    1  A    between atoms: C_1  and  C_2
REMARK    2  A    between atoms: C_2  and  O_3
REMARK    3  A    between atoms: O_3  and  C_4
REMARK    4  A    between atoms: C_6  and  N_32
REMARK    5  A    between atoms: C_7  and  C_12
REMARK    6  A    between atoms: C_9  and  O_10
REMARK    7  A    between atoms: O_10  and  C_11
REMARK    8  A    between atoms: C_12  and  O_14
REMARK    9  A    between atoms: O_14  and  C_15
REMARK   10  A    between atoms: C_15  and  C_16
REMARK   11  A    between atoms: N_18  and  C_19
REMARK   12  A    between atoms: C_24  and  S_25
REMARK   13  A    between atoms: S_25  and  C_26
REMARK                            x       y       z     vdW  Elec       q    Type
REMARK                         _______ _______ _______ _____ _____    ______ ____
ROOT
ATOM      1  C   UNL     1       1.440  -0.376   8.034  0.00  0.00    +0.328 C 
ENDROOT
BRANCH   1   2
ATOM      2  C   UNL     1       0.559   0.173   9.127  0.00  0.00    +0.255 C 
ATOM      3  O   UNL     1      -0.208   1.082   8.888  0.00  0.00    -0.272 OA
ATOM      4  N   UNL     1       0.622  -0.347  10.368  0.00  0.00    -0.282 N 
ATOM      5  H   UNL     1       1.286  -1.023  10.578  0.00  0.00    +0.155 HD
BRANCH   4   6
ATOM      6  C   UNL     1      -0.270   0.089  11.357  0.00  0.00    +0.047 A 
ATOM      7  C   UNL     1      -1.453   0.717  10.998  0.00  0.00    +0.024 A 
ATOM      8  C   UNL     1      -2.332   1.145  11.975  0.00  0.00    +0.002 A 
ATOM      9  C   UNL     1      -2.036   0.950  13.312  0.00  0.00    +0.001 A 
ATOM     10  C   UNL     1      -0.860   0.325  13.679  0.00  0.00    +0.017 A 
ATOM     11  C   UNL     1       0.026  -0.113  12.705  0.00  0.00    +0.034 A 
BRANCH  11  12
ATOM     12  S   UNL     1       1.524  -0.917  13.170  0.00  0.00    -0.088 S 
BRANCH  12  13
ATOM     13  C   UNL     1       1.194  -2.626  12.894  0.00  0.00    +0.013 A 
ATOM     14  C   UNL     1      -0.020  -3.021  12.345  0.00  0.00    +0.015 A 
ATOM     15  C   UNL     1      -0.273  -4.360  12.124  0.00  0.00    +0.001 A 
ATOM     16  C   UNL     1       0.676  -5.309  12.460  0.00  0.00    +0.000 A 
ATOM     17  C   UNL     1       1.882  -4.920  13.013  0.00  0.00    +0.001 A 
ATOM     18  C   UNL     1       2.144  -3.582  13.231  0.00  0.00    +0.015 A 
ENDBRANCH  12  13
ENDBRANCH  11  12
ENDBRANCH   4   6
ENDBRANCH   1   2
BRANCH   1  19
ATOM     19  O   UNL     1       1.187   0.345   6.800  0.00  0.00    -0.452 OA
BRANCH  19  20
ATOM     20  C   UNL     1       1.899  -0.025   5.718  0.00  0.00    +0.342 C 
ATOM     21  O   UNL     1       2.710  -0.925   5.803  0.00  0.00    -0.245 OA
BRANCH  20  25
ATOM     22  C   UNL     1       1.315   1.958   2.006  0.00  0.00    +0.164 A 
ATOM     23  C   UNL     1       2.579   1.916   2.579  0.00  0.00    +0.083 A 
ATOM     24  C   UNL     1       2.771   1.279   3.785  0.00  0.00    +0.144 A 
ATOM     25  C   UNL     1       1.694   0.663   4.429  0.00  0.00    +0.093 A 
ATOM     26  C   UNL     1       0.423   0.701   3.849  0.00  0.00    +0.066 A 
ATOM     27  C   UNL     1       0.236   1.346   2.643  0.00  0.00    +0.162 A 
BRANCH  24  28
ATOM     28  N   UNL     1       4.118   1.242   4.396  0.00  0.00    +0.057 N 
ATOM     29  O   UNL     1       5.051   1.802   3.849  0.00  0.00    -0.126 OA
ATOM     30  O   UNL     1       4.295   0.650   5.446  0.00  0.00    -0.126 OA
ENDBRANCH  24  28
BRANCH  27  31
ATOM     31  O   UNL     1      -1.000   1.385   2.076  0.00  0.00    -0.491 OA
ATOM     32  C   UNL     1      -2.058   0.737   2.784  0.00  0.00    +0.277 C 
ENDBRANCH  27  31
BRANCH  22  33
ATOM     33  O   UNL     1       1.130   2.592   0.819  0.00  0.00    -0.489 OA
BRANCH  33  35
ATOM     34  C   UNL     1       1.877   3.859  -1.099  0.00  0.00    +0.048 C 
ATOM     35  C   UNL     1       2.278   3.198   0.222  0.00  0.00    +0.226 C 
ENDBRANCH  33  35
ENDBRANCH  22  33
ENDBRANCH  20  25
ENDBRANCH  19  20
ENDBRANCH   1  19
TORSDOF 11
