REMARK  Name = ZINC63746740
REMARK  9 active torsions:
REMARK  status: ('A' for Active; 'I' for Inactive)
REMARK    1  A    between atoms: C_1  and  C_2
REMARK    2  A    between atoms: C_7  and  S_12
REMARK    3  A    between atoms: S_12  and  C_13
REMARK    4  A    between atoms: C_13  and  C_15
REMARK    5  A    between atoms: C_13  and  C_16
REMARK    6  A    between atoms: C_16  and  C_18
REMARK    7  A    between atoms: C_21  and  C_23
REMARK    8  A    between atoms: C_23  and  N_24
REMARK    9  A    between atoms: C_25  and  C_27
REMARK                            x       y       z     vdW  Elec       q    Type
REMARK                         _______ _______ _______ _____ _____    ______ ____
ROOT
ATOM      1  C   UNL     1      -2.790  -4.240   1.485  0.00  0.00    +0.121 C 
ATOM      2  C   UNL     1      -2.783  -4.160  -0.043  0.00  0.00    +0.027 C 
ENDROOT
BRANCH   1   3
ATOM      3  C   UNL     1      -4.087  -4.848   1.951  0.00  0.00    +0.210 C 
ATOM      4  O   UNL     1      -4.153  -6.039   2.178  0.00  0.00    -0.288 OA
BRANCH   3   5
ATOM      5  C   UNL     1      -5.228  -4.032   2.124  0.00  0.00    +0.171 A 
ATOM      6  C   UNL     1      -6.473  -4.453   2.548  0.00  0.00    +0.053 A 
ATOM      7  C   UNL     1      -7.291  -3.316   2.573  0.00  0.00    +0.047 A 
ATOM      8  C   UNL     1      -6.534  -2.269   2.172  0.00  0.00    +0.123 A 
ATOM      9  O   UNL     1      -5.295  -2.701   1.909  0.00  0.00    -0.455 OA
BRANCH   8  10
ATOM     10  C   UNL     1      -7.007  -0.844   2.049  0.00  0.00    +0.178 C 
BRANCH  10  11
ATOM     11  N   UNL     1      -6.794  -0.146   3.319  0.00  0.00    -0.308 N 
ATOM     12  C   UNL     1      -7.146   1.149   3.444  0.00  0.00    +0.210 C 
ATOM     13  O   UNL     1      -7.638   1.737   2.504  0.00  0.00    -0.276 OA
ATOM     14  C   UNL     1      -6.926   1.867   4.750  0.00  0.00    +0.109 C 
ATOM     15  H   UNL     1      -6.401  -0.616   4.070  0.00  0.00    +0.149 HD
ENDBRANCH  10  11
ENDBRANCH   8  10
ENDBRANCH   3   5
ENDBRANCH   1   3
BRANCH   1  16
ATOM     16  S   UNL     1      -1.405  -5.270   2.043  0.00  0.00    -0.104 S 
BRANCH  16  23
ATOM     17  C   UNL     1      -0.018   1.503   0.010  0.00  0.00    +0.044 C 
ATOM     18  C   UNL     1       0.002  -0.004   0.002  0.00  0.00    -0.048 A 
ATOM     19  C   UNL     1       0.005  -0.672  -1.235  0.00  0.00    +0.005 A 
ATOM     20  C   UNL     1       0.022  -2.017  -1.335  0.00  0.00    +0.028 A 
ATOM     21  C   UNL     1       0.040  -2.834  -0.114  0.00  0.00    +0.061 A 
ATOM     22  N   UNL     1       0.057  -4.120   0.090  0.00  0.00    -0.355 N 
ATOM     23  C   UNL     1       0.067  -4.335   1.542  0.00  0.00    +0.236 C 
ATOM     24  N   UNL     1       0.053  -3.002   2.159  0.00  0.00    -0.355 N 
ATOM     25  C   UNL     1       0.037  -2.127   1.195  0.00  0.00    +0.061 A 
ATOM     26  C   UNL     1       0.022  -0.657   1.181  0.00  0.00    +0.030 A 
ATOM     27  H   UNL     1       0.062  -4.809  -0.593  0.00  0.00    +0.162 HD
ATOM     28  H   UNL     1       0.055  -2.810   3.109  0.00  0.00    +0.162 HD
ENDBRANCH  16  23
ENDBRANCH   1  16
TORSDOF 6
