REMARK  Name = ZINC13405644
REMARK  15 active torsions:
REMARK  status: ('A' for Active; 'I' for Inactive)
REMARK    1  A    between atoms: C_1  and  C_2
REMARK    2  A    between atoms: C_2  and  O_3
REMARK    3  A    between atoms: O_3  and  C_4
REMARK    4  A    between atoms: C_4  and  C_6
REMARK    5  A    between atoms: C_7  and  C_36
REMARK    6  A    between atoms: C_8  and  C_13
REMARK    7  A    between atoms: C_9  and  C_12
REMARK    8  A    between atoms: C_13  and  C_15
REMARK    9  A    between atoms: C_15  and  S_16
REMARK   10  A    between atoms: S_16  and  C_17
REMARK   11  A    between atoms: N_27  and  C_28
REMARK   12  A    between atoms: C_28  and  C_30
REMARK   13  A    between atoms: C_28  and  C_33
REMARK   14  A    between atoms: C_30  and  C_31
REMARK   15  A    between atoms: C_30  and  C_32
REMARK                            x       y       z     vdW  Elec       q    Type
REMARK                         _______ _______ _______ _____ _____    ______ ____
ROOT
ATOM      1  C   UNL     1       5.142  -6.339   7.821  0.00  0.00    +0.173 A 
ATOM      2  N   UNL     1       5.330  -5.109   8.233  0.00  0.00    -0.223 NA
ATOM      3  C   UNL     1       6.069  -4.836   9.327  0.00  0.00    +0.079 A 
ATOM      4  C   UNL     1       6.270  -3.524   9.767  0.00  0.00    +0.028 A 
ATOM      5  C   UNL     1       7.026  -3.293  10.881  0.00  0.00    +0.002 A 
ATOM      6  C   UNL     1       7.600  -4.343  11.586  0.00  0.00    +0.001 A 
ATOM      7  C   UNL     1       7.422  -5.637  11.181  0.00  0.00    +0.015 A 
ATOM      8  C   UNL     1       6.655  -5.902  10.047  0.00  0.00    +0.065 A 
ATOM      9  C   UNL     1       6.429  -7.272   9.566  0.00  0.00    +0.263 A 
ATOM     10  O   UNL     1       6.906  -8.231  10.143  0.00  0.00    -0.267 OA
ATOM     11  N   UNL     1       5.665  -7.427   8.459  0.00  0.00    -0.273 N 
ENDROOT
BRANCH   1  12
ATOM     12  S   UNL     1       4.161  -6.601   6.381  0.00  0.00    -0.080 S 
BRANCH  12  13
ATOM     13  C   UNL     1       3.681  -4.929   5.867  0.00  0.00    +0.157 C 
BRANCH  13  14
ATOM     14  C   UNL     1       2.827  -5.010   4.628  0.00  0.00    +0.175 C 
ATOM     15  O   UNL     1       2.487  -6.091   4.195  0.00  0.00    -0.291 OA
BRANCH  14  18
ATOM     16  C   UNL     1       2.382  -1.992   2.610  0.00  0.00    +0.128 A 
ATOM     17  C   UNL     1       3.144  -3.062   2.977  0.00  0.00    -0.008 A 
ATOM     18  C   UNL     1       2.406  -3.782   3.946  0.00  0.00    +0.042 A 
ATOM     19  C   UNL     1       1.208  -3.107   4.127  0.00  0.00    +0.024 A 
ATOM     20  N   UNL     1       1.205  -2.031   3.327  0.00  0.00    -0.352 N 
ATOM     21  H   UNL     1       0.486  -1.384   3.260  0.00  0.00    +0.166 HD
ATOM     22  C   UNL     1       0.102  -3.510   5.068  0.00  0.00    +0.064 C 
ATOM     23  C   UNL     1       4.512  -3.411   2.450  0.00  0.00    +0.047 C 
BRANCH  16  24
ATOM     24  C   UNL     1       2.754  -0.971   1.625  0.00  0.00    +0.356 C 
ATOM     25  O   UNL     1       3.825  -1.040   1.053  0.00  0.00    -0.243 OA
BRANCH  24  26
ATOM     26  O   UNL     1       1.909   0.045   1.355  0.00  0.00    -0.460 OA
BRANCH  26  28
ATOM     27  C   UNL     1       1.254   2.072   0.214  0.00  0.00    +0.048 C 
ATOM     28  C   UNL     1       2.336   1.003   0.386  0.00  0.00    +0.229 C 
ENDBRANCH  26  28
ENDBRANCH  24  26
ENDBRANCH  16  24
ENDBRANCH  14  18
ENDBRANCH  13  14
ENDBRANCH  12  13
ENDBRANCH   1  12
BRANCH  11  29
ATOM     29  C   UNL     1       5.402  -8.771   7.939  0.00  0.00    +0.208 C 
BRANCH  29  30
ATOM     30  C   UNL     1       4.679  -9.598   9.004  0.00  0.00    +0.017 C 
ATOM     31  C   UNL     1       3.354  -8.922   9.362  0.00  0.00    +0.010 C 
ATOM     32  C   UNL     1       4.405 -11.002   8.461  0.00  0.00    +0.010 C 
ENDBRANCH  29  30
BRANCH  29  33
ATOM     33  C   UNL     1       6.708  -9.437   7.587  0.00  0.00    +0.379 C 
ATOM     34  O   UNL     1       7.763  -8.925   7.920  0.00  0.00    -0.244 OA
ATOM     35  O   UNL     1       6.708 -10.488   6.969  0.00  0.00    -0.244 OA
ENDBRANCH  29  33
ENDBRANCH  11  29
TORSDOF 10
