REMARK  Name = ZINC08768364
REMARK  3 active torsions:
REMARK  status: ('A' for Active; 'I' for Inactive)
REMARK    1  A    between atoms: C_10  and  N_11
REMARK    2  A    between atoms: C_12  and  C_14
REMARK    3  A    between atoms: C_14  and  N_15
REMARK                            x       y       z     vdW  Elec       q    Type
REMARK                         _______ _______ _______ _____ _____    ______ ____
ROOT
ATOM      1  N   UNL     1       8.462  -0.711   0.220  0.00  0.00    -0.290 N 
ATOM      2  C   UNL     1       9.720  -0.241   0.328  0.00  0.00    +0.307 C 
ATOM      3  O   UNL     1       9.914   0.953   0.450  0.00  0.00    -0.252 OA
ATOM      4  N   UNL     1      10.763  -1.094   0.302  0.00  0.00    -0.245 N 
ATOM      5  C   UNL     1      10.553  -2.549   0.268  0.00  0.00    +0.211 C 
ATOM      6  C   UNL     1      11.537  -3.209   1.199  0.00  0.00    +0.235 C 
ATOM      7  O   UNL     1      11.244  -4.258   1.733  0.00  0.00    -0.274 OA
ATOM      8  N   UNL     1      12.736  -2.650   1.446  0.00  0.00    -0.283 N 
ATOM      9  C   UNL     1      13.079  -1.415   0.883  0.00  0.00    +0.055 A 
ATOM     10  C   UNL     1      12.085  -0.622   0.300  0.00  0.00    +0.059 A 
ATOM     11  C   UNL     1      12.406   0.601  -0.261  0.00  0.00    +0.025 A 
ATOM     12  C   UNL     1      13.720   1.037  -0.251  0.00  0.00    +0.002 A 
ATOM     13  C   UNL     1      14.708   0.254   0.316  0.00  0.00    +0.002 A 
ATOM     14  C   UNL     1      14.391  -0.972   0.892  0.00  0.00    +0.025 A 
ATOM     15  H   UNL     1       8.302  -1.668   0.196  0.00  0.00    +0.151 HD
ATOM     16  H   UNL     1      13.370  -3.107   2.020  0.00  0.00    +0.155 HD
ENDROOT
BRANCH   1  17
ATOM     17  C   UNL     1       7.335   0.222   0.139  0.00  0.00    +0.202 C 
BRANCH  17  19
ATOM     18  N   UNL     1       4.873   0.101  -0.063  0.00  0.00    -0.284 N 
ATOM     19  C   UNL     1       6.048  -0.553   0.025  0.00  0.00    +0.234 C 
ATOM     20  O   UNL     1       6.069  -1.766   0.013  0.00  0.00    -0.274 OA
ATOM     21  H   UNL     1       4.860   1.068  -0.135  0.00  0.00    +0.155 HD
BRANCH  18  31
ATOM     22  C   UNL     1       0.211   0.958  -1.798  0.00  0.00    +0.001 A 
ATOM     23  C   UNL     1       1.398   1.688  -1.820  0.00  0.00    +0.001 A 
ATOM     24  C   UNL     1       2.535   1.194  -1.257  0.00  0.00    +0.010 A 
ATOM     25  C   UNL     1       2.515  -0.070  -0.646  0.00  0.00    +0.003 A 
ATOM     26  C   UNL     1       1.309  -0.813  -0.623  0.00  0.00    -0.016 A 
ATOM     27  C   UNL     1       0.155  -0.271  -1.214  0.00  0.00    +0.008 A 
ATOM     28  C   UNL     1       1.288  -2.078  -0.010  0.00  0.00    +0.008 A 
ATOM     29  C   UNL     1       2.421  -2.579   0.555  0.00  0.00    +0.002 A 
ATOM     30  C   UNL     1       3.611  -1.858   0.539  0.00  0.00    +0.024 A 
ATOM     31  C   UNL     1       3.674  -0.614  -0.052  0.00  0.00    +0.041 A 
ENDBRANCH  18  31
ENDBRANCH  17  19
ENDBRANCH   1  17
TORSDOF 3
