REMARK  Name = ZINC25270816
REMARK  8 active torsions:
REMARK  status: ('A' for Active; 'I' for Inactive)
REMARK    1  A    between atoms: C_1  and  C_2
REMARK    2  A    between atoms: C_2  and  C_4
REMARK    3  A    between atoms: C_2  and  N_13
REMARK    4  A    between atoms: C_7  and  O_11
REMARK    5  A    between atoms: O_11  and  C_12
REMARK    6  A    between atoms: C_14  and  C_16
REMARK    7  A    between atoms: C_16  and  N_17
REMARK    8  A    between atoms: C_21  and  C_24
REMARK                            x       y       z     vdW  Elec       q    Type
REMARK                         _______ _______ _______ _____ _____    ______ ____
ROOT
ATOM      1  N   UNL     1      -1.372  -0.511   0.012  0.00  0.00    -0.307 N 
ATOM      2  C   UNL     1      -2.029  -0.655   1.181  0.00  0.00    +0.233 C 
ATOM      3  O   UNL     1      -1.481  -0.365   2.224  0.00  0.00    -0.274 OA
ATOM      4  H   UNL     1      -1.810  -0.743  -0.822  0.00  0.00    +0.149 HD
ENDROOT
BRANCH   1   6
ATOM      5  C   UNL     1      -0.019   1.526   0.010  0.00  0.00    +0.033 C 
ATOM      6  C   UNL     1       0.002  -0.004   0.002  0.00  0.00    +0.100 C 
BRANCH   6   7
ATOM      7  C   UNL     1       0.707  -0.490  -1.238  0.00  0.00    -0.025 A 
ATOM      8  C   UNL     1       0.036  -0.521  -2.446  0.00  0.00    +0.009 A 
ATOM      9  C   UNL     1       0.680  -0.967  -3.585  0.00  0.00    +0.049 A 
ATOM     10  C   UNL     1       2.001  -1.383  -3.516  0.00  0.00    +0.155 A 
ATOM     11  C   UNL     1       2.674  -1.351  -2.302  0.00  0.00    +0.165 A 
ATOM     12  C   UNL     1       2.026  -0.899  -1.166  0.00  0.00    +0.047 A 
ATOM     13  F   UNL     1       3.961  -1.755  -2.231  0.00  0.00    -0.202 F 
BRANCH  10  14
ATOM     14  O   UNL     1       2.635  -1.822  -4.636  0.00  0.00    -0.492 OA
ATOM     15  C   UNL     1       1.881  -1.828  -5.849  0.00  0.00    +0.277 C 
ENDBRANCH  10  14
ENDBRANCH   6   7
ENDBRANCH   1   6
BRANCH   2  16
ATOM     16  C   UNL     1      -3.442  -1.177   1.191  0.00  0.00    +0.220 C 
BRANCH  16  17
ATOM     17  N   UNL     1      -3.929  -1.240   2.572  0.00  0.00    -0.306 N 
ATOM     18  C   UNL     1      -3.739  -2.371   3.299  0.00  0.00    +0.089 A 
ATOM     19  C   UNL     1      -4.180  -2.454   4.576  0.00  0.00    +0.018 A 
ATOM     20  C   UNL     1      -4.840  -1.363   5.160  0.00  0.00    +0.019 A 
ATOM     21  C   UNL     1      -5.030  -0.228   4.428  0.00  0.00    +0.119 A 
ATOM     22  C   UNL     1      -4.555  -0.175   3.107  0.00  0.00    +0.263 A 
ATOM     23  O   UNL     1      -4.713   0.837   2.442  0.00  0.00    -0.267 OA
BRANCH  21  24
ATOM     24  C   UNL     1      -5.737   0.958   5.032  0.00  0.00    +0.422 C 
ATOM     25  F   UNL     1      -6.105   0.661   6.348  0.00  0.00    -0.166 F 
ATOM     26  F   UNL     1      -4.880   2.064   5.026  0.00  0.00    -0.166 F 
ATOM     27  F   UNL     1      -6.881   1.251   4.282  0.00  0.00    -0.166 F 
ENDBRANCH  21  24
ENDBRANCH  16  17
ENDBRANCH   2  16
TORSDOF 6
