REMARK  Name = ZINC40564461
REMARK  8 active torsions:
REMARK  status: ('A' for Active; 'I' for Inactive)
REMARK    1  A    between atoms: C_3  and  C_11
REMARK    2  A    between atoms: C_5  and  C_7
REMARK    3  A    between atoms: C_14  and  C_16
REMARK    4  A    between atoms: N_20  and  C_24
REMARK    5  A    between atoms: C_24  and  C_26
REMARK    6  A    between atoms: C_24  and  C_31
REMARK    7  A    between atoms: C_26  and  C_27
REMARK    8  A    between atoms: C_27  and  C_28
REMARK                            x       y       z     vdW  Elec       q    Type
REMARK                         _______ _______ _______ _____ _____    ______ ____
ROOT
ATOM      1  C   UNL     1       7.210   2.427  -0.063  0.00  0.00    +0.066 C 
ATOM      2  C   UNL     1       7.740   1.170  -0.081  0.00  0.00    +0.080 C 
ATOM      3  C   UNL     1       9.150   0.747  -0.097  0.00  0.00    +0.259 C 
ATOM      4  O   UNL     1      10.060   1.557  -0.094  0.00  0.00    -0.269 OA
ATOM      5  N   UNL     1       9.381  -0.555  -0.113  0.00  0.00    -0.241 N 
ATOM      6  C   UNL     1       8.371  -1.449  -0.116  0.00  0.00    +0.121 C 
ATOM      7  S   UNL     1       8.462  -3.158  -0.136  0.00  0.00    -0.027 S 
ATOM      8  S   UNL     1       6.915  -0.415  -0.085  0.00  0.00    -0.061 S 
ENDROOT
BRANCH   1  12
ATOM      9  C   UNL     1       3.655   2.158  -0.022  0.00  0.00    +0.136 A 
ATOM     10  C   UNL     1       3.775   3.519  -0.011  0.00  0.00    +0.050 A 
ATOM     11  C   UNL     1       5.141   3.813  -0.025  0.00  0.00    +0.050 A 
ATOM     12  C   UNL     1       5.809   2.602  -0.044  0.00  0.00    +0.130 A 
ATOM     13  O   UNL     1       4.887   1.616  -0.036  0.00  0.00    -0.455 OA
BRANCH   9  16
ATOM     14  C   UNL     1      -0.017   1.379   0.010  0.00  0.00    +0.001 A 
ATOM     15  C   UNL     1       1.166   2.089   0.002  0.00  0.00    +0.011 A 
ATOM     16  C   UNL     1       2.385   1.407  -0.013  0.00  0.00    +0.018 A 
ATOM     17  C   UNL     1       2.397   0.009  -0.021  0.00  0.00    +0.024 A 
ATOM     18  C   UNL     1       1.206  -0.686  -0.013  0.00  0.00    +0.055 A 
ATOM     19  C   UNL     1       0.002  -0.004   0.002  0.00  0.00    +0.012 A 
BRANCH  18  20
ATOM     20  C   UNL     1       1.216  -2.193  -0.022  0.00  0.00    +0.417 C 
ATOM     21  F   UNL     1       1.232  -2.667   1.294  0.00  0.00    -0.166 F 
ATOM     22  F   UNL     1       0.071  -2.664  -0.673  0.00  0.00    -0.166 F 
ATOM     23  F   UNL     1       2.355  -2.648  -0.695  0.00  0.00    -0.166 F 
ENDBRANCH  18  20
ENDBRANCH   9  16
ENDBRANCH   1  12
BRANCH   5  24
ATOM     24  C   UNL     1      10.764  -1.038  -0.129  0.00  0.00    +0.196 C 
BRANCH  24  25
ATOM     25  C   UNL     1      10.995  -1.860  -1.370  0.00  0.00    +0.376 C 
ATOM     26  O   UNL     1      10.088  -2.027  -2.168  0.00  0.00    -0.244 OA
ATOM     27  O   UNL     1      12.089  -2.358  -1.577  0.00  0.00    -0.244 OA
ENDBRANCH  24  25
BRANCH  24  28
ATOM     28  C   UNL     1      11.018  -1.900   1.109  0.00  0.00    +0.046 C 
BRANCH  28  29
ATOM     29  C   UNL     1      10.905  -1.035   2.366  0.00  0.00    +0.127 C 
BRANCH  29  30
ATOM     30  C   UNL     1      11.155  -1.885   3.585  0.00  0.00    +0.356 C 
ATOM     31  O   UNL     1      11.400  -3.073   3.460  0.00  0.00    -0.246 OA
ATOM     32  O   UNL     1      11.112  -1.385   4.696  0.00  0.00    -0.246 OA
ENDBRANCH  29  30
ENDBRANCH  28  29
ENDBRANCH  24  28
ENDBRANCH   5  24
TORSDOF 8
