REMARK  Name = ZINC38760173
REMARK  12 active torsions:
REMARK  status: ('A' for Active; 'I' for Inactive)
REMARK    1  A    between atoms: C_1  and  C_2
REMARK    2  A    between atoms: C_2  and  O_3
REMARK    3  A    between atoms: O_3  and  C_4
REMARK    4  A    between atoms: C_9  and  O_10
REMARK    5  A    between atoms: O_10  and  C_11
REMARK    6  A    between atoms: C_12  and  C_34
REMARK    7  A    between atoms: C_15  and  C_17
REMARK    8  A    between atoms: C_20  and  O_24
REMARK    9  A    between atoms: C_22  and  O_23
REMARK   10  A    between atoms: O_24  and  C_25
REMARK   11  A    between atoms: C_25  and  C_26
REMARK   12  A    between atoms: C_29  and  C_32
REMARK                            x       y       z     vdW  Elec       q    Type
REMARK                         _______ _______ _______ _____ _____    ______ ____
ROOT
ATOM      1  C   UNL     1      -6.643  -0.847  -1.127  0.00  0.00    +0.025 A 
ATOM      2  C   UNL     1      -7.304  -1.381  -2.216  0.00  0.00    +0.013 A 
ATOM      3  C   UNL     1      -7.484  -0.624  -3.358  0.00  0.00    +0.046 A 
ATOM      4  C   UNL     1      -7.000   0.676  -3.413  0.00  0.00    +0.124 A 
ATOM      5  C   UNL     1      -6.337   1.214  -2.321  0.00  0.00    +0.091 A 
ATOM      6  C   UNL     1      -6.163   0.454  -1.175  0.00  0.00    +0.126 A 
ENDROOT
BRANCH   1  11
ATOM      7  C   UNL     1      -5.044  -2.251   0.166  0.00  0.00    +0.156 C 
ATOM      8  C   UNL     1      -5.246  -3.584   0.155  0.00  0.00    +0.098 C 
ATOM      9  N   UNL     1      -6.553  -3.865   0.103  0.00  0.00    -0.179 NA
ATOM     10  N   UNL     1      -7.295  -2.881   0.075  0.00  0.00    -0.294 N 
ATOM     11  C   UNL     1      -6.449  -1.675   0.117  0.00  0.00    +0.200 C 
ATOM     12  C   UNL     1      -4.149  -4.617   0.197  0.00  0.00    +0.071 C 
ATOM     13  H   UNL     1      -8.264  -2.897   0.036  0.00  0.00    +0.184 HD
BRANCH   7  14
ATOM     14  O   UNL     1      -3.870  -1.585   0.214  0.00  0.00    -0.452 OA
BRANCH  14  20
ATOM     15  C   UNL     1      -2.444  -0.079   1.389  0.00  0.00    +0.162 A 
ATOM     16  C   UNL     1      -2.165   0.654   2.531  0.00  0.00    +0.049 A 
ATOM     17  C   UNL     1      -3.018   0.593   3.617  0.00  0.00    +0.004 A 
ATOM     18  C   UNL     1      -4.152  -0.197   3.566  0.00  0.00    +0.004 A 
ATOM     19  C   UNL     1      -4.437  -0.930   2.430  0.00  0.00    +0.050 A 
ATOM     20  C   UNL     1      -3.589  -0.869   1.335  0.00  0.00    +0.170 A 
BRANCH  15  21
ATOM     21  O   UNL     1      -1.605  -0.021   0.320  0.00  0.00    -0.489 OA
BRANCH  21  23
ATOM     22  C   UNL     1       0.367   0.749  -0.846  0.00  0.00    +0.048 C 
ATOM     23  C   UNL     1      -0.450   0.811   0.447  0.00  0.00    +0.226 C 
ENDBRANCH  21  23
ENDBRANCH  15  21
ENDBRANCH  14  20
ENDBRANCH   7  14
ENDBRANCH   1  11
BRANCH   6  24
ATOM     24  O   UNL     1      -5.518   0.981  -0.101  0.00  0.00    -0.506 OA
ATOM     25  H   UNL     1      -4.561   0.838  -0.107  0.00  0.00    +0.292 HD
ENDBRANCH   6  24
BRANCH   4  26
ATOM     26  O   UNL     1      -7.177   1.420  -4.536  0.00  0.00    -0.487 OA
BRANCH  26  27
ATOM     27  C   UNL     1      -7.869   0.801  -5.622  0.00  0.00    +0.264 C 
BRANCH  27  28
ATOM     28  C   UNL     1      -7.969   1.770  -6.772  0.00  0.00    -0.010 A 
ATOM     29  C   UNL     1      -9.055   2.624  -6.861  0.00  0.00    +0.007 A 
ATOM     30  C   UNL     1      -9.152   3.513  -7.911  0.00  0.00    +0.008 A 
ATOM     31  C   UNL     1      -8.152   3.552  -8.884  0.00  0.00    -0.026 A 
ATOM     32  C   UNL     1      -7.060   2.689  -8.788  0.00  0.00    +0.008 A 
ATOM     33  C   UNL     1      -6.972   1.807  -7.730  0.00  0.00    +0.007 A 
BRANCH  31  34
ATOM     34  C   UNL     1      -8.251   4.502 -10.012  0.00  0.00    +0.000 C 
ATOM     35  C   UNL     1      -7.300   4.536 -10.935  0.00  0.00    +0.009 C 
ENDBRANCH  31  34
ENDBRANCH  27  28
ENDBRANCH  26  27
ENDBRANCH   4  26
TORSDOF 10
