REMARK  Name = ZINC15054545
REMARK  6 active torsions:
REMARK  status: ('A' for Active; 'I' for Inactive)
REMARK    1  A    between atoms: C_1  and  C_2
REMARK    2  A    between atoms: C_5  and  C_31
REMARK    3  A    between atoms: C_6  and  C_8
REMARK    4  A    between atoms: C_8  and  C_10
REMARK    5  A    between atoms: C_10  and  C_11
REMARK    6  A    between atoms: N_17  and  N_18
REMARK                            x       y       z     vdW  Elec       q    Type
REMARK                         _______ _______ _______ _____ _____    ______ ____
ROOT
ATOM      1  C   UNL     1       4.574  -6.523  -0.514  0.00  0.00    +0.147 C 
ATOM      2  C   UNL     1       5.874  -5.742  -0.631  0.00  0.00    +0.232 C 
ATOM      3  O   UNL     1       6.963  -6.271  -0.580  0.00  0.00    -0.274 OA
ATOM      4  N   UNL     1       5.717  -4.438  -0.793  0.00  0.00    -0.263 N 
ATOM      5  C   UNL     1       4.484  -3.848  -0.850  0.00  0.00    +0.183 C 
ATOM      6  N   UNL     1       4.209  -2.556  -1.008  0.00  0.00    -0.126 NA
ATOM      7  S   UNL     1       3.359  -5.155  -0.662  0.00  0.00    -0.075 S 
ATOM      8  H   UNL     1       6.506  -3.880  -0.875  0.00  0.00    +0.157 HD
ENDROOT
BRANCH   6   9
ATOM      9  N   UNL     1       2.983  -2.157  -1.040  0.00  0.00    -0.142 NA
ATOM     10  C   UNL     1       2.709  -0.873  -1.197  0.00  0.00    +0.157 C 
ATOM     11  C   UNL     1       3.672   0.240  -1.351  0.00  0.00    +0.029 A 
ATOM     12  C   UNL     1       5.062   0.301  -1.379  0.00  0.00    +0.027 A 
ATOM     13  C   UNL     1       5.689   1.521  -1.542  0.00  0.00    +0.019 A 
ATOM     14  C   UNL     1       4.937   2.677  -1.677  0.00  0.00    +0.017 A 
ATOM     15  C   UNL     1       3.558   2.626  -1.650  0.00  0.00    +0.025 A 
ATOM     16  C   UNL     1       2.908   1.407  -1.487  0.00  0.00    +0.043 A 
ATOM     17  N   UNL     1       1.559   1.079  -1.426  0.00  0.00    -0.280 N 
ATOM     18  C   UNL     1       1.384  -0.242  -1.257  0.00  0.00    +0.269 C 
ATOM     19  O   UNL     1       0.313  -0.817  -1.169  0.00  0.00    -0.268 OA
ATOM     20 BR   UNL     1       7.578   1.613  -1.582  0.00  0.00    -0.050 Br
ATOM     21  H   UNL     1       0.836   1.722  -1.500  0.00  0.00    +0.155 HD
ENDBRANCH   6   9
BRANCH   1  22
ATOM     22  C   UNL     1       4.462  -7.213   0.847  0.00  0.00    +0.103 C 
BRANCH  22  23
ATOM     23  C   UNL     1       3.223  -8.071   0.875  0.00  0.00    +0.165 C 
ATOM     24  O   UNL     1       2.501  -8.125  -0.098  0.00  0.00    -0.292 OA
BRANCH  23  30
ATOM     25  C   UNL     1       4.417  -9.648   5.452  0.00  0.00    +0.044 C 
ATOM     26  C   UNL     1       3.460  -9.606   4.289  0.00  0.00    -0.050 A 
ATOM     27  C   UNL     1       2.262 -10.297   4.356  0.00  0.00    +0.003 A 
ATOM     28  C   UNL     1       1.376 -10.265   3.293  0.00  0.00    +0.004 A 
ATOM     29  C   UNL     1       1.681  -9.544   2.158  0.00  0.00    -0.040 A 
ATOM     30  C   UNL     1       2.889  -8.843   2.083  0.00  0.00    +0.021 A 
ATOM     31  C   UNL     1       3.782  -8.885   3.159  0.00  0.00    +0.015 A 
ATOM     32  C   UNL     1       0.716  -9.511   1.001  0.00  0.00    +0.044 C 
ENDBRANCH  23  30
ENDBRANCH  22  23
ENDBRANCH   1  22
TORSDOF 4
