REMARK  Name = ZINC58057726
REMARK  6 active torsions:
REMARK  status: ('A' for Active; 'I' for Inactive)
REMARK    1  A    between atoms: C_1  and  C_2
REMARK    2  A    between atoms: C_5  and  C_8
REMARK    3  A    between atoms: C_14  and  C_16
REMARK    4  A    between atoms: C_18  and  N_24
REMARK    5  A    between atoms: C_21  and  O_22
REMARK    6  A    between atoms: O_22  and  C_23
REMARK                            x       y       z     vdW  Elec       q    Type
REMARK                         _______ _______ _______ _____ _____    ______ ____
ROOT
ATOM      1  C   UNL     1       0.079  -4.251  -0.021  0.00  0.00    +0.141 A 
ATOM      2  N   UNL     1       0.069  -4.924   1.164  0.00  0.00    -0.307 N 
ATOM      3  H   UNL     1       0.063  -4.432   2.000  0.00  0.00    +0.170 HD
ATOM      4  C   UNL     1       0.067  -6.274   1.177  0.00  0.00    +0.252 A 
ATOM      5  O   UNL     1       0.058  -6.885   2.233  0.00  0.00    -0.268 OA
ATOM      6  C   UNL     1       0.075  -6.962  -0.047  0.00  0.00    +0.098 A 
ATOM      7  C   UNL     1       0.085  -6.227  -1.224  0.00  0.00    +0.082 A 
ATOM      8  N   UNL     1       0.081  -4.887  -1.171  0.00  0.00    -0.229 NA
ENDROOT
BRANCH   1  13
ATOM      9  C   UNL     1       0.084   1.503   0.011  0.00  0.00    +0.044 C 
ATOM     10  C   UNL     1       0.083  -0.004   0.002  0.00  0.00    -0.050 A 
ATOM     11  C   UNL     1       0.086  -0.686  -1.202  0.00  0.00    +0.004 A 
ATOM     12  C   UNL     1       0.085  -2.065  -1.216  0.00  0.00    +0.012 A 
ATOM     13  C   UNL     1       0.081  -2.773  -0.013  0.00  0.00    +0.017 A 
ATOM     14  C   UNL     1       0.077  -2.078   1.198  0.00  0.00    +0.012 A 
ATOM     15  C   UNL     1       0.085  -0.699   1.199  0.00  0.00    +0.004 A 
ENDBRANCH   1  13
BRANCH   7  16
ATOM     16  C   UNL     1       0.094  -6.919  -2.532  0.00  0.00    +0.044 A 
ATOM     17  C   UNL     1       0.218  -8.307  -2.589  0.00  0.00    +0.036 A 
ATOM     18  C   UNL     1       0.227  -8.949  -3.817  0.00  0.00    +0.025 A 
ATOM     19  C   UNL     1       0.112  -8.212  -4.990  0.00  0.00    +0.026 A 
ATOM     20  C   UNL     1      -0.011  -6.837  -4.939  0.00  0.00    +0.048 A 
ATOM     21  C   UNL     1      -0.027  -6.184  -3.717  0.00  0.00    +0.129 A 
BRANCH  18  22
ATOM     22  N   UNL     1       0.351 -10.342  -3.876  0.00  0.00    -0.358 N 
ATOM     23  H   UNL     1       0.431 -10.857  -3.058  0.00  0.00    +0.142 HD
ATOM     24  H   UNL     1       0.357 -10.792  -4.735  0.00  0.00    +0.142 HD
ENDBRANCH  18  22
BRANCH  21  25
ATOM     25  O   UNL     1      -0.154  -4.833  -3.669  0.00  0.00    -0.494 OA
ATOM     26  C   UNL     1      -0.273  -4.147  -4.917  0.00  0.00    +0.277 C 
ENDBRANCH  21  25
ENDBRANCH   7  16
TORSDOF 4
