REMARK  Name = ZINC66740066
REMARK  1 active torsions:
REMARK  status: ('A' for Active; 'I' for Inactive)
REMARK    1  A    between atoms: C_1  and  C_2
REMARK                            x       y       z     vdW  Elec       q    Type
REMARK                         _______ _______ _______ _____ _____    ______ ____
ROOT
ATOM      1  C   UNL     1      -0.018   1.503   0.010  0.00  0.00    +0.067 C 
ATOM      2  C   UNL     1       0.002  -0.004   0.002  0.00  0.00    +0.055 A 
ATOM      3  C   UNL     1       0.008  -0.795  -1.075  0.00  0.00    +0.082 A 
ATOM      4  C   UNL     1       0.025  -2.137  -0.574  0.00  0.00    +0.168 A 
ATOM      5  N   UNL     1       0.033  -2.062   0.724  0.00  0.00    -0.167 NA
ATOM      6  N   UNL     1       0.024  -0.824   1.094  0.00  0.00    -0.279 N 
ATOM      7  H   UNL     1       0.030  -0.521   2.015  0.00  0.00    +0.189 HD
ATOM      8  C   UNL     1       0.021  -3.269  -1.521  0.00  0.00    +0.268 C 
ATOM      9  O   UNL     1      -0.135  -4.414  -1.145  0.00  0.00    -0.268 OA
ATOM     10  N   UNL     1       0.198  -2.970  -2.830  0.00  0.00    -0.278 N 
ATOM     11  C   UNL     1       0.550  -1.640  -3.307  0.00  0.00    +0.206 C 
ATOM     12  N   UNL     1       0.005  -0.570  -2.458  0.00  0.00    -0.309 N 
ATOM     13  C   UNL     1       2.036  -1.493  -3.432  0.00  0.00    +0.027 A 
ATOM     14  C   UNL     1       3.040  -1.558  -2.490  0.00  0.00    +0.051 A 
ATOM     15  C   UNL     1       4.343  -1.374  -2.941  0.00  0.00    +0.159 A 
ATOM     16  C   UNL     1       4.615  -1.138  -4.277  0.00  0.00    +0.160 A 
ATOM     17  C   UNL     1       3.608  -1.072  -5.230  0.00  0.00    +0.065 A 
ATOM     18  C   UNL     1       2.297  -1.255  -4.786  0.00  0.00    +0.044 A 
ATOM     19  N   UNL     1       1.116  -1.238  -5.508  0.00  0.00    -0.282 N 
ATOM     20  C   UNL     1       0.041  -1.454  -4.724  0.00  0.00    +0.264 C 
ATOM     21  O   UNL     1      -1.117  -1.494  -5.084  0.00  0.00    -0.271 OA
ATOM     22  F   UNL     1       5.897  -0.966  -4.666  0.00  0.00    -0.202 F 
ATOM     23  F   UNL     1       5.364  -1.428  -2.057  0.00  0.00    -0.202 F 
ATOM     24  H   UNL     1       0.085  -3.679  -3.483  0.00  0.00    +0.152 HD
ATOM     25  H   UNL     1      -0.341   0.254  -2.838  0.00  0.00    +0.149 HD
ATOM     26  H   UNL     1       1.068  -1.090  -6.466  0.00  0.00    +0.155 HD
ENDROOT
TORSDOF 0
