REMARK  Name = ZINC21223079
REMARK  8 active torsions:
REMARK  status: ('A' for Active; 'I' for Inactive)
REMARK    1  A    between atoms: C_1  and  C_2
REMARK    2  A    between atoms: C_2  and  O_3
REMARK    3  A    between atoms: O_3  and  C_4
REMARK    4  A    between atoms: C_7  and  C_12
REMARK    5  A    between atoms: C_9  and  O_10
REMARK    6  A    between atoms: O_10  and  C_11
REMARK    7  A    between atoms: C_17  and  C_27
REMARK    8  A    between atoms: C_30  and  C_32
REMARK                            x       y       z     vdW  Elec       q    Type
REMARK                         _______ _______ _______ _____ _____    ______ ____
ROOT
ATOM      1  C   UNL     1       1.698   6.666  -1.601  0.00  0.00    +0.032 C 
ATOM      2  C   UNL     1       0.832   5.473  -1.200  0.00  0.00    +0.059 C 
ATOM      3  C   UNL     1       1.717   4.281  -0.874  0.00  0.00    +0.017 C 
ATOM      4  C   UNL     1       2.874   4.093  -1.530  0.00  0.00    +0.039 C 
ATOM      5  C   UNL     1       3.831   2.943  -1.328  0.00  0.00    +0.172 C 
ATOM      6  N   UNL     1       3.562   2.136  -0.156  0.00  0.00    -0.329 N 
ATOM      7  C   UNL     1       2.386   1.392  -0.046  0.00  0.00    +0.049 A 
ATOM      8  C   UNL     1       2.403   0.007  -0.037  0.00  0.00    +0.025 A 
ATOM      9  C   UNL     1       1.205  -0.686  -0.013  0.00  0.00    +0.002 A 
ATOM     10  C   UNL     1       0.002  -0.004   0.002  0.00  0.00    +0.002 A 
ATOM     11  C   UNL     1      -0.017   1.380   0.010  0.00  0.00    +0.025 A 
ATOM     12  C   UNL     1       1.181   2.075   0.002  0.00  0.00    +0.052 A 
ATOM     13  N   UNL     1       1.234   3.461   0.093  0.00  0.00    -0.316 N 
ATOM     14  C   UNL     1       3.299   5.026  -2.505  0.00  0.00    +0.163 C 
ATOM     15  O   UNL     1       4.341   4.821  -3.097  0.00  0.00    -0.292 OA
ATOM     16  C   UNL     1       2.512   6.259  -2.835  0.00  0.00    +0.088 C 
ATOM     17  H   UNL     1       4.290   2.102   0.668  0.00  0.00    +0.147 HD
ATOM     18  H   UNL     1       0.847   3.885   1.031  0.00  0.00    +0.152 HD
ENDROOT
BRANCH   1  22
ATOM     19  C   UNL     1      -0.793  10.010  -2.551  0.00  0.00    +0.162 A 
ATOM     20  C   UNL     1      -0.934   8.818  -3.244  0.00  0.00    +0.050 A 
ATOM     21  C   UNL     1      -0.127   7.739  -2.935  0.00  0.00    +0.008 A 
ATOM     22  C   UNL     1       0.821   7.846  -1.935  0.00  0.00    -0.040 A 
ATOM     23  C   UNL     1       0.963   9.030  -1.236  0.00  0.00    +0.053 A 
ATOM     24  C   UNL     1       0.161  10.117  -1.544  0.00  0.00    +0.162 A 
BRANCH  24  25
ATOM     25  O   UNL     1       0.302  11.284  -0.861  0.00  0.00    -0.491 OA
ATOM     26  C   UNL     1       1.302  11.322   0.159  0.00  0.00    +0.277 C 
ENDBRANCH  24  25
BRANCH  19  27
ATOM     27  O   UNL     1      -1.587  11.072  -2.854  0.00  0.00    -0.489 OA
BRANCH  27  29
ATOM     28  C   UNL     1      -3.339  12.182  -4.094  0.00  0.00    +0.048 C 
ATOM     29  C   UNL     1      -2.545  10.889  -3.898  0.00  0.00    +0.226 C 
ENDBRANCH  27  29
ENDBRANCH  19  27
ENDBRANCH   1  22
BRANCH   5  30
ATOM     30  C   UNL     1       3.769   2.051  -2.542  0.00  0.00    +0.130 A 
ATOM     31  C   UNL     1       4.651   2.043  -3.557  0.00  0.00    +0.047 A 
ATOM     32  C   UNL     1       4.212   1.060  -4.473  0.00  0.00    +0.045 A 
ATOM     33  C   UNL     1       3.088   0.526  -3.962  0.00  0.00    +0.102 A 
ATOM     34  O   UNL     1       2.828   1.126  -2.790  0.00  0.00    -0.463 OA
ATOM     35  C   UNL     1       2.264  -0.565  -4.596  0.00  0.00    +0.086 C 
ENDBRANCH   5  30
TORSDOF 5
