REMARK  Name = ZINC00721265
REMARK  8 active torsions:
REMARK  status: ('A' for Active; 'I' for Inactive)
REMARK    1  A    between atoms: C_1  and  C_2
REMARK    2  A    between atoms: C_4  and  C_26
REMARK    3  A    between atoms: C_4  and  C_30
REMARK    4  A    between atoms: C_5  and  C_24
REMARK    5  A    between atoms: C_6  and  N_23
REMARK    6  A    between atoms: N_7  and  C_8
REMARK    7  A    between atoms: C_11  and  S_14
REMARK    8  A    between atoms: S_14  and  N_17
REMARK                            x       y       z     vdW  Elec       q    Type
REMARK                         _______ _______ _______ _____ _____    ______ ____
ROOT
ATOM      1  C   UNL     1      -1.889   1.119   1.423  0.00  0.00    +0.061 C 
ATOM      2  C   UNL     1      -0.865   1.904   0.646  0.00  0.00    +0.011 C 
ATOM      3  C   UNL     1       0.384   1.497   0.631  0.00  0.00    +0.022 C 
ATOM      4  C   UNL     1       1.454   2.233  -0.123  0.00  0.00    +0.217 C 
ATOM      5  C   UNL     1       0.854   3.191  -1.112  0.00  0.00    +0.092 C 
ATOM      6  C   UNL     1      -0.453   3.560  -1.032  0.00  0.00    +0.107 C 
ATOM      7  N   UNL     1      -1.256   3.048  -0.039  0.00  0.00    -0.261 N 
ENDROOT
BRANCH   7   8
ATOM      8  C   UNL     1      -2.466   3.675   0.277  0.00  0.00    +0.040 A 
ATOM      9  C   UNL     1      -2.500   4.678   1.238  0.00  0.00    +0.026 A 
ATOM     10  C   UNL     1      -3.696   5.298   1.544  0.00  0.00    +0.030 A 
ATOM     11  C   UNL     1      -4.859   4.916   0.901  0.00  0.00    +0.109 A 
ATOM     12  C   UNL     1      -4.829   3.915  -0.052  0.00  0.00    +0.030 A 
ATOM     13  C   UNL     1      -3.636   3.294  -0.366  0.00  0.00    +0.026 A 
BRANCH  11  14
ATOM     14  S   UNL     1      -6.383   5.705   1.300  0.00  0.00    +0.074 S 
ATOM     15  O   UNL     1      -6.053   6.982   1.829  0.00  0.00    -0.150 OA
ATOM     16  O   UNL     1      -7.231   5.544   0.171  0.00  0.00    -0.150 OA
BRANCH  14  17
ATOM     17  N   UNL     1      -7.072   4.845   2.536  0.00  0.00    -0.194 N 
ATOM     18  C   UNL     1      -6.452   4.793   3.774  0.00  0.00    +0.177 A 
ATOM     19  N   UNL     1      -5.319   5.351   4.158  0.00  0.00    -0.232 NA
ATOM     20  C   UNL     1      -4.869   5.204   5.390  0.00  0.00    +0.120 A 
ATOM     21  C   UNL     1      -5.590   4.453   6.256  0.00  0.00    +0.068 A 
ATOM     22  S   UNL     1      -6.961   3.971   5.216  0.00  0.00    -0.059 S 
ATOM     23  H   UNL     1      -7.910   4.377   2.393  0.00  0.00    +0.176 HD
ENDBRANCH  14  17
ENDBRANCH  11  14
ENDBRANCH   7   8
BRANCH   4  24
ATOM     24  C   UNL     1       2.322   3.011   0.867  0.00  0.00    +0.412 C 
ATOM     25  F   UNL     1       2.912   2.120   1.770  0.00  0.00    -0.169 F 
ATOM     26  F   UNL     1       3.322   3.699   0.171  0.00  0.00    -0.169 F 
ATOM     27  F   UNL     1       1.527   3.925   1.566  0.00  0.00    -0.169 F 
ENDBRANCH   4  24
BRANCH   4  28
ATOM     28  C   UNL     1       2.328   1.222  -0.869  0.00  0.00    +0.412 C 
ATOM     29  F   UNL     1       1.537   0.494  -1.765  0.00  0.00    -0.169 F 
ATOM     30  F   UNL     1       3.327   1.901  -1.575  0.00  0.00    -0.169 F 
ATOM     31  F   UNL     1       2.917   0.347   0.050  0.00  0.00    -0.169 F 
ENDBRANCH   4  28
BRANCH   6  32
ATOM     32  N   UNL     1      -0.972   4.446  -1.946  0.00  0.00    -0.345 N 
ATOM     33  H   UNL     1      -0.389   4.875  -2.591  0.00  0.00    +0.144 HD
ATOM     34  H   UNL     1      -1.922   4.643  -1.944  0.00  0.00    +0.144 HD
ENDBRANCH   6  32
BRANCH   5  35
ATOM     35  C   UNL     1       1.673   3.726  -2.159  0.00  0.00    +0.099 C 
ATOM     36  N   UNL     1       2.322   4.150  -2.989  0.00  0.00    -0.191 NA
ENDBRANCH   5  35
TORSDOF 7
