REMARK  Name = ZINC16322173
REMARK  8 active torsions:
REMARK  status: ('A' for Active; 'I' for Inactive)
REMARK    1  A    between atoms: C_1  and  C_2
REMARK    2  A    between atoms: C_2  and  C_4
REMARK    3  A    between atoms: C_2  and  S_22
REMARK    4  A    between atoms: N_6  and  N_7
REMARK    5  A    between atoms: C_8  and  C_9
REMARK    6  A    between atoms: C_12  and  C_14
REMARK    7  A    between atoms: S_22  and  C_23
REMARK    8  A    between atoms: N_27  and  C_28
REMARK                            x       y       z     vdW  Elec       q    Type
REMARK                         _______ _______ _______ _____ _____    ______ ____
ROOT
ATOM      1  C   UNL     1       1.147   1.655   0.000  0.00  0.00    +0.245 C 
ATOM      2  O   UNL     1       1.130   2.869   0.007  0.00  0.00    -0.273 OA
ATOM      3  N   UNL     1      -0.011   0.966   0.007  0.00  0.00    -0.206 N 
ATOM      4  H   UNL     1       0.002  -0.004   0.002  0.00  0.00    +0.177 HD
ENDROOT
BRANCH   1   6
ATOM      5  C   UNL     1       2.798   0.445   1.398  0.00  0.00    +0.029 C 
ATOM      6  C   UNL     1       2.462   0.920  -0.017  0.00  0.00    +0.139 C 
BRANCH   6   7
ATOM      7  S   UNL     1       3.766   2.028  -0.607  0.00  0.00    -0.072 S 
BRANCH   7   8
ATOM      8  C   UNL     1       5.119   0.902  -0.669  0.00  0.00    +0.215 A 
ATOM      9  N   UNL     1       5.092  -0.374  -0.348  0.00  0.00    -0.101 NA
ATOM     10  N   UNL     1       6.250  -0.904  -0.512  0.00  0.00    -0.022 NA
ATOM     11  N   UNL     1       7.094  -0.026  -0.933  0.00  0.00    -0.038 NA
ATOM     12  N   UNL     1       6.395   1.187  -1.054  0.00  0.00    -0.187 N 
BRANCH  12  13
ATOM     13  C   UNL     1       6.901   2.424  -1.478  0.00  0.00    +0.070 A 
ATOM     14  C   UNL     1       6.104   3.283  -2.223  0.00  0.00    +0.028 A 
ATOM     15  C   UNL     1       6.603   4.503  -2.635  0.00  0.00    +0.002 A 
ATOM     16  C   UNL     1       7.899   4.865  -2.316  0.00  0.00    +0.000 A 
ATOM     17  C   UNL     1       8.697   4.010  -1.579  0.00  0.00    +0.002 A 
ATOM     18  C   UNL     1       8.201   2.790  -1.159  0.00  0.00    +0.028 A 
ENDBRANCH  12  13
ENDBRANCH   7   8
ENDBRANCH   6   7
ENDBRANCH   1   6
BRANCH   3  19
ATOM     19  N   UNL     1      -1.234   1.650   0.017  0.00  0.00    -0.185 NA
ATOM     20  C   UNL     1      -2.352   0.984   0.019  0.00  0.00    +0.176 C 
BRANCH  20  21
ATOM     21  C   UNL     1      -3.630   1.698   0.029  0.00  0.00    +0.148 A 
ATOM     22  C   UNL     1      -4.880   1.120   0.026  0.00  0.00    +0.051 A 
ATOM     23  C   UNL     1      -5.810   2.168   0.041  0.00  0.00    +0.050 A 
ATOM     24  C   UNL     1      -5.102   3.333   0.044  0.00  0.00    +0.138 A 
ATOM     25  O   UNL     1      -3.788   3.038   0.036  0.00  0.00    -0.454 OA
BRANCH  24  26
ATOM     26  C   UNL     1      -5.679   4.691   0.052  0.00  0.00    +0.053 A 
ATOM     27  C   UNL     1      -6.668   5.039  -0.871  0.00  0.00    +0.017 A 
ATOM     28  C   UNL     1      -7.208   6.307  -0.854  0.00  0.00    +0.039 A 
ATOM     29  C   UNL     1      -6.763   7.242   0.069  0.00  0.00    +0.126 A 
ATOM     30  C   UNL     1      -5.779   6.907   0.984  0.00  0.00    +0.077 A 
ATOM     31  C   UNL     1      -5.234   5.637   0.982  0.00  0.00    +0.137 A 
ATOM     32  F   UNL     1      -4.273   5.311   1.874  0.00  0.00    -0.205 F 
ATOM     33  F   UNL     1      -7.292   8.485   0.075  0.00  0.00    -0.205 F 
ENDBRANCH  24  26
ENDBRANCH  20  21
ENDBRANCH   3  19
TORSDOF 7
