REMARK  Name = ZINC49808760
REMARK  6 active torsions:
REMARK  status: ('A' for Active; 'I' for Inactive)
REMARK    1  A    between atoms: C_1  and  C_2
REMARK    2  A    between atoms: C_4  and  C_20
REMARK    3  A    between atoms: C_6  and  C_8
REMARK    4  A    between atoms: C_8  and  C_10
REMARK    5  A    between atoms: C_8  and  N_19
REMARK    6  A    between atoms: C_12  and  C_15
REMARK                            x       y       z     vdW  Elec       q    Type
REMARK                         _______ _______ _______ _____ _____    ______ ____
ROOT
ATOM      1  C   UNL     1       0.054  -2.844   2.489  0.00  0.00    +0.029 C 
ENDROOT
BRANCH   1   7
ATOM      2  C   UNL     1      -0.018   1.503   0.010  0.00  0.00    +0.044 C 
ATOM      3  C   UNL     1       0.002  -0.004   0.002  0.00  0.00    -0.050 A 
ATOM      4  C   UNL     1       0.006  -0.689  -1.199  0.00  0.00    +0.006 A 
ATOM      5  C   UNL     1       0.025  -2.071  -1.206  0.00  0.00    -0.050 A 
ATOM      6  C   UNL     1       0.040  -2.768  -0.013  0.00  0.00    +0.005 A 
ATOM      7  C   UNL     1       0.037  -2.084   1.188  0.00  0.00    -0.054 A 
ATOM      8  C   UNL     1       0.023  -0.702   1.195  0.00  0.00    +0.005 A 
ATOM      9  C   UNL     1       0.027  -2.817  -2.516  0.00  0.00    +0.044 C 
ENDBRANCH   1   7
BRANCH   1  10
ATOM     10  C   UNL     1      -1.342  -2.903   3.054  0.00  0.00    +0.162 A 
ATOM     11  N   UNL     1      -2.139  -3.978   3.049  0.00  0.00    -0.190 NA
ATOM     12  C   UNL     1      -3.278  -3.693   3.615  0.00  0.00    +0.332 A 
ATOM     13  O   UNL     1      -3.245  -2.412   4.004  0.00  0.00    -0.329 OA
ATOM     14  N   UNL     1      -1.967  -1.917   3.631  0.00  0.00    -0.062 NA
BRANCH  12  15
ATOM     15  C   UNL     1      -4.434  -4.642   3.801  0.00  0.00    +0.472 C 
ATOM     16  F   UNL     1      -4.303  -5.303   5.027  0.00  0.00    -0.162 F 
ATOM     17  F   UNL     1      -5.635  -3.923   3.784  0.00  0.00    -0.162 F 
ATOM     18  F   UNL     1      -4.438  -5.580   2.763  0.00  0.00    -0.162 F 
ENDBRANCH  12  15
ENDBRANCH   1  10
BRANCH   1  19
ATOM     19  N   UNL     1       0.940  -2.164   3.442  0.00  0.00    +0.387 N 
ATOM     20  H   UNL     1       1.875  -2.125   3.064  0.00  0.00    -0.089 HD
ATOM     21  H   UNL     1       0.604  -1.227   3.605  0.00  0.00    -0.089 HD
ATOM     22  H   UNL     1       0.951  -2.673   4.313  0.00  0.00    -0.089 HD
ENDBRANCH   1  19
TORSDOF 4
