REMARK  Name = ZINC14359830
REMARK  9 active torsions:
REMARK  status: ('A' for Active; 'I' for Inactive)
REMARK    1  A    between atoms: C_1  and  O_2
REMARK    2  A    between atoms: O_2  and  C_3
REMARK    3  A    between atoms: C_6  and  N_9
REMARK    4  A    between atoms: N_11  and  N_25
REMARK    5  A    between atoms: C_12  and  C_15
REMARK    6  A    between atoms: C_18  and  O_21
REMARK    7  A    between atoms: O_21  and  C_22
REMARK    8  A    between atoms: C_26  and  C_27
REMARK    9  A    between atoms: C_32  and  N_33
REMARK                            x       y       z     vdW  Elec       q    Type
REMARK                         _______ _______ _______ _____ _____    ______ ____
ROOT
ATOM      1  N   UNL     1       1.242   0.269   6.829  0.00  0.00    -0.334 N 
ATOM      2  C   UNL     1       2.280  -0.486   6.528  0.00  0.00    +0.173 A 
ATOM      3  N   UNL     1       3.076  -1.234   7.364  0.00  0.00    -0.209 N 
ATOM      4  C   UNL     1       4.081  -1.932   6.830  0.00  0.00    +0.082 A 
ATOM      5  C   UNL     1       4.286  -1.860   5.443  0.00  0.00    +0.077 A 
ATOM      6  S   UNL     1       3.017  -0.793   4.932  0.00  0.00    -0.058 S 
ATOM      7  H   UNL     1       0.959   0.421   7.881  0.00  0.00    +0.168 HD
ENDROOT
BRANCH   1  11
ATOM      8  C   UNL     1      -0.937   2.055   3.838  0.00  0.00    +0.120 A 
ATOM      9  C   UNL     1       0.091   2.761   4.464  0.00  0.00    +0.047 A 
ATOM     10  C   UNL     1       0.815   2.177   5.461  0.00  0.00    +0.029 A 
ATOM     11  C   UNL     1       0.530   0.853   5.851  0.00  0.00    +0.041 A 
ATOM     12  C   UNL     1      -0.507   0.145   5.210  0.00  0.00    +0.029 A 
ATOM     13  C   UNL     1      -1.225   0.744   4.218  0.00  0.00    +0.047 A 
BRANCH   8  15
ATOM     14  C   UNL     1      -1.309   3.988   2.510  0.00  0.00    +0.277 C 
ATOM     15  O   UNL     1      -1.655   2.644   2.851  0.00  0.00    -0.495 OA
ENDBRANCH   8  15
ENDBRANCH   1  11
BRANCH   4  16
ATOM     16  C   UNL     1       4.960  -2.752   7.676  0.00  0.00    +0.001 A 
ATOM     17  C   UNL     1       5.195  -2.385   9.009  0.00  0.00    +0.013 A 
ATOM     18  C   UNL     1       6.008  -3.153   9.793  0.00  0.00    +0.046 A 
ATOM     19  C   UNL     1       6.611  -4.293   9.268  0.00  0.00    +0.127 A 
ATOM     20  C   UNL     1       6.386  -4.658   7.944  0.00  0.00    +0.046 A 
ATOM     21  C   UNL     1       5.570  -3.900   7.153  0.00  0.00    +0.013 A 
BRANCH  19  22
ATOM     22  O   UNL     1       7.422  -5.050  10.049  0.00  0.00    -0.434 OA
BRANCH  22  23
ATOM     23  C   UNL     1       7.610  -4.618  11.398  0.00  0.00    +0.541 C 
ATOM     24  F   UNL     1       8.172  -3.337  11.404  0.00  0.00    -0.166 F 
ATOM     25  F   UNL     1       6.375  -4.588  12.055  0.00  0.00    -0.166 F 
ENDBRANCH  22  23
ENDBRANCH  19  22
ENDBRANCH   4  16
BRANCH   3  26
ATOM     26  N   UNL     1       2.836  -1.267   8.744  0.00  0.00    -0.172 NA
ATOM     27  C   UNL     1       1.640  -1.022   9.204  0.00  0.00    +0.143 C 
BRANCH  27  28
ATOM     28  C   UNL     1       1.416  -0.922  10.654  0.00  0.00    +0.025 A 
ATOM     29  C   UNL     1       2.503  -0.914  11.535  0.00  0.00    +0.012 A 
ATOM     30  C   UNL     1       2.284  -0.816  12.893  0.00  0.00    +0.001 A 
ATOM     31  C   UNL     1       0.992  -0.735  13.385  0.00  0.00    +0.002 A 
ATOM     32  C   UNL     1      -0.088  -0.748  12.521  0.00  0.00    +0.033 A 
ATOM     33  C   UNL     1       0.114  -0.841  11.160  0.00  0.00    +0.135 A 
BRANCH  33  34
ATOM     34  N   UNL     1      -1.044  -0.855  10.237  0.00  0.00    +0.057 N 
ATOM     35  O   UNL     1      -2.258  -0.642  10.700  0.00  0.00    -0.126 OA
ATOM     36  O   UNL     1      -0.859  -1.081   8.953  0.00  0.00    -0.126 OA
ENDBRANCH  33  34
ENDBRANCH  27  28
ENDBRANCH   3  26
TORSDOF 8
