REMARK  Name = ZINC40032941
REMARK  6 active torsions:
REMARK  status: ('A' for Active; 'I' for Inactive)
REMARK    1  A    between atoms: C_1  and  C_2
REMARK    2  A    between atoms: C_2  and  O_3
REMARK    3  A    between atoms: O_3  and  C_4
REMARK    4  A    between atoms: C_6  and  C_11
REMARK    5  A    between atoms: C_9  and  O_10
REMARK    6  A    between atoms: C_20  and  C_22
REMARK                            x       y       z     vdW  Elec       q    Type
REMARK                         _______ _______ _______ _____ _____    ______ ____
ROOT
ATOM      1  C   UNL     1       0.612  -4.949  -0.019  0.00  0.00    +0.028 C 
ATOM      2  C   UNL     1       0.449  -6.294   0.078  0.00  0.00    +0.081 A 
ATOM      3  C   UNL     1       1.464  -7.351   0.193  0.00  0.00    +0.268 A 
ATOM      4  O   UNL     1       2.651  -7.080   0.214  0.00  0.00    -0.266 OA
ATOM      5  N   UNL     1       1.045  -8.620   0.273  0.00  0.00    -0.275 N 
ATOM      6  C   UNL     1      -0.314  -8.868   0.254  0.00  0.00    +0.178 A 
ATOM      7  N   UNL     1      -0.836 -10.055   0.336  0.00  0.00    -0.223 NA
ATOM      8  C   UNL     1      -0.119 -11.203   0.453  0.00  0.00    +0.076 C 
ATOM      9  C   UNL     1       1.225 -11.167   0.465  0.00  0.00    -0.016 C 
ATOM     10  C   UNL     1       1.912  -9.826   0.384  0.00  0.00    +0.151 C 
ATOM     11  C   UNL     1       2.033 -12.432   0.528  0.00  0.00    +0.040 C 
ATOM     12  C   UNL     1       1.347 -13.472   1.411  0.00  0.00    +0.040 C 
ATOM     13  C   UNL     1      -0.096 -13.624   1.007  0.00  0.00    -0.038 A 
ATOM     14  C   UNL     1      -0.806 -12.515   0.555  0.00  0.00    +0.004 A 
ATOM     15  C   UNL     1      -2.145 -12.643   0.200  0.00  0.00    +0.010 A 
ATOM     16  C   UNL     1      -2.761 -13.876   0.289  0.00  0.00    +0.001 A 
ATOM     17  C   UNL     1      -2.049 -14.978   0.728  0.00  0.00    +0.000 A 
ATOM     18  C   UNL     1      -0.718 -14.852   1.087  0.00  0.00    +0.004 A 
ATOM     19  S   UNL     1      -1.056  -7.254   0.107  0.00  0.00    -0.046 S 
ENDROOT
BRANCH  10  20
ATOM     20  C   UNL     1       2.830  -9.847  -0.811  0.00  0.00    -0.020 A 
ATOM     21  C   UNL     1       2.351  -9.485  -2.056  0.00  0.00    +0.009 A 
ATOM     22  C   UNL     1       3.192  -9.504  -3.152  0.00  0.00    +0.039 A 
ATOM     23  C   UNL     1       4.515  -9.885  -3.003  0.00  0.00    +0.123 A 
ATOM     24  C   UNL     1       4.994 -10.248  -1.755  0.00  0.00    +0.039 A 
ATOM     25  C   UNL     1       4.152 -10.223  -0.659  0.00  0.00    +0.009 A 
ATOM     26  F   UNL     1       5.338  -9.905  -4.074  0.00  0.00    -0.205 F 
ENDBRANCH  10  20
BRANCH   1  29
ATOM     27  C   UNL     1      -1.562  -1.905  -0.286  0.00  0.00    +0.162 A 
ATOM     28  C   UNL     1      -0.469  -2.711  -0.035  0.00  0.00    +0.057 A 
ATOM     29  C   UNL     1      -0.546  -4.087  -0.284  0.00  0.00    -0.020 A 
ATOM     30  C   UNL     1      -1.732  -4.637  -0.786  0.00  0.00    +0.012 A 
ATOM     31  C   UNL     1      -2.817  -3.825  -1.034  0.00  0.00    +0.050 A 
ATOM     32  C   UNL     1      -2.740  -2.462  -0.781  0.00  0.00    +0.158 A 
BRANCH  32  33
ATOM     33  O   UNL     1      -3.816  -1.667  -1.022  0.00  0.00    -0.503 OA
ATOM     34  H   UNL     1      -3.843  -1.304  -1.918  0.00  0.00    +0.292 HD
ENDBRANCH  32  33
BRANCH  27  35
ATOM     35  O   UNL     1      -1.491  -0.569  -0.045  0.00  0.00    -0.489 OA
BRANCH  35  37
ATOM     36  C   UNL     1      -0.363   1.446   0.669  0.00  0.00    +0.048 C 
ATOM     37  C   UNL     1      -0.253  -0.066   0.462  0.00  0.00    +0.226 C 
ENDBRANCH  35  37
ENDBRANCH  27  35
ENDBRANCH   1  29
TORSDOF 5
