REMARK  Name = ZINC12245515
REMARK  9 active torsions:
REMARK  status: ('A' for Active; 'I' for Inactive)
REMARK    1  A    between atoms: C_1  and  C_2
REMARK    2  A    between atoms: C_5  and  C_8
REMARK    3  A    between atoms: N_10  and  C_11
REMARK    4  A    between atoms: N_10  and  C_20
REMARK    5  A    between atoms: C_11  and  C_12
REMARK    6  A    between atoms: C_12  and  C_13
REMARK    7  A    between atoms: C_13  and  N_14
REMARK    8  A    between atoms: C_20  and  C_21
REMARK    9  A    between atoms: C_29  and  N_30
REMARK                            x       y       z     vdW  Elec       q    Type
REMARK                         _______ _______ _______ _____ _____    ______ ____
ROOT
ATOM      1  C   UNL     1       1.229  -0.795   0.149  0.00  0.00    +0.146 C 
ENDROOT
BRANCH   1   2
ATOM      2  C   UNL     1       2.156  -0.931   1.329  0.00  0.00    +0.008 A 
ATOM      3  C   UNL     1       3.281  -0.166   1.405  0.00  0.00    +0.018 A 
ATOM      4  C   UNL     1       4.123  -0.323   2.525  0.00  0.00    -0.001 A 
ATOM      5  C   UNL     1       5.297   0.428   2.667  0.00  0.00    +0.014 A 
ATOM      6  C   UNL     1       6.091   0.254   3.764  0.00  0.00    -0.043 A 
ATOM      7  C   UNL     1       5.745  -0.668   4.751  0.00  0.00    -0.042 A 
ATOM      8  C   UNL     1       4.609  -1.415   4.641  0.00  0.00    +0.030 A 
ATOM      9  C   UNL     1       3.770  -1.262   3.525  0.00  0.00    +0.048 A 
ATOM     10  C   UNL     1       1.860  -1.840   2.355  0.00  0.00    +0.104 A 
ATOM     11  C   UNL     1       6.794  -0.654   5.845  0.00  0.00    +0.036 C 
ATOM     12  C   UNL     1       8.024   0.035   5.219  0.00  0.00    +0.009 C 
ATOM     13  C   UNL     1       7.390   0.936   4.139  0.00  0.00    +0.036 C 
ATOM     14  N   UNL     1       2.634  -2.037   3.451  0.00  0.00    -0.343 N 
ATOM     15  H   UNL     1       2.388  -2.719   4.178  0.00  0.00    +0.167 HD
BRANCH  10  16
ATOM     16  N   UNL     1       0.709  -2.608   2.267  0.00  0.00    -0.312 N 
ATOM     17  C   UNL     1       0.075  -2.760   3.585  0.00  0.00    +0.134 C 
ATOM     18  C   UNL     1      -1.221  -3.561   3.433  0.00  0.00    +0.178 C 
ATOM     19  O   UNL     1      -0.927  -4.822   2.825  0.00  0.00    -0.377 OA
ATOM     20  C   UNL     1      -0.309  -4.712   1.540  0.00  0.00    +0.178 C 
ATOM     21  C   UNL     1       0.995  -3.922   1.673  0.00  0.00    +0.134 C 
ENDBRANCH  10  16
ENDBRANCH   1   2
BRANCH   1  24
ATOM     22  C   UNL     1       0.215   1.403   0.432  0.00  0.00    +0.247 C 
ATOM     23  O   UNL     1       1.274   1.902   0.102  0.00  0.00    -0.270 OA
ATOM     24  N   UNL     1       0.098   0.063   0.513  0.00  0.00    -0.293 N 
BRANCH  22  29
ATOM     25  C   UNL     1      -4.303   4.765   1.616  0.00  0.00    +0.044 C 
ATOM     26  C   UNL     1      -3.120   3.884   1.306  0.00  0.00    -0.050 A 
ATOM     27  C   UNL     1      -1.836   4.366   1.490  0.00  0.00    +0.004 A 
ATOM     28  C   UNL     1      -0.748   3.566   1.208  0.00  0.00    +0.013 A 
ATOM     29  C   UNL     1      -0.946   2.267   0.737  0.00  0.00    +0.037 A 
ATOM     30  C   UNL     1      -2.243   1.788   0.549  0.00  0.00    +0.013 A 
ATOM     31  C   UNL     1      -3.322   2.598   0.840  0.00  0.00    +0.004 A 
ENDBRANCH  22  29
BRANCH  24  32
ATOM     32  C   UNL     1      -1.160  -0.536   0.966  0.00  0.00    +0.110 C 
BRANCH  32  33
ATOM     33  C   UNL     1      -1.885  -1.163  -0.227  0.00  0.00    +0.038 C 
BRANCH  33  34
ATOM     34  C   UNL     1      -3.253  -1.679   0.222  0.00  0.00    +0.109 C 
BRANCH  34  35
ATOM     35  N   UNL     1      -3.931  -2.314  -0.911  0.00  0.00    -0.301 N 
ATOM     36  C   UNL     1      -4.817  -1.611  -1.845  0.00  0.00    +0.108 C 
ATOM     37  C   UNL     1      -4.931  -2.537  -3.079  0.00  0.00    +0.028 C 
ATOM     38  C   UNL     1      -4.649  -3.924  -2.456  0.00  0.00    +0.097 C 
ATOM     39  C   UNL     1      -3.826  -3.617  -1.224  0.00  0.00    +0.216 C 
ATOM     40  O   UNL     1      -3.167  -4.428  -0.609  0.00  0.00    -0.276 OA
ENDBRANCH  34  35
ENDBRANCH  33  34
ENDBRANCH  32  33
ENDBRANCH  24  32
ENDBRANCH   1  24
TORSDOF 8
