REMARK  Name = ZINC58804042
REMARK  6 active torsions:
REMARK  status: ('A' for Active; 'I' for Inactive)
REMARK    1  A    between atoms: N_11  and  C_12
REMARK    2  A    between atoms: C_18  and  C_20
REMARK    3  A    between atoms: C_21  and  C_22
REMARK    4  A    between atoms: C_25  and  S_28
REMARK    5  A    between atoms: S_28  and  N_31
REMARK    6  A    between atoms: N_31  and  C_32
REMARK                            x       y       z     vdW  Elec       q    Type
REMARK                         _______ _______ _______ _____ _____    ______ ____
ROOT
ATOM      1  C   UNL     1       4.871  -0.598  -0.046  0.00  0.00    +0.095 C 
ATOM      2  C   UNL     1       5.510  -1.187  -1.305  0.00  0.00    +0.044 C 
ATOM      3  C   UNL     1       7.000  -0.832  -1.331  0.00  0.00    +0.110 C 
ATOM      4  N   UNL     1       7.615  -1.281  -0.075  0.00  0.00    -0.298 N 
ATOM      5  C   UNL     1       7.024  -0.846   1.197  0.00  0.00    +0.110 C 
ATOM      6  C   UNL     1       5.533  -1.202   1.195  0.00  0.00    +0.044 C 
ATOM      7  C   UNL     1       8.702  -2.078  -0.090  0.00  0.00    +0.239 C 
ATOM      8  O   UNL     1       9.258  -2.368   0.953  0.00  0.00    -0.271 OA
ENDROOT
BRANCH   1  19
ATOM      9  C   UNL     1      -0.027   1.350   0.011  0.00  0.00    +0.002 A 
ATOM     10  C   UNL     1       1.156   2.068   0.004  0.00  0.00    +0.002 A 
ATOM     11  C   UNL     1       2.370   1.409  -0.011  0.00  0.00    +0.028 A 
ATOM     12  C   UNL     1       2.404   0.023  -0.019  0.00  0.00    +0.070 A 
ATOM     13  C   UNL     1       1.210  -0.701  -0.012  0.00  0.00    +0.067 A 
ATOM     14  C   UNL     1      -0.004  -0.031   0.003  0.00  0.00    +0.028 A 
ATOM     15  N   UNL     1       1.557  -2.050  -0.022  0.00  0.00    -0.306 N 
ATOM     16  H   UNL     1       0.937  -2.796  -0.021  0.00  0.00    +0.170 HD
ATOM     17  C   UNL     1       2.900  -2.142  -0.035  0.00  0.00    +0.328 A 
ATOM     18  O   UNL     1       3.531  -3.182  -0.047  0.00  0.00    -0.247 OA
ATOM     19  N   UNL     1       3.439  -0.908  -0.034  0.00  0.00    -0.289 N 
ENDBRANCH   1  19
BRANCH   7  20
ATOM     20  C   UNL     1       9.213  -2.595  -1.361  0.00  0.00    +0.068 C 
ATOM     21  C   UNL     1      10.235  -3.475  -1.369  0.00  0.00    +0.013 C 
BRANCH  21  22
ATOM     22  C   UNL     1      10.749  -3.995  -2.647  0.00  0.00    -0.025 A 
ATOM     23  C   UNL     1      10.184  -3.574  -3.855  0.00  0.00    +0.010 A 
ATOM     24  C   UNL     1      10.671  -4.066  -5.048  0.00  0.00    +0.029 A 
ATOM     25  C   UNL     1      11.716  -4.973  -5.051  0.00  0.00    +0.105 A 
ATOM     26  C   UNL     1      12.280  -5.395  -3.859  0.00  0.00    +0.029 A 
ATOM     27  C   UNL     1      11.808  -4.908  -2.659  0.00  0.00    +0.010 A 
BRANCH  25  28
ATOM     28  S   UNL     1      12.331  -5.596  -6.580  0.00  0.00    +0.059 S 
ATOM     29  O   UNL     1      12.947  -6.844  -6.293  0.00  0.00    -0.153 OA
ATOM     30  O   UNL     1      11.278  -5.466  -7.525  0.00  0.00    -0.153 OA
BRANCH  28  31
ATOM     31  N   UNL     1      13.539  -4.576  -7.074  0.00  0.00    -0.187 NA
ATOM     32  H   UNL     1      13.432  -4.055  -7.885  0.00  0.00    +0.148 HD
BRANCH  31  33
ATOM     33  C   UNL     1      14.768  -4.460  -6.286  0.00  0.00    +0.077 C 
ATOM     34  C   UNL     1      15.457  -3.094  -6.248  0.00  0.00    +0.022 C 
ATOM     35  C   UNL     1      16.077  -4.242  -7.048  0.00  0.00    +0.022 C 
ENDBRANCH  31  33
ENDBRANCH  28  31
ENDBRANCH  25  28
ENDBRANCH  21  22
ENDBRANCH   7  20
TORSDOF 6
