REMARK  Name = ZINC25584907
REMARK  14 active torsions:
REMARK  status: ('A' for Active; 'I' for Inactive)
REMARK    1  A    between atoms: C_1  and  C_2
REMARK    2  A    between atoms: C_2  and  C_3
REMARK    3  A    between atoms: C_3  and  C_4
REMARK    4  A    between atoms: C_4  and  N_5
REMARK    5  A    between atoms: N_5  and  N_6
REMARK    6  A    between atoms: C_7  and  C_8
REMARK    7  A    between atoms: C_7  and  C_30
REMARK    8  A    between atoms: C_8  and  C_26
REMARK    9  A    between atoms: C_9  and  C_11
REMARK   10  A    between atoms: C_19  and  N_23
REMARK   11  A    between atoms: C_26  and  O_28
REMARK   12  A    between atoms: O_28  and  C_29
REMARK   13  A    between atoms: C_30  and  O_32
REMARK   14  A    between atoms: O_32  and  C_33
REMARK                            x       y       z     vdW  Elec       q    Type
REMARK                         _______ _______ _______ _____ _____    ______ ____
ROOT
ATOM      1  C   UNL     1      -4.579  -5.786   0.188  0.00  0.00    +0.144 C 
ATOM      2  C   UNL     1      -5.873  -6.250   0.129  0.00  0.00    +0.257 C 
ATOM      3  O   UNL     1      -6.893  -5.385  -0.085  0.00  0.00    -0.281 OA
ENDROOT
BRANCH   2   4
ATOM      4  C   UNL     1      -6.149  -7.686   0.298  0.00  0.00    +0.290 C 
ATOM      5  O   UNL     1      -6.433  -8.126   1.396  0.00  0.00    -0.266 OA
ATOM      6  N   UNL     1      -6.087  -8.514  -0.764  0.00  0.00    -0.258 N 
ATOM      7  C   UNL     1      -6.346  -9.864  -0.605  0.00  0.00    +0.166 A 
ATOM      8  N   UNL     1      -6.671 -10.517   0.486  0.00  0.00    -0.225 NA
ATOM      9  C   UNL     1      -6.898 -11.848   0.495  0.00  0.00    +0.080 A 
ATOM     10  C   UNL     1      -7.252 -12.666   1.593  0.00  0.00    +0.031 A 
ATOM     11  C   UNL     1      -7.447 -14.013   1.428  0.00  0.00    +0.035 A 
ATOM     12  C   UNL     1      -7.306 -14.620   0.189  0.00  0.00    +0.127 A 
ATOM     13  C   UNL     1      -6.961 -13.850  -0.907  0.00  0.00    +0.050 A 
ATOM     14  C   UNL     1      -6.764 -12.501  -0.752  0.00  0.00    +0.043 A 
ATOM     15  S   UNL     1      -6.331 -11.160  -1.835  0.00  0.00    -0.052 S 
ATOM     16  H   UNL     1      -5.860  -8.164  -1.639  0.00  0.00    +0.157 HD
BRANCH  12  17
ATOM     17  N   UNL     1      -7.523 -16.076   0.040  0.00  0.00    +0.056 N 
ATOM     18  O   UNL     1      -7.824 -16.744   1.002  0.00  0.00    -0.126 OA
ATOM     19  O   UNL     1      -7.399 -16.599  -1.043  0.00  0.00    -0.126 OA
ENDBRANCH  12  17
ENDBRANCH   2   4
BRANCH   1  21
ATOM     20  N   UNL     1      -3.075  -3.896   0.093  0.00  0.00    -0.179 NA
ATOM     21  C   UNL     1      -4.312  -4.336   0.150  0.00  0.00    +0.183 C 
BRANCH  20  22
ATOM     22  N   UNL     1      -2.836  -2.630   0.160  0.00  0.00    -0.268 N 
ATOM     23  H   UNL     1      -3.572  -1.998   0.178  0.00  0.00    +0.168 HD
BRANCH  22  24
ATOM     24  C   UNL     1      -1.454  -2.146   0.207  0.00  0.00    +0.122 C 
BRANCH  24  25
ATOM     25  C   UNL     1      -1.451  -0.618   0.283  0.00  0.00    +0.020 C 
BRANCH  25  27
ATOM     26  C   UNL     1      -0.005   1.415   0.409  0.00  0.00    +0.004 C 
ATOM     27  C   UNL     1      -0.008  -0.113   0.333  0.00  0.00    -0.002 C 
ENDBRANCH  25  27
ENDBRANCH  24  25
ENDBRANCH  22  24
ENDBRANCH  20  22
BRANCH  21  28
ATOM     28  C   UNL     1      -5.431  -3.382   0.177  0.00  0.00    +0.360 C 
ATOM     29  O   UNL     1      -5.972  -3.050  -0.860  0.00  0.00    -0.243 OA
BRANCH  28  30
ATOM     30  O   UNL     1      -5.857  -2.874   1.351  0.00  0.00    -0.463 OA
ATOM     31  C   UNL     1      -6.948  -1.953   1.303  0.00  0.00    +0.280 C 
ENDBRANCH  28  30
ENDBRANCH  21  28
ENDBRANCH   1  21
BRANCH   1  32
ATOM     32  C   UNL     1      -3.457  -6.739   0.290  0.00  0.00    +0.345 C 
ATOM     33  O   UNL     1      -3.667  -7.934   0.216  0.00  0.00    -0.245 OA
BRANCH  32  34
ATOM     34  O   UNL     1      -2.200  -6.285   0.465  0.00  0.00    -0.464 OA
ATOM     35  C   UNL     1      -1.164  -7.264   0.555  0.00  0.00    +0.280 C 
ENDBRANCH  32  34
ENDBRANCH   1  32
TORSDOF 11
