REMARK  Name = ZINC28462745
REMARK  9 active torsions:
REMARK  status: ('A' for Active; 'I' for Inactive)
REMARK    1  A    between atoms: C_1  and  C_2
REMARK    2  A    between atoms: C_2  and  C_3
REMARK    3  A    between atoms: C_3  and  C_4
REMARK    4  A    between atoms: C_3  and  C_5
REMARK    5  A    between atoms: C_3  and  C_6
REMARK    6  A    between atoms: C_14  and  N_23
REMARK    7  A    between atoms: N_23  and  S_24
REMARK    8  A    between atoms: S_24  and  C_27
REMARK    9  A    between atoms: C_31  and  C_33
REMARK                            x       y       z     vdW  Elec       q    Type
REMARK                         _______ _______ _______ _____ _____    ______ ____
ROOT
ATOM      1  C   UNL     1       1.859   1.381  -0.325  0.00  0.00    -0.000 C 
ATOM      2  C   UNL     1       1.139   1.901   0.923  0.00  0.00    +0.012 C 
ATOM      3  C   UNL     1      -0.280   1.324   0.975  0.00  0.00    +0.075 C 
ATOM      4  C   UNL     1      -0.197  -0.173   0.784  0.00  0.00    +0.110 A 
ATOM      5  C   UNL     1       0.883  -0.800   0.284  0.00  0.00    +0.002 A 
ATOM      6  C   UNL     1       0.568  -2.226   0.261  0.00  0.00    +0.026 A 
ATOM      7  C   UNL     1       1.271  -3.376  -0.140  0.00  0.00    +0.037 A 
ATOM      8  C   UNL     1       0.701  -4.609  -0.042  0.00  0.00    +0.057 A 
ATOM      9  C   UNL     1      -0.612  -4.745   0.469  0.00  0.00    +0.008 A 
ATOM     10  C   UNL     1      -1.215  -6.006   0.576  0.00  0.00    +0.010 A 
ATOM     11  C   UNL     1      -2.480  -6.112   1.071  0.00  0.00    +0.001 A 
ATOM     12  C   UNL     1      -3.187  -4.983   1.474  0.00  0.00    +0.001 A 
ATOM     13  C   UNL     1      -2.632  -3.742   1.384  0.00  0.00    +0.012 A 
ATOM     14  C   UNL     1      -1.331  -3.596   0.878  0.00  0.00    +0.027 A 
ATOM     15  C   UNL     1      -0.729  -2.325   0.771  0.00  0.00    +0.143 A 
ATOM     16  O   UNL     1      -1.146  -1.077   1.071  0.00  0.00    -0.459 OA
ATOM     17  C   UNL     1       2.150  -0.116  -0.156  0.00  0.00    +0.043 C 
ENDROOT
BRANCH   1  18
ATOM     18  C   UNL     1       3.175   2.139  -0.509  0.00  0.00    -0.032 C 
ATOM     19  C   UNL     1       4.061   1.928   0.720  0.00  0.00    +0.011 C 
ATOM     20  C   UNL     1       3.895   1.617  -1.753  0.00  0.00    +0.011 C 
BRANCH  18  22
ATOM     21  C   UNL     1       4.199   4.391  -0.862  0.00  0.00    +0.004 C 
ATOM     22  C   UNL     1       2.884   3.632  -0.677  0.00  0.00    +0.003 C 
ENDBRANCH  18  22
ENDBRANCH   1  18
BRANCH   8  23
ATOM     23  N   UNL     1       1.413  -5.740  -0.445  0.00  0.00    -0.216 N 
ATOM     24  H   UNL     1       0.886  -6.580  -0.922  0.00  0.00    +0.174 HD
BRANCH  23  25
ATOM     25  S   UNL     1       3.049  -5.819  -0.205  0.00  0.00    +0.072 S 
ATOM     26  O   UNL     1       3.454  -7.126  -0.587  0.00  0.00    -0.150 OA
ATOM     27  O   UNL     1       3.602  -4.648  -0.790  0.00  0.00    -0.150 OA
BRANCH  25  28
ATOM     28  C   UNL     1       3.328  -5.692   1.531  0.00  0.00    +0.109 A 
ATOM     29  C   UNL     1       3.365  -6.836   2.309  0.00  0.00    +0.029 A 
ATOM     30  C   UNL     1       3.584  -6.747   3.672  0.00  0.00    +0.003 A 
ATOM     31  C   UNL     1       3.766  -5.514   4.265  0.00  0.00    +0.015 A 
ATOM     32  C   UNL     1       3.729  -4.356   3.486  0.00  0.00    +0.065 A 
ATOM     33  C   UNL     1       3.513  -4.455   2.110  0.00  0.00    +0.044 A 
BRANCH  32  34
ATOM     34  C   UNL     1       3.923  -3.033   4.114  0.00  0.00    +0.387 C 
ATOM     35  O   UNL     1       3.890  -2.027   3.434  0.00  0.00    -0.241 OA
ATOM     36  O   UNL     1       4.136  -2.942   5.441  0.00  0.00    -0.241 OA
ENDBRANCH  32  34
ENDBRANCH  25  28
ENDBRANCH  23  25
ENDBRANCH   8  23
TORSDOF 6
