REMARK  Name = ZINC22852149
REMARK  6 active torsions:
REMARK  status: ('A' for Active; 'I' for Inactive)
REMARK    1  A    between atoms: C_5  and  C_7
REMARK    2  A    between atoms: C_7  and  C_9
REMARK    3  A    between atoms: C_7  and  N_23
REMARK    4  A    between atoms: C_10  and  O_22
REMARK    5  A    between atoms: C_15  and  C_17
REMARK    6  A    between atoms: N_26  and  C_29
REMARK                            x       y       z     vdW  Elec       q    Type
REMARK                         _______ _______ _______ _____ _____    ______ ____
ROOT
ATOM      1  C   UNL     1      -6.203  -0.532  -1.033  0.00  0.00    +0.132 C 
ENDROOT
BRANCH   1   2
ATOM      2  C   UNL     1      -7.138   0.592  -1.394  0.00  0.00    +0.076 A 
ATOM      3  C   UNL     1      -8.367   0.849  -0.930  0.00  0.00    +0.228 A 
ATOM      4  N   UNL     1      -9.074   1.937  -1.381  0.00  0.00    -0.173 N 
ATOM      5  C   UNL     1      -8.470   2.726  -2.322  0.00  0.00    +0.200 A 
ATOM      6  S   UNL     1      -6.901   1.927  -2.557  0.00  0.00    -0.047 S 
ATOM      7  N   UNL     1      -9.264   3.707  -2.649  0.00  0.00    -0.197 NA
ATOM      8  C   UNL     1     -10.403   3.607  -1.950  0.00  0.00    +0.218 A 
ATOM      9  N   UNL     1     -10.336   2.551  -1.169  0.00  0.00    -0.138 NA
BRANCH   8  10
ATOM     10  C   UNL     1     -11.550   4.533  -2.043  0.00  0.00    +0.173 A 
ATOM     11  C   UNL     1     -11.630   5.627  -2.847  0.00  0.00    +0.053 A 
ATOM     12  C   UNL     1     -12.891   6.212  -2.614  0.00  0.00    +0.042 A 
ATOM     13  C   UNL     1     -13.512   5.455  -1.688  0.00  0.00    +0.196 A 
ATOM     14  O   UNL     1     -12.701   4.438  -1.350  0.00  0.00    -0.460 OA
ENDBRANCH   8  10
BRANCH   3  15
ATOM     15  O   UNL     1      -8.921   0.026   0.001  0.00  0.00    -0.492 OA
ATOM     16  H   UNL     1      -9.931   0.232   0.386  0.00  0.00    +0.294 HD
ENDBRANCH   3  15
ENDBRANCH   1   2
BRANCH   1  21
ATOM     17  C   UNL     1      -5.226  -2.386  -4.174  0.00  0.00    +0.000 A 
ATOM     18  C   UNL     1      -6.152  -3.413  -4.189  0.00  0.00    +0.003 A 
ATOM     19  C   UNL     1      -7.096  -3.507  -3.185  0.00  0.00    +0.039 A 
ATOM     20  C   UNL     1      -7.110  -2.578  -2.159  0.00  0.00    +0.128 A 
ATOM     21  C   UNL     1      -6.185  -1.548  -2.146  0.00  0.00    +0.010 A 
ATOM     22  C   UNL     1      -5.242  -1.455  -3.153  0.00  0.00    +0.008 A 
ATOM     23  F   UNL     1      -8.029  -2.673  -1.173  0.00  0.00    -0.205 F 
ENDBRANCH   1  21
BRANCH   1  24
ATOM     24  N   UNL     1      -4.848   0.002  -0.836  0.00  0.00    -0.288 NA
ATOM     25  C   UNL     1      -4.837   1.039   0.205  0.00  0.00    +0.104 C 
ATOM     26  C   UNL     1      -3.428   1.624   0.324  0.00  0.00    +0.120 C 
ATOM     27  N   UNL     1      -2.479   0.548   0.645  0.00  0.00    -0.327 N 
ATOM     28  C   UNL     1      -2.490  -0.489  -0.396  0.00  0.00    +0.120 C 
ATOM     29  C   UNL     1      -3.900  -1.074  -0.515  0.00  0.00    +0.104 C 
BRANCH  27  30
ATOM     30  C   UNL     1      -1.192   1.056   0.832  0.00  0.00    +0.031 A 
ATOM     31  C   UNL     1      -0.144   0.199   1.146  0.00  0.00    +0.023 A 
ATOM     32  C   UNL     1       1.129   0.703   1.324  0.00  0.00    +0.003 A 
ATOM     33  C   UNL     1       1.362   2.060   1.197  0.00  0.00    +0.020 A 
ATOM     34  C   UNL     1       0.320   2.917   0.890  0.00  0.00    +0.043 A 
ATOM     35  C   UNL     1      -0.957   2.419   0.711  0.00  0.00    +0.043 A 
ATOM     36 CL   UNL     1       0.617   4.620   0.731  0.00  0.00    -0.083 Cl
ENDBRANCH  27  30
ENDBRANCH   1  24
TORSDOF 6
