REMARK  Name = ZINC64087670
REMARK  9 active torsions:
REMARK  status: ('A' for Active; 'I' for Inactive)
REMARK    1  A    between atoms: C_7  and  C_10
REMARK    2  A    between atoms: C_10  and  C_11
REMARK    3  A    between atoms: C_11  and  C_13
REMARK    4  A    between atoms: C_11  and  N_32
REMARK    5  A    between atoms: N_15  and  C_16
REMARK    6  A    between atoms: C_20  and  O_22
REMARK    7  A    between atoms: O_22  and  C_23
REMARK    8  A    between atoms: C_23  and  C_24
REMARK    9  A    between atoms: C_28  and  C_30
REMARK                            x       y       z     vdW  Elec       q    Type
REMARK                         _______ _______ _______ _____ _____    ______ ____
ROOT
ATOM      1  C   UNL     1      -0.385  -4.903  -1.451  0.00  0.00    +0.238 C 
ATOM      2  O   UNL     1      -1.576  -4.834  -1.669  0.00  0.00    -0.273 OA
ATOM      3  N   UNL     1       0.185  -6.097  -1.193  0.00  0.00    -0.284 N 
ATOM      4  H   UNL     1       1.147  -6.162  -1.085  0.00  0.00    +0.155 HD
ENDROOT
BRANCH   3   5
ATOM      5  C   UNL     1      -0.611  -7.243  -1.081  0.00  0.00    +0.037 A 
ATOM      6  C   UNL     1      -0.275  -8.237  -0.170  0.00  0.00    +0.023 A 
ATOM      7  C   UNL     1      -1.060  -9.367  -0.060  0.00  0.00    +0.005 A 
ATOM      8  C   UNL     1      -2.182  -9.513  -0.854  0.00  0.00    +0.046 A 
ATOM      9  C   UNL     1      -2.522  -8.524  -1.765  0.00  0.00    +0.123 A 
ATOM     10  C   UNL     1      -1.740  -7.384  -1.874  0.00  0.00    +0.069 A 
BRANCH   9  11
ATOM     11  O   UNL     1      -3.625  -8.668  -2.546  0.00  0.00    -0.487 OA
BRANCH  11  12
ATOM     12  C   UNL     1      -4.388  -9.865  -2.376  0.00  0.00    +0.264 C 
BRANCH  12  13
ATOM     13  C   UNL     1      -5.564  -9.849  -3.318  0.00  0.00    -0.009 A 
ATOM     14  C   UNL     1      -6.766  -9.294  -2.914  0.00  0.00    +0.007 A 
ATOM     15  C   UNL     1      -7.850  -9.275  -3.772  0.00  0.00    +0.002 A 
ATOM     16  C   UNL     1      -7.740  -9.811  -5.039  0.00  0.00    +0.019 A 
ATOM     17  C   UNL     1      -6.531 -10.372  -5.454  0.00  0.00    +0.052 A 
ATOM     18  C   UNL     1      -5.439 -10.383  -4.583  0.00  0.00    +0.025 A 
BRANCH  17  19
ATOM     19  C   UNL     1      -6.410 -10.930  -6.767  0.00  0.00    +0.099 C 
ATOM     20  N   UNL     1      -6.313 -11.372  -7.809  0.00  0.00    -0.191 NA
ENDBRANCH  17  19
ENDBRANCH  12  13
ENDBRANCH  11  12
ENDBRANCH   9  11
ENDBRANCH   3   5
BRANCH   1  21
ATOM     21  C   UNL     1       0.458  -3.654  -1.468  0.00  0.00    +0.165 C 
BRANCH  21  22
ATOM     22  N   UNL     1      -0.241  -2.604  -2.214  0.00  0.00    -0.288 N 
ATOM     23  C   UNL     1      -1.450  -2.175  -1.801  0.00  0.00    +0.298 C 
ATOM     24  O   UNL     1      -1.961  -2.660  -0.809  0.00  0.00    -0.253 OA
ATOM     25  N   UNL     1      -2.092  -1.209  -2.486  0.00  0.00    -0.313 N 
ATOM     26  H   UNL     1       0.167  -2.218  -3.004  0.00  0.00    +0.151 HD
ATOM     27  H   UNL     1      -1.685  -0.823  -3.277  0.00  0.00    +0.146 HD
ATOM     28  H   UNL     1      -2.963  -0.900  -2.189  0.00  0.00    +0.146 HD
ENDBRANCH  21  22
BRANCH  21  29
ATOM     29  C   UNL     1       0.703  -3.184  -0.033  0.00  0.00    +0.065 C 
BRANCH  29  36
ATOM     30  C   UNL     1       0.003   1.351  -0.003  0.00  0.00    +0.001 A 
ATOM     31  C   UNL     1       1.186   2.102  -0.020  0.00  0.00    +0.002 A 
ATOM     32  C   UNL     1       2.410   1.534  -0.043  0.00  0.00    +0.026 A 
ATOM     33  C   UNL     1       2.546   0.119  -0.050  0.00  0.00    +0.043 A 
ATOM     34  N   UNL     1       3.603  -0.657  -0.072  0.00  0.00    -0.380 N 
ATOM     35  C   UNL     1       3.157  -2.055  -0.070  0.00  0.00    +0.144 C 
ATOM     36  C   UNL     1       1.646  -2.008  -0.044  0.00  0.00    -0.039 C 
ATOM     37  C   UNL     1       1.311  -0.698  -0.033  0.00  0.00    -0.001 A 
ATOM     38  C   UNL     1       0.019  -0.002  -0.008  0.00  0.00    +0.010 A 
ATOM     39  H   UNL     1       4.525  -0.357  -0.086  0.00  0.00    +0.160 HD
ENDBRANCH  29  36
ENDBRANCH  21  29
ENDBRANCH   1  21
TORSDOF 9
