REMARK  Name = ZINC33277356
REMARK  8 active torsions:
REMARK  status: ('A' for Active; 'I' for Inactive)
REMARK    1  A    between atoms: C_1  and  C_2
REMARK    2  A    between atoms: C_2  and  C_3
REMARK    3  A    between atoms: C_2  and  C_4
REMARK    4  A    between atoms: N_10  and  C_11
REMARK    5  A    between atoms: C_11  and  C_12
REMARK    6  A    between atoms: N_14  and  C_15
REMARK    7  A    between atoms: N_24  and  C_26
REMARK    8  A    between atoms: C_26  and  C_27
REMARK                            x       y       z     vdW  Elec       q    Type
REMARK                         _______ _______ _______ _____ _____    ______ ____
ROOT
ATOM      1  C   UNL     1       1.583   5.482  -5.717  0.00  0.00    +0.115 A 
ATOM      2  N   UNL     1       1.337   5.074  -4.502  0.00  0.00    -0.240 NA
ATOM      3  C   UNL     1       2.302   4.993  -3.575  0.00  0.00    +0.035 A 
ATOM      4  C   UNL     1       3.572   5.337  -3.903  0.00  0.00    +0.035 A 
ATOM      5  C   UNL     1       3.841   5.782  -5.216  0.00  0.00    +0.258 A 
ATOM      6  O   UNL     1       4.970   6.104  -5.545  0.00  0.00    -0.267 OA
ATOM      7  N   UNL     1       2.823   5.843  -6.100  0.00  0.00    -0.287 N 
ATOM      8  C   UNL     1       4.704   5.260  -2.914  0.00  0.00    +0.024 C 
ATOM      9  C   UNL     1       4.150   5.165  -1.492  0.00  0.00    -0.073 C 
ATOM     10  N   UNL     1       3.134   4.101  -1.459  0.00  0.00    +0.386 N 
ATOM     11  C   UNL     1       1.936   4.520  -2.193  0.00  0.00    -0.021 C 
ATOM     12  H   UNL     1       3.545   3.208  -1.952  0.00  0.00    -0.081 HD
ENDROOT
BRANCH   1  14
ATOM     13  C   UNL     1       0.405   4.251  -7.519  0.00  0.00    +0.015 C 
ATOM     14  C   UNL     1       0.454   5.551  -6.713  0.00  0.00    +0.049 C 
ATOM     15  C   UNL     1      -0.870   5.742  -5.971  0.00  0.00    +0.015 C 
ENDBRANCH   1  14
BRANCH   7  16
ATOM     16  C   UNL     1       3.066   6.300  -7.471  0.00  0.00    +0.222 C 
BRANCH  16  17
ATOM     17  C   UNL     1       3.002   7.805  -7.518  0.00  0.00    +0.237 C 
ATOM     18  O   UNL     1       2.776   8.434  -6.505  0.00  0.00    -0.274 OA
ATOM     19  N   UNL     1       3.195   8.452  -8.684  0.00  0.00    -0.283 N 
ATOM     20  H   UNL     1       3.311   7.881  -9.617  0.00  0.00    +0.155 HD
BRANCH  19  21
ATOM     21  C   UNL     1       3.249   9.851  -8.708  0.00  0.00    +0.047 A 
ATOM     22  C   UNL     1       3.614  10.553  -7.566  0.00  0.00    +0.024 A 
ATOM     23  C   UNL     1       3.670  11.932  -7.594  0.00  0.00    +0.002 A 
ATOM     24  C   UNL     1       3.355  12.616  -8.755  0.00  0.00    +0.001 A 
ATOM     25  C   UNL     1       2.987  11.921  -9.892  0.00  0.00    +0.017 A 
ATOM     26  C   UNL     1       2.933  10.540  -9.872  0.00  0.00    +0.039 A 
ATOM     27 BR   UNL     1       2.428   9.589 -11.427  0.00  0.00    -0.048 Br
ENDBRANCH  19  21
ENDBRANCH  16  17
ENDBRANCH   7  16
BRANCH  10  28
ATOM     28  C   UNL     1       2.801   3.732  -0.076  0.00  0.00    -0.042 C 
BRANCH  28  29
ATOM     29  C   UNL     1       1.596   2.828  -0.073  0.00  0.00    -0.064 A 
ATOM     30  C   UNL     1       1.760   1.457  -0.154  0.00  0.00    +0.002 A 
ATOM     31  C   UNL     1       0.655   0.628  -0.150  0.00  0.00    +0.000 A 
ATOM     32  C   UNL     1      -0.615   1.168  -0.071  0.00  0.00    +0.000 A 
ATOM     33  C   UNL     1      -0.779   2.538   0.013  0.00  0.00    +0.000 A 
ATOM     34  C   UNL     1       0.327   3.368   0.011  0.00  0.00    +0.002 A 
ENDBRANCH  28  29
ENDBRANCH  10  28
TORSDOF 6
