REMARK  Name = ZINC39376987
REMARK  4 active torsions:
REMARK  status: ('A' for Active; 'I' for Inactive)
REMARK    1  A    between atoms: C_6  and  O_22
REMARK    2  A    between atoms: C_7  and  C_11
REMARK    3  A    between atoms: N_13  and  N_14
REMARK    4  A    between atoms: C_15  and  C_16
REMARK                            x       y       z     vdW  Elec       q    Type
REMARK                         _______ _______ _______ _____ _____    ______ ____
ROOT
ATOM      1  C   UNL     1      -0.016   1.356   0.009  0.00  0.00    +0.001 A 
ATOM      2  C   UNL     1       1.169   2.090   0.002  0.00  0.00    +0.001 A 
ATOM      3  C   UNL     1       2.379   1.467  -0.013  0.00  0.00    +0.008 A 
ATOM      4  C   UNL     1       2.440   0.063  -0.021  0.00  0.00    -0.014 A 
ATOM      5  C   UNL     1       3.675  -0.607  -0.036  0.00  0.00    +0.054 A 
ATOM      6  C   UNL     1       3.711  -1.970  -0.043  0.00  0.00    +0.130 A 
ATOM      7  C   UNL     1       2.516  -2.722  -0.036  0.00  0.00    +0.080 A 
ATOM      8  C   UNL     1       1.286  -2.085  -0.021  0.00  0.00    +0.025 A 
ATOM      9  C   UNL     1       1.234  -0.684  -0.013  0.00  0.00    -0.017 A 
ATOM     10  C   UNL     1       0.002  -0.004   0.002  0.00  0.00    +0.008 A 
ENDROOT
BRANCH   7  11
ATOM     11  C   UNL     1       2.578  -4.197  -0.044  0.00  0.00    +0.267 C 
ATOM     12  O   UNL     1       3.656  -4.760  -0.058  0.00  0.00    -0.268 OA
ATOM     13  N   UNL     1       1.440  -4.919  -0.037  0.00  0.00    -0.203 N 
ATOM     14  H   UNL     1       0.581  -4.470  -0.027  0.00  0.00    +0.178 HD
BRANCH  13  15
ATOM     15  N   UNL     1       1.499  -6.319  -0.046  0.00  0.00    -0.190 NA
ATOM     16  C   UNL     1       0.418  -7.005  -0.039  0.00  0.00    +0.134 C 
BRANCH  16  17
ATOM     17  C   UNL     1       0.482  -8.510  -0.048  0.00  0.00    +0.170 C 
ATOM     18  C   UNL     1      -0.167  -9.069   1.200  0.00  0.00    +0.006 C 
ATOM     19  C   UNL     1       0.789  -9.742   1.838  0.00  0.00    +0.017 C 
ATOM     20  C   UNL     1       2.037  -9.658   1.078  0.00  0.00    +0.106 C 
ATOM     21  N   UNL     1       1.879  -8.961   0.000  0.00  0.00    -0.279 NA
ENDBRANCH  16  17
ENDBRANCH  13  15
ENDBRANCH   7  11
BRANCH   6  22
ATOM     22  O   UNL     1       4.907  -2.611  -0.058  0.00  0.00    -0.506 OA
ATOM     23  H   UNL     1       5.263  -2.801   0.821  0.00  0.00    +0.292 HD
ENDBRANCH   6  22
TORSDOF 4
