REMARK  Name = ZINC09201125
REMARK  11 active torsions:
REMARK  status: ('A' for Active; 'I' for Inactive)
REMARK    1  A    between atoms: C_1  and  C_2
REMARK    2  A    between atoms: C_2  and  N_3
REMARK    3  A    between atoms: C_7  and  S_27
REMARK    4  A    between atoms: C_11  and  C_12
REMARK    5  A    between atoms: C_12  and  N_56
REMARK    6  A    between atoms: C_13  and  C_15
REMARK    7  A    between atoms: C_13  and  C_22
REMARK    8  A    between atoms: C_13  and  N_56
REMARK    9  A    between atoms: S_27  and  N_30
REMARK   10  A    between atoms: N_30  and  C_31
REMARK   11  A    between atoms: N_30  and  C_32
REMARK                            x       y       z     vdW  Elec       q    Type
REMARK                         _______ _______ _______ _____ _____    ______ ____
ROOT
ATOM      1  N   UNL     1      -0.749   3.044   1.275  0.00  0.00    -0.329 N 
ATOM      2  C   UNL     1       0.206   3.872   1.831  0.00  0.00    +0.069 A 
ATOM      3  C   UNL     1       1.397   3.655   2.509  0.00  0.00    +0.030 A 
ATOM      4  C   UNL     1       2.139   4.731   2.948  0.00  0.00    +0.030 A 
ATOM      5  C   UNL     1       1.702   6.028   2.716  0.00  0.00    +0.108 A 
ATOM      6  C   UNL     1       0.537   6.261   2.043  0.00  0.00    +0.058 A 
ATOM      7  C   UNL     1      -0.234   5.185   1.593  0.00  0.00    +0.091 A 
ATOM      8  N   UNL     1      -1.414   5.093   0.927  0.00  0.00    -0.234 NA
ATOM      9  C   UNL     1      -1.714   3.840   0.741  0.00  0.00    +0.094 A 
ENDROOT
BRANCH   5  10
ATOM     10  S   UNL     1       2.667   7.388   3.285  0.00  0.00    +0.060 S 
ATOM     11  O   UNL     1       1.777   8.487   3.425  0.00  0.00    -0.153 OA
ATOM     12  O   UNL     1       3.455   6.904   4.364  0.00  0.00    -0.153 OA
BRANCH  10  13
ATOM     13  N   UNL     1       3.720   7.784   2.070  0.00  0.00    -0.183 NA
ATOM     14  C   UNL     1       3.331   8.766   1.055  0.00  0.00    +0.131 C 
ATOM     15  C   UNL     1       5.041   7.153   2.010  0.00  0.00    +0.131 C 
ENDBRANCH  10  13
ENDBRANCH   5  10
BRANCH   1  17
ATOM     16  C   UNL     1      -0.013   1.086   0.008  0.00  0.00    +0.027 C 
ATOM     17  C   UNL     1      -0.729   1.579   1.267  0.00  0.00    +0.120 C 
ENDBRANCH   1  17
BRANCH   9  18
ATOM     18  C   UNL     1      -2.951   3.344   0.037  0.00  0.00    -0.006 C 
BRANCH  18  19
ATOM     19  N   UNL     1      -4.032   3.170   1.025  0.00  0.00    +0.391 N 
ATOM     20  H   UNL     1      -4.226   4.071   1.478  0.00  0.00    -0.084 HD
ATOM     21  H   UNL     1      -3.736   2.487   1.734  0.00  0.00    -0.084 HD
BRANCH  19  22
ATOM     22  C   UNL     1      -5.257   2.684   0.363  0.00  0.00    -0.003 C 
BRANCH  22  23
ATOM     23  C   UNL     1      -6.104   1.948   1.369  0.00  0.00    -0.056 A 
ATOM     24  C   UNL     1      -6.216   2.428   2.661  0.00  0.00    +0.005 A 
ATOM     25  C   UNL     1      -6.997   1.757   3.583  0.00  0.00    +0.038 A 
ATOM     26  C   UNL     1      -7.659   0.598   3.216  0.00  0.00    +0.123 A 
ATOM     27  C   UNL     1      -7.542   0.115   1.923  0.00  0.00    +0.038 A 
ATOM     28  C   UNL     1      -6.765   0.791   1.002  0.00  0.00    +0.005 A 
ATOM     29  F   UNL     1      -8.418  -0.061   4.118  0.00  0.00    -0.205 F 
ENDBRANCH  22  23
BRANCH  22  30
ATOM     30  C   UNL     1      -6.031   3.855  -0.185  0.00  0.00    -0.020 A 
ATOM     31  C   UNL     1      -6.703   3.961  -1.357  0.00  0.00    +0.010 A 
ATOM     32  C   UNL     1      -7.349   5.146  -1.655  0.00  0.00    +0.008 A 
ATOM     33  C   UNL     1      -7.292   6.167  -0.765  0.00  0.00    +0.045 A 
ATOM     34  S   UNL     1      -6.308   5.460   0.546  0.00  0.00    -0.103 S 
ENDBRANCH  22  30
ENDBRANCH  19  22
ENDBRANCH  18  19
ENDBRANCH   9  18
TORSDOF 8
