REMARK  Name = ZINC09123945
REMARK  6 active torsions:
REMARK  status: ('A' for Active; 'I' for Inactive)
REMARK    1  A    between atoms: C_4  and  C_7
REMARK    2  A    between atoms: C_7  and  C_8
REMARK    3  A    between atoms: C_8  and  N_9
REMARK    4  A    between atoms: C_10  and  C_27
REMARK    5  A    between atoms: C_13  and  C_20
REMARK    6  A    between atoms: C_25  and  O_26
REMARK                            x       y       z     vdW  Elec       q    Type
REMARK                         _______ _______ _______ _____ _____    ______ ____
ROOT
ATOM      1  N   UNL     1       5.450  -1.678   1.382  0.00  0.00    -0.285 N 
ATOM      2  C   UNL     1       5.611  -3.137   1.367  0.00  0.00    +0.141 C 
ATOM      3  C   UNL     1       7.092  -3.400   1.353  0.00  0.00    +0.035 A 
ATOM      4  C   UNL     1       8.095  -4.315   1.335  0.00  0.00    +0.075 A 
ATOM      5  N   UNL     1       9.266  -3.613   1.332  0.00  0.00    -0.276 N 
ATOM      6  H   UNL     1      10.152  -4.008   1.321  0.00  0.00    +0.189 HD
ATOM      7  N   UNL     1       9.020  -2.351   1.346  0.00  0.00    -0.168 NA
ATOM      8  C   UNL     1       7.720  -2.134   1.359  0.00  0.00    +0.153 A 
ATOM      9  C   UNL     1       6.665  -1.105   1.372  0.00  0.00    +0.268 C 
ATOM     10  O   UNL     1       6.866   0.094   1.374  0.00  0.00    -0.268 OA
ENDROOT
BRANCH   2  11
ATOM     11  C   UNL     1       4.989  -3.739   2.601  0.00  0.00    -0.021 A 
ATOM     12  C   UNL     1       5.125  -3.104   3.822  0.00  0.00    +0.007 A 
ATOM     13  C   UNL     1       4.556  -3.655   4.955  0.00  0.00    +0.022 A 
ATOM     14  C   UNL     1       3.850  -4.842   4.867  0.00  0.00    +0.059 A 
ATOM     15  C   UNL     1       3.713  -5.476   3.644  0.00  0.00    +0.060 A 
ATOM     16  C   UNL     1       4.279  -4.921   2.511  0.00  0.00    +0.027 A 
ATOM     17 CL   UNL     1       2.828  -6.966   3.533  0.00  0.00    -0.082 Cl
ATOM     18 CL   UNL     1       3.135  -5.534   6.290  0.00  0.00    -0.082 Cl
ENDBRANCH   2  11
BRANCH   4  19
ATOM     19  C   UNL     1       7.947  -5.787   1.324  0.00  0.00    +0.042 A 
ATOM     20  C   UNL     1       8.389  -6.545   2.408  0.00  0.00    +0.013 A 
ATOM     21  C   UNL     1       8.248  -7.917   2.392  0.00  0.00    +0.001 A 
ATOM     22  C   UNL     1       7.670  -8.546   1.303  0.00  0.00    +0.004 A 
ATOM     23  C   UNL     1       7.230  -7.806   0.222  0.00  0.00    +0.046 A 
ATOM     24  C   UNL     1       7.359  -6.426   0.226  0.00  0.00    +0.126 A 
BRANCH  24  25
ATOM     25  O   UNL     1       6.920  -5.697  -0.833  0.00  0.00    -0.506 OA
ATOM     26  H   UNL     1       7.586  -5.562  -1.520  0.00  0.00    +0.292 HD
ENDBRANCH  24  25
ENDBRANCH   4  19
BRANCH   1  27
ATOM     27  C   UNL     1       4.171  -0.963   1.399  0.00  0.00    +0.114 C 
BRANCH  27  28
ATOM     28  C   UNL     1       3.711  -0.707  -0.038  0.00  0.00    +0.054 C 
BRANCH  28  32
ATOM     29  C   UNL     1      -0.017   1.378   0.010  0.00  0.00    +0.000 A 
ATOM     30  C   UNL     1       1.171   2.086   0.002  0.00  0.00    +0.000 A 
ATOM     31  C   UNL     1       2.377   1.411  -0.013  0.00  0.00    +0.004 A 
ATOM     32  C   UNL     1       2.396   0.029  -0.020  0.00  0.00    -0.046 A 
ATOM     33  C   UNL     1       1.208  -0.679  -0.012  0.00  0.00    +0.004 A 
ATOM     34  C   UNL     1       0.002  -0.004   0.002  0.00  0.00    +0.000 A 
ENDBRANCH  28  32
ENDBRANCH  27  28
ENDBRANCH   1  27
TORSDOF 6
