REMARK  Name = ZINC00913596
REMARK  10 active torsions:
REMARK  status: ('A' for Active; 'I' for Inactive)
REMARK    1  A    between atoms: C_1  and  C_2
REMARK    2  A    between atoms: C_12  and  C_14
REMARK    3  A    between atoms: C_14  and  N_15
REMARK    4  A    between atoms: N_15  and  C_16
REMARK    5  A    between atoms: N_15  and  S_25
REMARK    6  A    between atoms: C_16  and  C_17
REMARK    7  A    between atoms: C_20  and  O_23
REMARK    8  A    between atoms: O_23  and  C_24
REMARK    9  A    between atoms: S_25  and  C_28
REMARK   10  A    between atoms: C_32  and  C_34
REMARK                            x       y       z     vdW  Elec       q    Type
REMARK                         _______ _______ _______ _____ _____    ______ ____
ROOT
ATOM      1  N   UNL     1      -2.989   0.482   1.541  0.00  0.00    -0.168 NA
ENDROOT
BRANCH   1   2
ATOM      2  S   UNL     1      -2.387   0.922   0.063  0.00  0.00    +0.061 S 
ATOM      3  O   UNL     1      -3.433   1.607  -0.614  0.00  0.00    -0.153 OA
ATOM      4  O   UNL     1      -1.756  -0.231  -0.478  0.00  0.00    -0.153 OA
BRANCH   2   5
ATOM      5  C   UNL     1      -1.114   2.105   0.350  0.00  0.00    +0.106 A 
ATOM      6  C   UNL     1       0.208   1.702   0.395  0.00  0.00    +0.028 A 
ATOM      7  C   UNL     1       1.207   2.631   0.615  0.00  0.00    +0.002 A 
ATOM      8  C   UNL     1       0.885   3.963   0.795  0.00  0.00    +0.012 A 
ATOM      9  C   UNL     1      -0.437   4.366   0.755  0.00  0.00    +0.057 A 
ATOM     10  C   UNL     1      -1.436   3.437   0.535  0.00  0.00    +0.041 A 
BRANCH   9  11
ATOM     11  C   UNL     1      -0.788   5.818   0.951  0.00  0.00    +0.417 C 
ATOM     12  F   UNL     1       0.382   6.558   1.154  0.00  0.00    -0.166 F 
ATOM     13  F   UNL     1      -1.450   6.295  -0.185  0.00  0.00    -0.166 F 
ATOM     14  F   UNL     1      -1.622   5.950   2.066  0.00  0.00    -0.166 F 
ENDBRANCH   9  11
ENDBRANCH   2   5
ENDBRANCH   1   2
BRANCH   1  15
ATOM     15  C   UNL     1      -2.491  -0.725   2.205  0.00  0.00    +0.150 C 
BRANCH  15  27
ATOM     16  C   UNL     1       1.865   1.117   6.770  0.00  0.00    +0.046 C 
ATOM     17  C   UNL     1       0.407   0.751   6.876  0.00  0.00    -0.026 A 
ATOM     18  C   UNL     1      -0.225   0.773   8.101  0.00  0.00    +0.005 A 
ATOM     19  C   UNL     1      -1.567   0.438   8.212  0.00  0.00    +0.001 A 
ATOM     20  C   UNL     1      -2.288   0.080   7.108  0.00  0.00    +0.010 A 
ATOM     21  C   UNL     1      -1.668   0.050   5.855  0.00  0.00    -0.001 A 
ATOM     22  C   UNL     1      -0.306   0.389   5.738  0.00  0.00    +0.052 A 
ATOM     23  N   UNL     1       0.300   0.358   4.500  0.00  0.00    -0.322 N 
ATOM     24  H   UNL     1       1.267   0.599   4.419  0.00  0.00    +0.169 HD
ATOM     25  C   UNL     1      -0.390   0.009   3.401  0.00  0.00    +0.254 A 
ATOM     26  O   UNL     1       0.178  -0.007   2.323  0.00  0.00    -0.268 OA
ATOM     27  C   UNL     1      -1.756  -0.340   3.463  0.00  0.00    +0.033 A 
ATOM     28  C   UNL     1      -2.412  -0.324   4.650  0.00  0.00    +0.020 A 
ENDBRANCH  15  27
ENDBRANCH   1  15
BRANCH   1  29
ATOM     29  C   UNL     1      -4.020   1.300   2.186  0.00  0.00    +0.145 C 
BRANCH  29  30
ATOM     30  C   UNL     1      -5.381   0.737   1.865  0.00  0.00    -0.031 A 
ATOM     31  C   UNL     1      -6.064   1.178   0.747  0.00  0.00    +0.008 A 
ATOM     32  C   UNL     1      -7.309   0.659   0.448  0.00  0.00    +0.046 A 
ATOM     33  C   UNL     1      -7.879  -0.296   1.278  0.00  0.00    +0.120 A 
ATOM     34  C   UNL     1      -7.193  -0.733   2.402  0.00  0.00    +0.046 A 
ATOM     35  C   UNL     1      -5.946  -0.215   2.693  0.00  0.00    +0.008 A 
BRANCH  33  36
ATOM     36  O   UNL     1      -9.106  -0.804   0.989  0.00  0.00    -0.495 OA
ATOM     37  C   UNL     1      -9.753  -0.309  -0.185  0.00  0.00    +0.277 C 
ENDBRANCH  33  36
ENDBRANCH  29  30
ENDBRANCH   1  29
TORSDOF 8
