REMARK  Name = ZINC35400896
REMARK  6 active torsions:
REMARK  status: ('A' for Active; 'I' for Inactive)
REMARK    1  A    between atoms: C_1  and  C_2
REMARK    2  A    between atoms: C_5  and  N_9
REMARK    3  A    between atoms: C_6  and  C_8
REMARK    4  A    between atoms: C_10  and  C_12
REMARK    5  A    between atoms: C_12  and  N_13
REMARK    6  A    between atoms: C_21  and  C_25
REMARK                            x       y       z     vdW  Elec       q    Type
REMARK                         _______ _______ _______ _____ _____    ______ ____
ROOT
ATOM      1  N   UNL     1      -0.232  -6.826  -2.567  0.00  0.00    -0.257 N 
ATOM      2  C   UNL     1       0.979  -7.208  -3.166  0.00  0.00    +0.058 A 
ATOM      3  C   UNL     1       2.050  -7.046  -2.303  0.00  0.00    +0.025 A 
ATOM      4  C   UNL     1       3.329  -7.373  -2.721  0.00  0.00    +0.002 A 
ATOM      5  C   UNL     1       3.540  -7.861  -3.997  0.00  0.00    +0.002 A 
ATOM      6  C   UNL     1       2.474  -8.026  -4.864  0.00  0.00    +0.025 A 
ATOM      7  C   UNL     1       1.192  -7.702  -4.452  0.00  0.00    +0.053 A 
ATOM      8  N   UNL     1       0.247  -7.935  -5.463  0.00  0.00    -0.312 N 
ATOM      9  C   UNL     1      -1.120  -7.730  -5.417  0.00  0.00    +0.050 C 
ATOM     10  C   UNL     1      -1.882  -7.249  -4.373  0.00  0.00    +0.092 C 
ATOM     11  C   UNL     1      -1.473  -6.849  -3.091  0.00  0.00    +0.246 C 
ATOM     12  O   UNL     1      -2.362  -6.464  -2.353  0.00  0.00    -0.270 OA
ATOM     13  H   UNL     1       0.596  -8.284  -6.298  0.00  0.00    +0.152 HD
ENDROOT
BRANCH   9  14
ATOM     14  C   UNL     1      -1.855  -8.068  -6.638  0.00  0.00    +0.033 A 
ATOM     15  C   UNL     1      -3.214  -7.967  -6.897  0.00  0.00    +0.017 A 
ATOM     16  C   UNL     1      -3.614  -8.365  -8.151  0.00  0.00    +0.008 A 
ATOM     17  C   UNL     1      -2.683  -8.816  -9.027  0.00  0.00    +0.046 A 
ATOM     18  S   UNL     1      -1.235  -8.709  -8.182  0.00  0.00    -0.095 S 
ENDBRANCH   9  14
BRANCH   1  19
ATOM     19  C   UNL     1      -0.134  -6.343  -1.187  0.00  0.00    +0.210 C 
BRANCH  19  21
ATOM     20  N   UNL     1       0.418  -4.230  -0.025  0.00  0.00    -0.284 N 
ATOM     21  C   UNL     1       0.266  -4.890  -1.191  0.00  0.00    +0.235 C 
ATOM     22  O   UNL     1       0.452  -4.314  -2.242  0.00  0.00    -0.274 OA
ATOM     23  H   UNL     1       0.344  -4.707   0.816  0.00  0.00    +0.155 HD
BRANCH  20  28
ATOM     24  C   UNL     1       1.490   1.341  -0.041  0.00  0.00    +0.044 C 
ATOM     25  C   UNL     1       1.205  -0.139  -0.037  0.00  0.00    -0.050 A 
ATOM     26  C   UNL     1       1.680  -0.935  -1.063  0.00  0.00    +0.005 A 
ATOM     27  C   UNL     1       1.421  -2.292  -1.062  0.00  0.00    +0.024 A 
ATOM     28  C   UNL     1       0.683  -2.856  -0.029  0.00  0.00    +0.036 A 
ATOM     29  C   UNL     1       0.208  -2.053   1.000  0.00  0.00    -0.029 A 
ATOM     30  C   UNL     1       0.475  -0.698   0.996  0.00  0.00    +0.008 A 
ATOM     31  C   UNL     1      -0.592  -2.661   2.123  0.00  0.00    +0.045 C 
ENDBRANCH  20  28
ENDBRANCH  19  21
ENDBRANCH   1  19
TORSDOF 4
