REMARK  Name = ZINC28463389
REMARK  4 active torsions:
REMARK  status: ('A' for Active; 'I' for Inactive)
REMARK    1  A    between atoms: N_9  and  C_20
REMARK    2  A    between atoms: C_15  and  N_16
REMARK    3  A    between atoms: C_23  and  C_26
REMARK    4  A    between atoms: C_29  and  N_32
REMARK                            x       y       z     vdW  Elec       q    Type
REMARK                         _______ _______ _______ _____ _____    ______ ____
ROOT
ATOM      1  C   UNL     1       0.927   1.780  -1.008  0.00  0.00    +0.001 A 
ATOM      2  C   UNL     1      -0.134   1.079  -0.510  0.00  0.00    +0.011 A 
ATOM      3  C   UNL     1      -1.244   1.762   0.017  0.00  0.00    +0.018 A 
ATOM      4  C   UNL     1      -1.234   3.172   0.031  0.00  0.00    +0.009 A 
ATOM      5  C   UNL     1      -0.127   3.881  -0.489  0.00  0.00    +0.046 A 
ATOM      6  C   UNL     1       0.946   3.169  -1.005  0.00  0.00    +0.014 A 
ATOM      7  C   UNL     1      -0.154   5.350  -0.465  0.00  0.00    +0.258 C 
ATOM      8  O   UNL     1       0.789   5.979  -0.906  0.00  0.00    -0.269 OA
ATOM      9  N   UNL     1      -1.215   6.004   0.044  0.00  0.00    -0.202 N 
ATOM     10  C   UNL     1      -2.285   5.360   0.548  0.00  0.00    +0.258 C 
ATOM     11  O   UNL     1      -3.219   5.998   0.996  0.00  0.00    -0.269 OA
ATOM     12  C   UNL     1      -2.332   3.890   0.558  0.00  0.00    +0.050 A 
ATOM     13  C   UNL     1      -3.423   3.192   1.053  0.00  0.00    +0.067 A 
ATOM     14  C   UNL     1      -3.425   1.797   1.042  0.00  0.00    +0.210 A 
ATOM     15  C   UNL     1      -2.360   1.082   0.535  0.00  0.00    +0.180 A 
ATOM     16  O   UNL     1      -4.499   1.129   1.540  0.00  0.00    -0.285 OA
ENDROOT
BRANCH   9  17
ATOM     17  C   UNL     1      -1.206   7.404   0.050  0.00  0.00    +0.045 A 
ATOM     18  C   UNL     1      -1.715   8.106  -1.036  0.00  0.00    +0.024 A 
ATOM     19  C   UNL     1      -1.712   9.485  -1.030  0.00  0.00    +0.010 A 
ATOM     20  C   UNL     1      -1.187  10.175   0.062  0.00  0.00    -0.018 A 
ATOM     21  C   UNL     1      -0.671   9.468   1.148  0.00  0.00    +0.010 A 
ATOM     22  C   UNL     1      -0.682   8.090   1.140  0.00  0.00    +0.024 A 
BRANCH  20  23
ATOM     23  C   UNL     1      -1.176  11.658   0.068  0.00  0.00    -0.018 A 
ATOM     24  C   UNL     1      -0.656  12.348   1.162  0.00  0.00    +0.010 A 
ATOM     25  C   UNL     1      -0.642  13.726   1.163  0.00  0.00    +0.023 A 
ATOM     26  C   UNL     1      -1.157  14.428   0.079  0.00  0.00    +0.025 A 
ATOM     27  C   UNL     1      -1.681  13.742  -1.010  0.00  0.00    +0.023 A 
ATOM     28  C   UNL     1      -1.692  12.364  -1.018  0.00  0.00    +0.010 A 
BRANCH  26  29
ATOM     29  N   UNL     1      -1.147  15.824   0.085  0.00  0.00    -0.358 N 
ATOM     30  H   UNL     1      -1.554  16.381  -0.772  0.00  0.00    +0.142 HD
ATOM     31  H   UNL     1      -0.733  16.368   0.947  0.00  0.00    +0.142 HD
ENDBRANCH  26  29
ENDBRANCH  20  23
ENDBRANCH   9  17
BRANCH  15  32
ATOM     32  N   UNL     1      -2.392  -0.397   0.537  0.00  0.00    +0.061 N 
ATOM     33  O   UNL     1      -1.956  -1.015   1.492  0.00  0.00    -0.126 OA
ATOM     34  O   UNL     1      -2.854  -0.998  -0.417  0.00  0.00    -0.126 OA
ENDBRANCH  15  32
TORSDOF 4
