REMARK  Name = ZINC15276271
REMARK  8 active torsions:
REMARK  status: ('A' for Active; 'I' for Inactive)
REMARK    1  A    between atoms: C_1  and  C_2
REMARK    2  A    between atoms: C_2  and  C_3
REMARK    3  A    between atoms: C_2  and  C_4
REMARK    4  A    between atoms: C_4  and  C_5
REMARK    5  A    between atoms: N_13  and  C_16
REMARK    6  A    between atoms: C_16  and  C_17
REMARK    7  A    between atoms: N_31  and  C_34
REMARK    8  A    between atoms: C_34  and  C_35
REMARK                            x       y       z     vdW  Elec       q    Type
REMARK                         _______ _______ _______ _____ _____    ______ ____
ROOT
ATOM      1  C   UNL     1      -1.482  -1.999   0.388  0.00  0.00    +0.068 C 
ATOM      2  C   UNL     1      -2.918  -2.509   0.466  0.00  0.00    +0.107 C 
ATOM      3  C   UNL     1      -3.252  -1.967   1.905  0.00  0.00    +0.122 C 
ATOM      4  C   UNL     1      -4.691  -2.055   1.934  0.00  0.00    +0.229 C 
ATOM      5  O   UNL     1      -5.398  -2.288   2.891  0.00  0.00    -0.275 OA
ATOM      6  N   UNL     1      -5.087  -1.815   0.640  0.00  0.00    -0.237 N 
ATOM      7  C   UNL     1      -4.032  -1.816  -0.254  0.00  0.00    +0.227 C 
ATOM      8  O   UNL     1      -4.006  -1.354  -1.375  0.00  0.00    -0.275 OA
ATOM      9  C   UNL     1      -2.061  -2.221   2.709  0.00  0.00    +0.136 C 
ATOM     10  N   UNL     1      -0.942  -2.428   1.727  0.00  0.00    -0.295 NA
ATOM     11  C   UNL     1      -1.678  -1.096   3.639  0.00  0.00    +0.004 A 
ATOM     12  C   UNL     1      -1.433   0.244   3.441  0.00  0.00    +0.008 A 
ATOM     13  C   UNL     1      -1.089   1.049   4.513  0.00  0.00    +0.000 A 
ATOM     14  C   UNL     1      -0.993   0.504   5.780  0.00  0.00    +0.002 A 
ATOM     15  C   UNL     1      -1.237  -0.839   5.981  0.00  0.00    +0.024 A 
ATOM     16  C   UNL     1      -1.584  -1.656   4.907  0.00  0.00    +0.042 A 
ATOM     17  N   UNL     1      -1.876  -3.020   4.856  0.00  0.00    -0.265 N 
ATOM     18  C   UNL     1      -2.165  -3.431   3.609  0.00  0.00    +0.246 C 
ATOM     19  O   UNL     1      -2.454  -4.559   3.271  0.00  0.00    -0.273 OA
ATOM     20  H   UNL     1      -0.659  -3.396   1.709  0.00  0.00    +0.123 HD
ENDROOT
BRANCH   1  21
ATOM     21  C   UNL     1      -1.447  -0.476   0.244  0.00  0.00    +0.022 C 
BRANCH  21  23
ATOM     22  C   UNL     1       0.037   1.503  -0.104  0.00  0.00    +0.007 C 
ATOM     23  C   UNL     1       0.005  -0.009   0.129  0.00  0.00    -0.016 C 
ATOM     24  C   UNL     1       0.752  -0.341   1.422  0.00  0.00    +0.007 C 
ENDBRANCH  21  23
ENDBRANCH   1  21
BRANCH   6  25
ATOM     25  C   UNL     1      -6.480  -1.596   0.243  0.00  0.00    +0.151 C 
BRANCH  25  26
ATOM     26  C   UNL     1      -6.797  -0.125   0.316  0.00  0.00    -0.030 A 
ATOM     27  C   UNL     1      -7.282   0.420   1.490  0.00  0.00    +0.005 A 
ATOM     28  C   UNL     1      -7.573   1.770   1.557  0.00  0.00    +0.000 A 
ATOM     29  C   UNL     1      -7.378   2.575   0.450  0.00  0.00    +0.000 A 
ATOM     30  C   UNL     1      -6.892   2.030  -0.724  0.00  0.00    +0.000 A 
ATOM     31  C   UNL     1      -6.597   0.681  -0.789  0.00  0.00    +0.005 A 
ENDBRANCH  25  26
ENDBRANCH   6  25
BRANCH  17  32
ATOM     32  C   UNL     1      -1.866  -3.902   6.026  0.00  0.00    +0.151 C 
BRANCH  32  33
ATOM     33  C   UNL     1      -3.237  -3.920   6.652  0.00  0.00    +0.005 A 
ATOM     34  C   UNL     1      -3.498  -3.145   7.766  0.00  0.00    +0.008 A 
ATOM     35  C   UNL     1      -4.755  -3.161   8.341  0.00  0.00    +0.000 A 
ATOM     36  C   UNL     1      -5.752  -3.953   7.802  0.00  0.00    +0.003 A 
ATOM     37  C   UNL     1      -5.494  -4.729   6.688  0.00  0.00    +0.038 A 
ATOM     38  C   UNL     1      -4.236  -4.709   6.109  0.00  0.00    +0.128 A 
ATOM     39  F   UNL     1      -3.983  -5.463   5.017  0.00  0.00    -0.205 F 
ENDBRANCH  32  33
ENDBRANCH  17  32
TORSDOF 6
