REMARK  Name = ZINC35664767
REMARK  13 active torsions:
REMARK  status: ('A' for Active; 'I' for Inactive)
REMARK    1  A    between atoms: C_1  and  C_2
REMARK    2  A    between atoms: C_2  and  O_3
REMARK    3  A    between atoms: O_3  and  C_4
REMARK    4  A    between atoms: C_4  and  C_6
REMARK    5  A    between atoms: C_7  and  C_24
REMARK    6  A    between atoms: N_8  and  C_21
REMARK    7  A    between atoms: C_12  and  C_14
REMARK    8  A    between atoms: C_17  and  C_20
REMARK    9  A    between atoms: C_21  and  C_22
REMARK   10  A    between atoms: C_24  and  N_25
REMARK   11  A    between atoms: C_31  and  C_33
REMARK   12  A    between atoms: C_36  and  O_39
REMARK   13  A    between atoms: O_39  and  C_40
REMARK                            x       y       z     vdW  Elec       q    Type
REMARK                         _______ _______ _______ _____ _____    ______ ____
ROOT
ATOM      1  C   UNL     1       0.965  -2.065  -1.709  0.00  0.00    +0.080 C 
ATOM      2  C   UNL     1       1.383  -3.335  -1.898  0.00  0.00    +0.041 C 
ATOM      3  N   UNL     1       2.222  -3.655  -2.926  0.00  0.00    -0.254 N 
ATOM      4  C   UNL     1       2.689  -2.763  -3.809  0.00  0.00    +0.307 C 
ATOM      5  O   UNL     1       3.433  -3.144  -4.692  0.00  0.00    -0.252 OA
ATOM      6  N   UNL     1       2.361  -1.458  -3.751  0.00  0.00    -0.288 N 
ATOM      7  C   UNL     1       1.454  -1.010  -2.681  0.00  0.00    +0.144 C 
ATOM      8  H   UNL     1       2.711  -0.828  -4.401  0.00  0.00    +0.151 HD
ENDROOT
BRANCH   7   9
ATOM      9  C   UNL     1       0.248  -0.374  -3.323  0.00  0.00    -0.022 A 
ATOM     10  C   UNL     1      -0.401  -1.015  -4.361  0.00  0.00    +0.006 A 
ATOM     11  C   UNL     1      -1.507  -0.432  -4.950  0.00  0.00    +0.004 A 
ATOM     12  C   UNL     1      -1.965   0.792  -4.500  0.00  0.00    -0.050 A 
ATOM     13  C   UNL     1      -1.317   1.433  -3.461  0.00  0.00    +0.004 A 
ATOM     14  C   UNL     1      -0.213   0.848  -2.869  0.00  0.00    +0.006 A 
ATOM     15  C   UNL     1      -3.171   1.429  -5.143  0.00  0.00    +0.044 C 
ENDBRANCH   7   9
BRANCH   1  16
ATOM     16  C   UNL     1       0.095  -1.731  -0.645  0.00  0.00    +0.339 C 
ATOM     17  O   UNL     1      -1.082  -1.515  -0.866  0.00  0.00    -0.245 OA
BRANCH  16  18
ATOM     18  O   UNL     1       0.570  -1.654   0.616  0.00  0.00    -0.462 OA
BRANCH  18  20
ATOM     19  C   UNL     1       0.353  -1.274   2.992  0.00  0.00    +0.048 C 
ATOM     20  C   UNL     1      -0.365  -1.313   1.641  0.00  0.00    +0.229 C 
ENDBRANCH  18  20
ENDBRANCH  16  18
ENDBRANCH   1  16
BRANCH   3  21
ATOM     21  C   UNL     1       2.635  -5.053  -3.071  0.00  0.00    +0.141 C 
BRANCH  21  22
ATOM     22  C   UNL     1       1.657  -5.777  -3.960  0.00  0.00    -0.015 C 
ATOM     23  C   UNL     1       2.083  -6.412  -5.023  0.00  0.00    +0.005 C 
ENDBRANCH  21  22
ENDBRANCH   3  21
BRANCH   2  24
ATOM     24  C   UNL     1       0.916  -4.416  -0.958  0.00  0.00    +0.136 C 
BRANCH  24  25
ATOM     25  N   UNL     1       0.040  -5.348  -1.681  0.00  0.00    -0.294 NA
ATOM     26  C   UNL     1      -1.200  -4.684  -2.105  0.00  0.00    +0.104 C 
ATOM     27  C   UNL     1      -2.000  -5.631  -3.005  0.00  0.00    +0.123 C 
ATOM     28  N   UNL     1      -2.189  -6.905  -2.294  0.00  0.00    -0.295 N 
ATOM     29  C   UNL     1      -1.005  -7.563  -1.720  0.00  0.00    +0.123 C 
ATOM     30  C   UNL     1      -0.244  -6.540  -0.870  0.00  0.00    +0.104 C 
ATOM     31  C   UNL     1      -3.413  -7.455  -2.172  0.00  0.00    +0.247 C 
ATOM     32  O   UNL     1      -3.566  -8.456  -1.500  0.00  0.00    -0.270 OA
BRANCH  31  33
ATOM     33  C   UNL     1      -4.569  -6.840  -2.854  0.00  0.00    +0.037 A 
ATOM     34  C   UNL     1      -4.398  -6.203  -4.086  0.00  0.00    +0.016 A 
ATOM     35  C   UNL     1      -5.479  -5.632  -4.719  0.00  0.00    +0.046 A 
ATOM     36  C   UNL     1      -6.739  -5.687  -4.135  0.00  0.00    +0.120 A 
ATOM     37  C   UNL     1      -6.913  -6.320  -2.909  0.00  0.00    +0.046 A 
ATOM     38  C   UNL     1      -5.838  -6.899  -2.272  0.00  0.00    +0.016 A 
BRANCH  36  39
ATOM     39  O   UNL     1      -7.802  -5.122  -4.761  0.00  0.00    -0.495 OA
ATOM     40  C   UNL     1      -9.068  -5.216  -4.105  0.00  0.00    +0.277 C 
ENDBRANCH  36  39
ENDBRANCH  31  33
ENDBRANCH  24  25
ENDBRANCH   2  24
TORSDOF 10
