REMARK  Name = ZINC09750716
REMARK  7 active torsions:
REMARK  status: ('A' for Active; 'I' for Inactive)
REMARK    1  A    between atoms: C_1  and  C_2
REMARK    2  A    between atoms: C_2  and  N_3
REMARK    3  A    between atoms: C_7  and  C_25
REMARK    4  A    between atoms: C_12  and  S_13
REMARK    5  A    between atoms: S_13  and  C_14
REMARK    6  A    between atoms: C_14  and  C_15
REMARK    7  A    between atoms: N_17  and  C_18
REMARK                            x       y       z     vdW  Elec       q    Type
REMARK                         _______ _______ _______ _____ _____    ______ ____
ROOT
ATOM      1  N   UNL     1       3.575   5.386   2.718  0.00  0.00    -0.288 N 
ATOM      2  C   UNL     1       2.669   4.777   1.931  0.00  0.00    +0.264 A 
ATOM      3  O   UNL     1       2.416   3.594   2.083  0.00  0.00    -0.267 OA
ATOM      4  C   UNL     1       2.003   5.535   0.920  0.00  0.00    +0.080 A 
ATOM      5  C   UNL     1       0.998   5.099  -0.047  0.00  0.00    +0.010 A 
ATOM      6  C   UNL     1       0.506   6.004  -0.927  0.00  0.00    +0.057 A 
ATOM      7  S   UNL     1       1.376   7.503  -0.509  0.00  0.00    -0.076 S 
ATOM      8  C   UNL     1       2.371   6.888   0.825  0.00  0.00    +0.117 A 
ATOM      9  N   UNL     1       3.275   7.430   1.633  0.00  0.00    -0.216 NA
ATOM     10  C   UNL     1       3.871   6.709   2.562  0.00  0.00    +0.173 A 
ENDROOT
BRANCH   5  11
ATOM     11  C   UNL     1       0.524   3.700  -0.061  0.00  0.00    +0.021 A 
ATOM     12  C   UNL     1      -0.761   3.224  -0.060  0.00  0.00    +0.016 A 
ATOM     13  C   UNL     1      -0.962   1.860  -0.081  0.00  0.00    +0.008 A 
ATOM     14  C   UNL     1       0.114   1.033  -0.090  0.00  0.00    +0.046 A 
ATOM     15  S   UNL     1       1.475   2.189  -0.083  0.00  0.00    -0.097 S 
ENDBRANCH   5  11
BRANCH   1  17
ATOM     16  C   UNL     1       3.451   4.690   5.059  0.00  0.00    +0.027 C 
ATOM     17  C   UNL     1       4.257   4.615   3.760  0.00  0.00    +0.124 C 
ENDBRANCH   1  17
BRANCH  10  18
ATOM     18  S   UNL     1       5.066   7.464   3.614  0.00  0.00    -0.078 S 
BRANCH  18  19
ATOM     19  C   UNL     1       5.038   9.152   2.963  0.00  0.00    +0.173 C 
BRANCH  19  20
ATOM     20  C   UNL     1       6.012  10.004   3.734  0.00  0.00    +0.228 C 
ATOM     21  O   UNL     1       6.661   9.518   4.636  0.00  0.00    -0.275 OA
ATOM     22  N   UNL     1       6.162  11.307   3.422  0.00  0.00    -0.282 N 
ATOM     23  H   UNL     1       5.689  11.681   2.662  0.00  0.00    +0.155 HD
BRANCH  22  24
ATOM     24  C   UNL     1       7.000  12.120   4.195  0.00  0.00    +0.071 A 
ATOM     25  C   UNL     1       8.158  11.600   4.766  0.00  0.00    +0.028 A 
ATOM     26  C   UNL     1       8.958  12.445   5.518  0.00  0.00    +0.022 A 
ATOM     27  C   UNL     1       8.579  13.764   5.684  0.00  0.00    +0.112 A 
ATOM     28  N   UNL     1       7.472  14.226   5.134  0.00  0.00    -0.242 NA
ATOM     29  C   UNL     1       6.685  13.457   4.407  0.00  0.00    +0.150 A 
ATOM     30 CL   UNL     1       5.241  14.122   3.709  0.00  0.00    -0.060 Cl
ENDBRANCH  22  24
ENDBRANCH  19  20
ENDBRANCH  18  19
ENDBRANCH  10  18
TORSDOF 6
