REMARK  Name = ZINC54642290
REMARK  8 active torsions:
REMARK  status: ('A' for Active; 'I' for Inactive)
REMARK    1  A    between atoms: C_1  and  C_2
REMARK    2  A    between atoms: C_7  and  C_8
REMARK    3  A    between atoms: C_8  and  O_9
REMARK    4  A    between atoms: O_9  and  C_10
REMARK    5  A    between atoms: C_13  and  C_16
REMARK    6  A    between atoms: C_29  and  S_31
REMARK    7  A    between atoms: S_31  and  C_32
REMARK    8  A    between atoms: C_32  and  C_33
REMARK                            x       y       z     vdW  Elec       q    Type
REMARK                         _______ _______ _______ _____ _____    ______ ____
ROOT
ATOM      1  C   UNL     1       0.069   1.235   8.802  0.00  0.00    +0.175 C 
ATOM      2  C   UNL     1      -1.153   0.746   9.548  0.00  0.00    +0.041 C 
ATOM      3  C   UNL     1      -1.076  -0.198  10.510  0.00  0.00    +0.020 C 
ATOM      4  C   UNL     1      -2.316  -0.679  11.226  0.00  0.00    +0.052 C 
ATOM      5  C   UNL     1      -3.335   0.459  11.312  0.00  0.00    +0.014 C 
ATOM      6  C   UNL     1      -3.663   0.920   9.888  0.00  0.00    +0.080 C 
ATOM      7  C   UNL     1      -2.389   1.320   9.198  0.00  0.00    +0.163 C 
ATOM      8  O   UNL     1      -2.427   2.157   8.318  0.00  0.00    -0.292 OA
ATOM      9  N   UNL     1       0.123  -0.755  10.884  0.00  0.00    -0.287 N 
ATOM     10  C   UNL     1       1.289  -0.133  10.468  0.00  0.00    +0.219 A 
ATOM     11  N   UNL     1       1.278   0.807   9.493  0.00  0.00    -0.220 N 
ATOM     12  N   UNL     1       2.598   1.224   9.331  0.00  0.00    -0.141 NA
ATOM     13  C   UNL     1       3.321   0.532  10.185  0.00  0.00    +0.211 A 
ATOM     14  N   UNL     1       2.521  -0.288  10.870  0.00  0.00    -0.187 NA
ATOM     15  H   UNL     1       0.153  -1.561  11.422  0.00  0.00    +0.155 HD
ENDROOT
BRANCH   1  19
ATOM     16  C   UNL     1       0.053  -0.377   4.844  0.00  0.00    +0.121 A 
ATOM     17  C   UNL     1       0.031   0.997   5.035  0.00  0.00    +0.046 A 
ATOM     18  C   UNL     1       0.035   1.516   6.315  0.00  0.00    +0.009 A 
ATOM     19  C   UNL     1       0.063   0.667   7.406  0.00  0.00    -0.018 A 
ATOM     20  C   UNL     1       0.086  -0.703   7.218  0.00  0.00    +0.009 A 
ATOM     21  C   UNL     1       0.075  -1.227   5.940  0.00  0.00    +0.046 A 
BRANCH  16  22
ATOM     22  O   UNL     1       0.048  -0.889   3.585  0.00  0.00    -0.487 OA
BRANCH  22  23
ATOM     23  C   UNL     1       0.025   0.045   2.504  0.00  0.00    +0.264 C 
BRANCH  23  30
ATOM     24  C   UNL     1      -0.018   1.503   0.010  0.00  0.00    +0.044 C 
ATOM     25  C   UNL     1       0.002  -0.004   0.002  0.00  0.00    -0.044 A 
ATOM     26  C   UNL     1       0.006  -0.689  -1.199  0.00  0.00    +0.004 A 
ATOM     27  C   UNL     1       0.025  -2.071  -1.207  0.00  0.00    +0.000 A 
ATOM     28  C   UNL     1       0.040  -2.768  -0.013  0.00  0.00    +0.000 A 
ATOM     29  C   UNL     1       0.037  -2.084   1.188  0.00  0.00    +0.007 A 
ATOM     30  C   UNL     1       0.023  -0.702   1.195  0.00  0.00    -0.007 A 
ENDBRANCH  23  30
ENDBRANCH  22  23
ENDBRANCH  16  22
ENDBRANCH   1  19
BRANCH  13  31
ATOM     31  S   UNL     1       5.066   0.667  10.393  0.00  0.00    -0.080 S 
BRANCH  31  32
ATOM     32  C   UNL     1       5.446  -0.532  11.701  0.00  0.00    +0.112 C 
BRANCH  32  33
ATOM     33  C   UNL     1       6.926  -0.518  11.980  0.00  0.00    -0.037 A 
ATOM     34  C   UNL     1       7.771  -1.357  11.278  0.00  0.00    +0.004 A 
ATOM     35  C   UNL     1       9.129  -1.344  11.534  0.00  0.00    +0.000 A 
ATOM     36  C   UNL     1       9.643  -0.491  12.493  0.00  0.00    +0.000 A 
ATOM     37  C   UNL     1       8.799   0.348  13.195  0.00  0.00    +0.000 A 
ATOM     38  C   UNL     1       7.441   0.338  12.936  0.00  0.00    +0.004 A 
ENDBRANCH  32  33
ENDBRANCH  31  32
ENDBRANCH  13  31
TORSDOF 7
