REMARK  Name = ZINC38706130
REMARK  15 active torsions:
REMARK  status: ('A' for Active; 'I' for Inactive)
REMARK    1  A    between atoms: C_1  and  C_2
REMARK    2  A    between atoms: C_5  and  C_8
REMARK    3  A    between atoms: C_8  and  N_9
REMARK    4  A    between atoms: C_10  and  C_29
REMARK    5  A    between atoms: C_13  and  C_20
REMARK    6  A    between atoms: C_21  and  C_28
REMARK    7  A    between atoms: C_23  and  C_27
REMARK    8  A    between atoms: C_25  and  O_26
REMARK    9  A    between atoms: C_32  and  O_37
REMARK   10  A    between atoms: C_33  and  O_35
REMARK   11  A    between atoms: O_35  and  C_36
REMARK   12  A    between atoms: O_37  and  C_38
REMARK   13  A    between atoms: C_38  and  C_39
REMARK   14  A    between atoms: C_39  and  C_40
REMARK   15  A    between atoms: C_39  and  C_41
REMARK                            x       y       z     vdW  Elec       q    Type
REMARK                         _______ _______ _______ _____ _____    ______ ____
ROOT
ATOM      1  N   UNL     1       1.467  -4.366  -0.346  0.00  0.00    -0.281 N 
ATOM      2  C   UNL     1       2.562  -4.705  -1.265  0.00  0.00    +0.142 C 
ATOM      3  C   UNL     1       3.687  -5.211  -0.404  0.00  0.00    +0.035 A 
ATOM      4  C   UNL     1       4.990  -5.716  -0.342  0.00  0.00    +0.102 A 
ATOM      5  N   UNL     1       5.270  -5.934   0.928  0.00  0.00    -0.173 NA
ATOM      6  N   UNL     1       4.272  -5.616   1.674  0.00  0.00    -0.272 N 
ATOM      7  H   UNL     1       4.253  -5.693   2.641  0.00  0.00    +0.189 HD
ATOM      8  C   UNL     1       3.243  -5.155   0.904  0.00  0.00    +0.126 A 
ATOM      9  C   UNL     1       1.874  -4.626   0.909  0.00  0.00    +0.266 C 
ATOM     10  O   UNL     1       1.202  -4.449   1.908  0.00  0.00    -0.268 OA
ENDROOT
BRANCH   4  11
ATOM     11  C   UNL     1       5.892  -5.962  -1.495  0.00  0.00    +0.047 A 
ATOM     12  C   UNL     1       7.201  -5.486  -1.473  0.00  0.00    -0.037 A 
ATOM     13  C   UNL     1       8.036  -5.718  -2.547  0.00  0.00    +0.007 A 
ATOM     14  C   UNL     1       7.577  -6.421  -3.647  0.00  0.00    -0.047 A 
ATOM     15  C   UNL     1       6.280  -6.896  -3.679  0.00  0.00    +0.049 A 
ATOM     16  C   UNL     1       5.433  -6.676  -2.605  0.00  0.00    +0.127 A 
ATOM     17  C   UNL     1       8.496  -6.668  -4.816  0.00  0.00    +0.044 C 
ATOM     18  C   UNL     1       7.705  -4.719  -0.277  0.00  0.00    +0.044 C 
BRANCH  16  19
ATOM     19  O   UNL     1       4.160  -7.148  -2.633  0.00  0.00    -0.506 OA
ATOM     20  H   UNL     1       3.534  -6.564  -3.084  0.00  0.00    +0.292 HD
ENDBRANCH  16  19
ENDBRANCH   4  11
BRANCH   2  21
ATOM     21  C   UNL     1       2.999  -3.480  -2.025  0.00  0.00    -0.019 A 
ATOM     22  C   UNL     1       3.296  -2.314  -1.343  0.00  0.00    +0.009 A 
ATOM     23  C   UNL     1       3.698  -1.188  -2.036  0.00  0.00    +0.050 A 
ATOM     24  C   UNL     1       3.804  -1.225  -3.417  0.00  0.00    +0.162 A 
ATOM     25  C   UNL     1       3.506  -2.398  -4.103  0.00  0.00    +0.162 A 
ATOM     26  C   UNL     1       3.109  -3.525  -3.402  0.00  0.00    +0.055 A 
BRANCH  25  27
ATOM     27  O   UNL     1       3.609  -2.439  -5.459  0.00  0.00    -0.491 OA
ATOM     28  C   UNL     1       3.287  -3.677  -6.096  0.00  0.00    +0.277 C 
ENDBRANCH  25  27
BRANCH  24  29
ATOM     29  O   UNL     1       4.199  -0.117  -4.100  0.00  0.00    -0.488 OA
BRANCH  29  30
ATOM     30  C   UNL     1       4.488   1.051  -3.330  0.00  0.00    +0.232 C 
BRANCH  30  31
ATOM     31  C   UNL     1       4.912   2.186  -4.264  0.00  0.00    +0.020 C 
ATOM     32  C   UNL     1       3.736   2.574  -5.162  0.00  0.00    +0.010 C 
ATOM     33  C   UNL     1       5.341   3.397  -3.434  0.00  0.00    +0.010 C 
ENDBRANCH  30  31
ENDBRANCH  29  30
ENDBRANCH  24  29
ENDBRANCH   2  21
BRANCH   1  34
ATOM     34  C   UNL     1       0.159  -3.831  -0.730  0.00  0.00    +0.144 C 
BRANCH  34  39
ATOM     35  C   UNL     1       0.386   1.943  -0.819  0.00  0.00    +0.044 C 
ATOM     36  C   UNL     1       0.327   0.437  -0.795  0.00  0.00    -0.050 A 
ATOM     37  C   UNL     1       0.627  -0.284  -1.936  0.00  0.00    +0.003 A 
ATOM     38  C   UNL     1       0.573  -1.665  -1.915  0.00  0.00    +0.005 A 
ATOM     39  C   UNL     1       0.219  -2.325  -0.753  0.00  0.00    -0.030 A 
ATOM     40  C   UNL     1      -0.080  -1.604   0.388  0.00  0.00    +0.005 A 
ATOM     41  C   UNL     1      -0.021  -0.223   0.368  0.00  0.00    +0.003 A 
ENDBRANCH  34  39
ENDBRANCH   1  34
TORSDOF 9
