REMARK  Name = ZINC11782349
REMARK  7 active torsions:
REMARK  status: ('A' for Active; 'I' for Inactive)
REMARK    1  A    between atoms: C_1  and  O_2
REMARK    2  A    between atoms: O_2  and  C_3
REMARK    3  A    between atoms: C_3  and  C_5
REMARK    4  A    between atoms: C_6  and  O_26
REMARK    5  A    between atoms: C_16  and  C_17
REMARK    6  A    between atoms: C_16  and  N_64
REMARK    7  A    between atoms: O_26  and  C_27
REMARK                            x       y       z     vdW  Elec       q    Type
REMARK                         _______ _______ _______ _____ _____    ______ ____
ROOT
ATOM      1  C   UNL     1      -0.787  -1.204  -4.345  0.00  0.00    +0.120 A 
ATOM      2  C   UNL     1      -1.734  -2.193  -4.860  0.00  0.00    +0.142 A 
ATOM      3  C   UNL     1      -2.423  -2.963  -3.944  0.00  0.00    +0.116 A 
ATOM      4  C   UNL     1      -2.175  -2.778  -2.583  0.00  0.00    +0.255 A 
ATOM      5  O   UNL     1      -2.793  -3.450  -1.774  0.00  0.00    -0.268 OA
ATOM      6  N   UNL     1      -1.272  -1.877  -2.130  0.00  0.00    -0.313 N 
ATOM      7  C   UNL     1      -0.607  -1.079  -2.974  0.00  0.00    +0.038 A 
ATOM      8  C   UNL     1       0.347  -0.004  -2.512  0.00  0.00    +0.036 C 
ATOM      9  C   UNL     1       1.006  -0.377  -1.185  0.00  0.00    -0.072 C 
ATOM     10  C   UNL     1      -1.173  -0.410  -0.144  0.00  0.00    -0.056 C 
ATOM     11  C   UNL     1      -1.062  -1.838  -0.679  0.00  0.00    +0.106 C 
ATOM     12  N   UNL     1       0.191   0.149  -0.071  0.00  0.00    +0.386 N 
ATOM     13  H   UNL     1       0.620  -0.131   0.818  0.00  0.00    -0.081 HD
ENDROOT
BRANCH   1  14
ATOM     14  C   UNL     1      -0.031  -0.348  -5.273  0.00  0.00    +0.344 C 
ATOM     15  O   UNL     1       0.955  -0.783  -5.835  0.00  0.00    -0.245 OA
BRANCH  14  17
ATOM     16  C   UNL     1       0.361   1.705  -6.428  0.00  0.00    +0.280 C 
ATOM     17  O   UNL     1      -0.432   0.919  -5.500  0.00  0.00    -0.464 OA
ENDBRANCH  14  17
ENDBRANCH   1  14
BRANCH  12  18
ATOM     18  C   UNL     1       0.137   1.625  -0.136  0.00  0.00    -0.003 C 
BRANCH  18  19
ATOM     19  C   UNL     1      -0.516   2.145   1.118  0.00  0.00    +0.090 A 
ATOM     20  C   UNL     1       0.132   2.448   2.251  0.00  0.00    +0.051 A 
ATOM     21  C   UNL     1      -0.891   2.915   3.195  0.00  0.00    +0.020 A 
ATOM     22  C   UNL     1      -0.867   3.369   4.513  0.00  0.00    +0.011 A 
ATOM     23  C   UNL     1      -2.034   3.733   5.126  0.00  0.00    +0.001 A 
ATOM     24  C   UNL     1      -3.240   3.653   4.444  0.00  0.00    +0.004 A 
ATOM     25  C   UNL     1      -3.283   3.207   3.141  0.00  0.00    +0.047 A 
ATOM     26  C   UNL     1      -2.109   2.832   2.500  0.00  0.00    +0.135 A 
ATOM     27  O   UNL     1      -1.834   2.368   1.264  0.00  0.00    -0.462 OA
ENDBRANCH  18  19
ENDBRANCH  12  18
BRANCH   2  28
ATOM     28  O   UNL     1      -1.929  -2.348  -6.190  0.00  0.00    -0.487 OA
BRANCH  28  29
ATOM     29  C   UNL     1      -2.960  -3.251  -6.594  0.00  0.00    +0.182 C 
ATOM     30  C   UNL     1      -2.395  -4.673  -6.801  0.00  0.00    +0.080 C 
ATOM     31  C   UNL     1      -3.176  -5.244  -7.965  0.00  0.00    -0.041 A 
ATOM     32  C   UNL     1      -3.328  -6.554  -8.388  0.00  0.00    +0.004 A 
ATOM     33  C   UNL     1      -4.101  -6.842  -9.495  0.00  0.00    +0.000 A 
ATOM     34  C   UNL     1      -4.725  -5.820 -10.186  0.00  0.00    +0.000 A 
ATOM     35  C   UNL     1      -4.576  -4.513  -9.766  0.00  0.00    +0.004 A 
ATOM     36  C   UNL     1      -3.801  -4.222  -8.655  0.00  0.00    -0.041 A 
ATOM     37  C   UNL     1      -3.482  -2.894  -8.002  0.00  0.00    +0.080 C 
ENDBRANCH  28  29
ENDBRANCH   2  28
TORSDOF 6
