REMARK  Name = ZINC13679357
REMARK  8 active torsions:
REMARK  status: ('A' for Active; 'I' for Inactive)
REMARK    1  A    between atoms: C_1  and  C_2
REMARK    2  A    between atoms: C_2  and  O_3
REMARK    3  A    between atoms: O_3  and  C_4
REMARK    4  A    between atoms: C_4  and  C_6
REMARK    5  A    between atoms: C_11  and  N_12
REMARK    6  A    between atoms: C_13  and  C_15
REMARK    7  A    between atoms: N_18  and  S_26
REMARK    8  A    between atoms: S_26  and  C_29
REMARK                            x       y       z     vdW  Elec       q    Type
REMARK                         _______ _______ _______ _____ _____    ______ ____
ROOT
ATOM      1  C   UNL     1       1.280   2.114   0.010  0.00  0.00    +0.278 C 
ATOM      2  C   UNL     1       2.028   1.861   1.327  0.00  0.00    +0.186 C 
ATOM      3  N   UNL     1       3.258   2.670   1.302  0.00  0.00    -0.195 N 
ATOM      4  C   UNL     1       3.167   3.981   0.809  0.00  0.00    +0.093 A 
ATOM      5  C   UNL     1       4.205   4.876   1.018  0.00  0.00    +0.028 A 
ATOM      6  C   UNL     1       4.113   6.164   0.524  0.00  0.00    +0.002 A 
ATOM      7  C   UNL     1       2.988   6.559  -0.176  0.00  0.00    +0.004 A 
ATOM      8  C   UNL     1       1.950   5.671  -0.386  0.00  0.00    +0.047 A 
ATOM      9  C   UNL     1       2.032   4.378   0.106  0.00  0.00    +0.144 A 
ATOM     10  O   UNL     1       1.005   3.512  -0.102  0.00  0.00    -0.476 OA
ENDROOT
BRANCH   1  12
ATOM     11  N   UNL     1       0.003  -0.005   0.004  0.00  0.00    -0.282 N 
ATOM     12  C   UNL     1      -0.015   1.343   0.009  0.00  0.00    +0.260 C 
ATOM     13  O   UNL     1      -1.074   1.935   0.007  0.00  0.00    -0.271 OA
ATOM     14  H   UNL     1       0.845  -0.478  -0.077  0.00  0.00    +0.155 HD
BRANCH  11  20
ATOM     15  C   UNL     1      -1.283  -2.018  -0.402  0.00  0.00    +0.080 A 
ATOM     16  C   UNL     1      -2.482  -2.725  -0.278  0.00  0.00    +0.017 A 
ATOM     17  C   UNL     1      -3.565  -2.138   0.340  0.00  0.00    +0.001 A 
ATOM     18  C   UNL     1      -3.470  -0.851   0.845  0.00  0.00    +0.002 A 
ATOM     19  C   UNL     1      -2.290  -0.143   0.735  0.00  0.00    +0.024 A 
ATOM     20  C   UNL     1      -1.188  -0.718   0.116  0.00  0.00    +0.048 A 
BRANCH  15  21
ATOM     21  C   UNL     1      -0.123  -2.638  -1.067  0.00  0.00    +0.341 C 
ATOM     22  O   UNL     1       0.945  -2.059  -1.089  0.00  0.00    -0.245 OA
BRANCH  21  23
ATOM     23  O   UNL     1      -0.246  -3.847  -1.650  0.00  0.00    -0.461 OA
BRANCH  23  25
ATOM     24  C   UNL     1       0.605  -5.763  -2.888  0.00  0.00    +0.048 C 
ATOM     25  C   UNL     1       0.938  -4.396  -2.286  0.00  0.00    +0.229 C 
ENDBRANCH  23  25
ENDBRANCH  21  23
ENDBRANCH  15  21
ENDBRANCH  11  20
ENDBRANCH   1  12
BRANCH   3  26
ATOM     26  S   UNL     1       4.699   2.055   1.837  0.00  0.00    +0.075 S 
ATOM     27  O   UNL     1       4.603   0.641   1.729  0.00  0.00    -0.150 OA
ATOM     28  O   UNL     1       5.724   2.800   1.194  0.00  0.00    -0.150 OA
BRANCH  26  29
ATOM     29  C   UNL     1       4.815   2.421   3.557  0.00  0.00    +0.109 A 
ATOM     30  C   UNL     1       5.404   3.600   3.974  0.00  0.00    +0.030 A 
ATOM     31  C   UNL     1       5.490   3.890   5.323  0.00  0.00    +0.022 A 
ATOM     32  C   UNL     1       4.997   2.995   6.256  0.00  0.00    +0.041 A 
ATOM     33  C   UNL     1       4.412   1.813   5.838  0.00  0.00    +0.022 A 
ATOM     34  C   UNL     1       4.322   1.526   4.489  0.00  0.00    +0.030 A 
ATOM     35 CL   UNL     1       5.110   3.356   7.950  0.00  0.00    -0.084 Cl
ENDBRANCH  26  29
ENDBRANCH   3  26
TORSDOF 7
