REMARK  Name = ZINC04092586
REMARK  12 active torsions:
REMARK  status: ('A' for Active; 'I' for Inactive)
REMARK    1  A    between atoms: C_1  and  C_2
REMARK    2  A    between atoms: C_2  and  C_3
REMARK    3  A    between atoms: C_3  and  C_4
REMARK    4  A    between atoms: C_4  and  C_32
REMARK    5  A    between atoms: C_9  and  C_12
REMARK    6  A    between atoms: C_15  and  N_18
REMARK    7  A    between atoms: N_18  and  C_19
REMARK    8  A    between atoms: N_18  and  C_20
REMARK    9  A    between atoms: N_23  and  C_26
REMARK   10  A    between atoms: C_32  and  O_34
REMARK   11  A    between atoms: O_34  and  C_35
REMARK   12  A    between atoms: C_35  and  C_36
REMARK                            x       y       z     vdW  Elec       q    Type
REMARK                         _______ _______ _______ _____ _____    ______ ____
ROOT
ATOM      1  C   UNL     1      -1.455  -2.039  -0.045  0.00  0.00    +0.044 C 
ATOM      2  C   UNL     1      -2.873  -2.633   0.085  0.00  0.00    +0.086 C 
ATOM      3  C   UNL     1      -2.703  -3.871   1.006  0.00  0.00    +0.077 C 
ATOM      4  C   UNL     1      -1.196  -3.918   1.331  0.00  0.00    -0.027 C 
ATOM      5  N   UNL     1      -0.737  -2.508   1.167  0.00  0.00    +0.395 N 
ATOM      6  C   UNL     1      -3.483  -3.495   2.245  0.00  0.00    +0.229 C 
ATOM      7  O   UNL     1      -3.612  -4.191   3.230  0.00  0.00    -0.275 OA
ATOM      8  N   UNL     1      -4.009  -2.275   2.085  0.00  0.00    -0.210 N 
ATOM      9  C   UNL     1      -3.735  -1.691   0.896  0.00  0.00    +0.229 C 
ATOM     10  O   UNL     1      -4.110  -0.597   0.534  0.00  0.00    -0.275 OA
ATOM     11  H   UNL     1       0.261  -2.481   1.018  0.00  0.00    -0.083 HD
ATOM     12  H   UNL     1      -0.991  -1.948   1.967  0.00  0.00    -0.083 HD
ENDROOT
BRANCH   4  13
ATOM     13  C   UNL     1      -0.980  -4.364   2.755  0.00  0.00    -0.060 A 
ATOM     14  C   UNL     1      -1.135  -3.462   3.791  0.00  0.00    +0.004 A 
ATOM     15  C   UNL     1      -0.938  -3.867   5.097  0.00  0.00    +0.023 A 
ATOM     16  C   UNL     1      -0.584  -5.183   5.368  0.00  0.00    +0.029 A 
ATOM     17  C   UNL     1      -0.428  -6.086   4.324  0.00  0.00    +0.023 A 
ATOM     18  C   UNL     1      -0.632  -5.675   3.022  0.00  0.00    +0.004 A 
BRANCH  16  19
ATOM     19  N   UNL     1      -0.383  -5.596   6.687  0.00  0.00    -0.336 N 
ATOM     20  C   UNL     1      -0.547  -4.642   7.787  0.00  0.00    +0.129 C 
ATOM     21  C   UNL     1      -0.009  -6.984   6.971  0.00  0.00    +0.129 C 
ENDBRANCH  16  19
ENDBRANCH   4  13
BRANCH   8  22
ATOM     22  C   UNL     1      -4.790  -1.652   3.069  0.00  0.00    +0.044 A 
ATOM     23  C   UNL     1      -4.318  -0.518   3.716  0.00  0.00    +0.024 A 
ATOM     24  C   UNL     1      -5.089   0.095   4.684  0.00  0.00    +0.002 A 
ATOM     25  C   UNL     1      -6.330  -0.421   5.010  0.00  0.00    +0.000 A 
ATOM     26  C   UNL     1      -6.803  -1.551   4.367  0.00  0.00    +0.002 A 
ATOM     27  C   UNL     1      -6.039  -2.164   3.394  0.00  0.00    +0.024 A 
ENDBRANCH   8  22
BRANCH   1  28
ATOM     28  C   UNL     1      -0.779  -2.555  -1.289  0.00  0.00    +0.297 C 
ATOM     29  O   UNL     1      -1.443  -2.905  -2.236  0.00  0.00    -0.252 OA
BRANCH  28  30
ATOM     30  O   UNL     1       0.560  -2.626  -1.345  0.00  0.00    -0.466 OA
BRANCH  30  31
ATOM     31  C   UNL     1       1.133  -3.125  -2.555  0.00  0.00    +0.228 C 
ATOM     32  C   UNL     1       2.658  -3.132  -2.432  0.00  0.00    +0.048 C 
ENDBRANCH  30  31
ENDBRANCH  28  30
ENDBRANCH   1  28
BRANCH   1  33
ATOM     33  C   UNL     1      -1.518  -0.510  -0.069  0.00  0.00    -0.001 C 
BRANCH  33  35
ATOM     34  C   UNL     1      -0.161   1.587  -0.141  0.00  0.00    +0.004 C 
ATOM     35  C   UNL     1      -0.098   0.058  -0.117  0.00  0.00    -0.004 C 
ENDBRANCH  33  35
ENDBRANCH   1  33
TORSDOF 8
