REMARK  Name = ZINC10246359
REMARK  10 active torsions:
REMARK  status: ('A' for Active; 'I' for Inactive)
REMARK    1  A    between atoms: C_1  and  C_2
REMARK    2  A    between atoms: C_7  and  N_8
REMARK    3  A    between atoms: C_9  and  C_33
REMARK    4  A    between atoms: C_12  and  S_13
REMARK    5  A    between atoms: S_13  and  C_14
REMARK    6  A    between atoms: C_14  and  C_16
REMARK    7  A    between atoms: C_14  and  C_17
REMARK    8  A    between atoms: N_19  and  C_20
REMARK    9  A    between atoms: C_23  and  N_30
REMARK   10  A    between atoms: C_25  and  C_26
REMARK                            x       y       z     vdW  Elec       q    Type
REMARK                         _______ _______ _______ _____ _____    ______ ____
ROOT
ATOM      1  C   UNL     1       1.396   2.044  -0.001  0.00  0.00    +0.230 C 
ATOM      2  O   UNL     1       1.889   2.437  -1.037  0.00  0.00    -0.274 OA
ATOM      3  N   UNL     1       2.108   2.084   1.143  0.00  0.00    -0.284 N 
ATOM      4  H   UNL     1       1.689   1.846   1.984  0.00  0.00    +0.155 HD
ENDROOT
BRANCH   3   5
ATOM      5  C   UNL     1       3.453   2.469   1.116  0.00  0.00    +0.045 A 
ATOM      6  C   UNL     1       4.198   2.316  -0.046  0.00  0.00    +0.026 A 
ATOM      7  C   UNL     1       5.525   2.696  -0.070  0.00  0.00    +0.034 A 
ATOM      8  C   UNL     1       6.113   3.231   1.063  0.00  0.00    +0.127 A 
ATOM      9  C   UNL     1       5.374   3.385   2.221  0.00  0.00    +0.047 A 
ATOM     10  C   UNL     1       4.045   3.011   2.249  0.00  0.00    +0.078 A 
BRANCH  10  11
ATOM     11  C   UNL     1       3.238   3.186   3.510  0.00  0.00    +0.419 C 
ATOM     12  F   UNL     1       4.046   3.747   4.506  0.00  0.00    -0.166 F 
ATOM     13  F   UNL     1       2.154   4.033   3.257  0.00  0.00    -0.166 F 
ATOM     14  F   UNL     1       2.767   1.940   3.939  0.00  0.00    -0.166 F 
ENDBRANCH  10  11
BRANCH   8  15
ATOM     15  N   UNL     1       7.536   3.639   1.034  0.00  0.00    +0.056 N 
ATOM     16  O   UNL     1       8.188   3.503   0.014  0.00  0.00    -0.126 OA
ATOM     17  O   UNL     1       8.054   4.109   2.031  0.00  0.00    -0.126 OA
ENDBRANCH   8  15
ENDBRANCH   3   5
BRANCH   1  18
ATOM     18  C   UNL     1      -0.014   1.512   0.008  0.00  0.00    +0.137 C 
ATOM     19  C   UNL     1       0.019  -0.018  -0.003  0.00  0.00    +0.029 C 
BRANCH  18  20
ATOM     20  S   UNL     1      -0.893   2.107  -1.458  0.00  0.00    -0.073 S 
BRANCH  20  25
ATOM     21  N   UNL     1      -3.616   1.632  -1.906  0.00  0.00    -0.274 N 
ATOM     22  C   UNL     1      -4.624   0.979  -1.248  0.00  0.00    +0.135 A 
ATOM     23  N   UNL     1      -4.119   0.492  -0.151  0.00  0.00    -0.133 NA
ATOM     24  N   UNL     1      -2.870   0.784  -0.071  0.00  0.00    -0.122 NA
ATOM     25  C   UNL     1      -2.505   1.481  -1.123  0.00  0.00    +0.197 A 
ATOM     26  C   UNL     1      -6.055   0.852  -1.706  0.00  0.00    +0.088 C 
BRANCH  21  33
ATOM     27  C   UNL     1      -4.281   4.399  -1.863  0.00  0.00    +0.046 C 
ATOM     28  C   UNL     1      -4.026   3.663  -3.153  0.00  0.00    -0.027 A 
ATOM     29  C   UNL     1      -4.107   4.332  -4.359  0.00  0.00    +0.005 A 
ATOM     30  C   UNL     1      -3.877   3.655  -5.543  0.00  0.00    +0.000 A 
ATOM     31  C   UNL     1      -3.562   2.309  -5.523  0.00  0.00    +0.002 A 
ATOM     32  C   UNL     1      -3.475   1.636  -4.320  0.00  0.00    +0.026 A 
ATOM     33  C   UNL     1      -3.704   2.313  -3.130  0.00  0.00    +0.053 A 
ENDBRANCH  21  33
ENDBRANCH  20  25
ENDBRANCH  18  20
ENDBRANCH   1  18
TORSDOF 7
