REMARK  Name = ZINC08855423
REMARK  6 active torsions:
REMARK  status: ('A' for Active; 'I' for Inactive)
REMARK    1  A    between atoms: C_9  and  C_11
REMARK    2  A    between atoms: C_12  and  O_39
REMARK    3  A    between atoms: C_13  and  N_34
REMARK    4  A    between atoms: C_15  and  C_20
REMARK    5  A    between atoms: C_25  and  O_26
REMARK    6  A    between atoms: O_26  and  C_27
REMARK                            x       y       z     vdW  Elec       q    Type
REMARK                         _______ _______ _______ _____ _____    ______ ____
ROOT
ATOM      1  C   UNL     1       2.238   0.864  -0.063  0.00  0.00    +0.025 C 
ATOM      2  C   UNL     1       1.125   1.549  -0.378  0.00  0.00    +0.124 C 
ATOM      3  C   UNL     1       1.158   3.039  -0.588  0.00  0.00    +0.182 C 
ATOM      4  C   UNL     1       2.535   3.454  -1.107  0.00  0.00    +0.062 C 
ATOM      5  C   UNL     1       3.603   2.990  -0.112  0.00  0.00    +0.090 C 
ATOM      6  C   UNL     1       3.479   1.502   0.085  0.00  0.00    +0.162 C 
ATOM      7  O   UNL     1       4.461   0.848   0.375  0.00  0.00    -0.292 OA
ENDROOT
BRANCH   1  16
ATOM      8  C   UNL     1       3.039  -1.498   4.228  0.00  0.00    +0.000 A 
ATOM      9  C   UNL     1       2.240  -0.420   3.896  0.00  0.00    +0.000 A 
ATOM     10  C   UNL     1       1.964  -0.151   2.570  0.00  0.00    +0.002 A 
ATOM     11  C   UNL     1       2.484  -0.957   1.568  0.00  0.00    -0.054 A 
ATOM     12  C   UNL     1       3.284  -2.030   1.900  0.00  0.00    -0.047 A 
ATOM     13  C   UNL     1       3.559  -2.300   3.232  0.00  0.00    +0.004 A 
ATOM     14  C   UNL     1       3.881  -2.927   0.847  0.00  0.00    +0.016 C 
ATOM     15  C   UNL     1       3.147  -2.734  -0.480  0.00  0.00    -0.077 C 
ATOM     16  C   UNL     1       2.151  -0.627   0.137  0.00  0.00    -0.003 C 
ATOM     17  N   UNL     1       3.090  -1.290  -0.778  0.00  0.00    +0.387 N 
ATOM     18  H   UNL     1       2.775  -1.155  -1.746  0.00  0.00    -0.085 HD
ATOM     19  H   UNL     1       4.025  -0.882  -0.662  0.00  0.00    -0.085 HD
ENDBRANCH   1  16
BRANCH   4  20
ATOM     20  C   UNL     1       2.594   4.953  -1.249  0.00  0.00    +0.001 A 
ATOM     21  C   UNL     1       2.388   5.761  -0.148  0.00  0.00    +0.007 A 
ATOM     22  C   UNL     1       2.446   7.136  -0.277  0.00  0.00    +0.001 A 
ATOM     23  C   UNL     1       2.702   7.707  -1.510  0.00  0.00    +0.004 A 
ATOM     24  C   UNL     1       2.904   6.904  -2.616  0.00  0.00    +0.046 A 
ATOM     25  C   UNL     1       2.851   5.523  -2.488  0.00  0.00    +0.132 A 
BRANCH  25  26
ATOM     26  O   UNL     1       3.049   4.731  -3.574  0.00  0.00    -0.456 OA
BRANCH  26  27
ATOM     27  C   UNL     1       3.385   5.329  -4.747  0.00  0.00    +0.130 A 
ATOM     28  C   UNL     1       2.485   5.341  -5.804  0.00  0.00    +0.046 A 
ATOM     29  C   UNL     1       2.827   5.953  -6.994  0.00  0.00    +0.005 A 
ATOM     30  C   UNL     1       4.068   6.546  -7.137  0.00  0.00    +0.020 A 
ATOM     31  C   UNL     1       4.969   6.532  -6.087  0.00  0.00    +0.044 A 
ATOM     32  C   UNL     1       4.630   5.924  -4.892  0.00  0.00    +0.066 A 
ATOM     33 CL   UNL     1       6.526   7.277  -6.270  0.00  0.00    -0.083 Cl
ENDBRANCH  26  27
ENDBRANCH  25  26
ENDBRANCH   4  20
BRANCH   3  34
ATOM     34  N   UNL     1       0.133   3.418  -1.563  0.00  0.00    -0.241 N 
ATOM     35  C   UNL     1      -0.259   2.710  -2.637  0.00  0.00    +0.219 A 
ATOM     36  N   UNL     1      -1.195   3.388  -3.251  0.00  0.00    -0.223 NA
ATOM     37  C   UNL     1      -1.421   4.531  -2.606  0.00  0.00    +0.245 A 
ATOM     38  N   UNL     1      -0.632   4.596  -1.566  0.00  0.00    -0.158 NA
ENDBRANCH   3  34
BRANCH   2  39
ATOM     39  O   UNL     1      -0.041   0.889  -0.513  0.00  0.00    -0.509 OA
ATOM     40  H   UNL     1      -0.766   1.537  -0.747  0.00  0.00    +0.292 HD
ENDBRANCH   2  39
TORSDOF 6
