REMARK  Name = ZINC20907376
REMARK  5 active torsions:
REMARK  status: ('A' for Active; 'I' for Inactive)
REMARK    1  A    between atoms: C_4  and  O_30
REMARK    2  A    between atoms: C_5  and  N_7
REMARK    3  A    between atoms: N_10  and  C_13
REMARK    4  A    between atoms: C_13  and  C_14
REMARK    5  A    between atoms: C_15  and  C_23
REMARK                            x       y       z     vdW  Elec       q    Type
REMARK                         _______ _______ _______ _____ _____    ______ ____
ROOT
ATOM      1  C   UNL     1       2.926  -6.713  -1.178  0.00  0.00    +0.069 A 
ATOM      2  C   UNL     1       2.105  -7.802  -1.112  0.00  0.00    +0.149 A 
ATOM      3  N   UNL     1       2.082  -8.384  -2.326  0.00  0.00    -0.223 NA
ATOM      4  C   UNL     1       2.858  -7.698  -3.148  0.00  0.00    +0.139 A 
ATOM      5  N   UNL     1       3.395  -6.642  -2.455  0.00  0.00    -0.302 N 
ATOM      6  C   UNL     1       4.238  -5.764  -3.078  0.00  0.00    +0.093 A 
ATOM      7  C   UNL     1       4.551  -5.919  -4.380  0.00  0.00    +0.018 A 
ATOM      8  C   UNL     1       4.015  -6.989  -5.117  0.00  0.00    +0.005 A 
ATOM      9  C   UNL     1       3.182  -7.875  -4.511  0.00  0.00    +0.047 A 
ENDROOT
BRANCH   2  10
ATOM     10  C   UNL     1       1.371  -8.262   0.083  0.00  0.00    +0.267 C 
ATOM     11  O   UNL     1       1.471  -7.652   1.130  0.00  0.00    -0.268 OA
ATOM     12  N   UNL     1       0.591  -9.358   0.013  0.00  0.00    -0.296 N 
ATOM     13  C   UNL     1       0.386 -10.190  -1.181  0.00  0.00    +0.108 C 
ATOM     14  C   UNL     1      -0.602 -11.312  -0.795  0.00  0.00    +0.020 C 
ATOM     15  C   UNL     1      -1.336 -10.719   0.437  0.00  0.00    +0.020 C 
ATOM     16  C   UNL     1      -0.194  -9.926   1.125  0.00  0.00    +0.108 C 
ENDBRANCH   2  10
BRANCH   1  17
ATOM     17  C   UNL     1       3.247  -5.763  -0.053  0.00  0.00    +0.140 C 
BRANCH  17  21
ATOM     18  N   UNL     1       1.235  -2.080  -0.021  0.00  0.00    -0.325 N 
ATOM     19  C   UNL     1       1.252  -2.842   1.236  0.00  0.00    +0.120 C 
ATOM     20  C   UNL     1       2.400  -3.856   1.175  0.00  0.00    +0.103 C 
ATOM     21  N   UNL     1       2.268  -4.668  -0.041  0.00  0.00    -0.294 NA
ATOM     22  C   UNL     1       2.388  -3.842  -1.250  0.00  0.00    +0.103 C 
ATOM     23  C   UNL     1       1.234  -2.828  -1.288  0.00  0.00    +0.120 C 
BRANCH  18  28
ATOM     24  C   UNL     1      -0.017   1.378   0.010  0.00  0.00    +0.002 A 
ATOM     25  C   UNL     1       1.169   2.089   0.002  0.00  0.00    +0.004 A 
ATOM     26  C   UNL     1       2.380   1.421  -0.013  0.00  0.00    +0.047 A 
ATOM     27  C   UNL     1       2.407   0.036  -0.021  0.00  0.00    +0.138 A 
ATOM     28  C   UNL     1       1.213  -0.681  -0.013  0.00  0.00    +0.072 A 
ATOM     29  C   UNL     1       0.002  -0.004   0.002  0.00  0.00    +0.027 A 
BRANCH  27  30
ATOM     30  O   UNL     1       3.598  -0.622  -0.036  0.00  0.00    -0.505 OA
ATOM     31  H   UNL     1       3.950  -0.817   0.843  0.00  0.00    +0.292 HD
ENDBRANCH  27  30
ENDBRANCH  18  28
ENDBRANCH  17  21
ENDBRANCH   1  17
TORSDOF 5
