REMARK  Name = ZINC23989777
REMARK  11 active torsions:
REMARK  status: ('A' for Active; 'I' for Inactive)
REMARK    1  A    between atoms: C_1  and  C_2
REMARK    2  A    between atoms: C_3  and  C_36
REMARK    3  A    between atoms: N_12  and  C_35
REMARK    4  A    between atoms: N_16  and  C_17
REMARK    5  A    between atoms: C_17  and  C_18
REMARK    6  A    between atoms: C_18  and  N_19
REMARK    7  A    between atoms: N_19  and  C_20
REMARK    8  A    between atoms: C_20  and  C_21
REMARK    9  A    between atoms: C_21  and  C_22
REMARK   10  A    between atoms: C_22  and  C_23
REMARK   11  A    between atoms: C_22  and  C_29
REMARK                            x       y       z     vdW  Elec       q    Type
REMARK                         _______ _______ _______ _____ _____    ______ ____
ROOT
ATOM      1  C   UNL     1       0.002  -5.283   3.287  0.00  0.00    +0.106 C 
ENDROOT
BRANCH   1  17
ATOM      2  C   UNL     1       2.831  -6.403   4.016  0.00  0.00    +0.065 C 
ATOM      3  C   UNL     1       1.685  -7.178   3.420  0.00  0.00    +0.038 A 
ATOM      4  C   UNL     1       1.695  -8.471   3.109  0.00  0.00    +0.043 A 
ATOM      5  N   UNL     1       0.457  -8.804   2.589  0.00  0.00    -0.275 N 
ATOM      6  C   UNL     1      -0.314  -9.830   2.065  0.00  0.00    +0.157 A 
ATOM      7  C   UNL     1      -0.099 -11.196   1.819  0.00  0.00    +0.280 A 
ATOM      8  O   UNL     1       0.980 -11.704   2.071  0.00  0.00    -0.265 OA
ATOM      9  N   UNL     1      -1.095 -11.938   1.293  0.00  0.00    -0.273 N 
ATOM     10  H   UNL     1      -0.935 -13.008   1.089  0.00  0.00    +0.173 HD
ATOM     11  C   UNL     1      -2.290 -11.393   1.009  0.00  0.00    +0.331 A 
ATOM     12  O   UNL     1      -3.164 -12.094   0.535  0.00  0.00    -0.246 OA
ATOM     13  N   UNL     1      -2.544 -10.091   1.236  0.00  0.00    -0.280 N 
ATOM     14  C   UNL     1      -1.560  -9.276   1.776  0.00  0.00    +0.170 A 
ATOM     15  N   UNL     1      -1.511  -7.988   2.105  0.00  0.00    -0.193 NA
ATOM     16  C   UNL     1      -0.315  -7.692   2.593  0.00  0.00    +0.218 A 
ATOM     17  N   UNL     1       0.440  -6.669   3.104  0.00  0.00    -0.315 N 
ATOM     18  C   UNL     1      -3.860  -9.534   0.912  0.00  0.00    +0.155 C 
ATOM     19  C   UNL     1       2.858  -9.413   3.290  0.00  0.00    +0.066 C 
ENDBRANCH   1  17
BRANCH   1  20
ATOM     20  C   UNL     1       0.320  -4.477   2.026  0.00  0.00    -0.061 C 
BRANCH  20  21
ATOM     21  N   UNL     1      -0.119  -3.087   2.210  0.00  0.00    +0.380 N 
ATOM     22  H   UNL     1      -1.203  -3.066   2.396  0.00  0.00    -0.086 HD
ATOM     23  H   UNL     1       0.409  -2.647   3.069  0.00  0.00    -0.086 HD
BRANCH  21  24
ATOM     24  C   UNL     1       0.171  -2.281   1.016  0.00  0.00    -0.082 C 
BRANCH  24  25
ATOM     25  C   UNL     1      -0.299  -0.843   1.245  0.00  0.00    -0.006 C 
BRANCH  25  26
ATOM     26  C   UNL     1       0.002  -0.004   0.002  0.00  0.00    +0.047 C 
BRANCH  26  27
ATOM     27  C   UNL     1      -0.347   1.437   0.272  0.00  0.00    -0.040 A 
ATOM     28  C   UNL     1      -1.599   1.765   0.757  0.00  0.00    +0.004 A 
ATOM     29  C   UNL     1      -1.918   3.087   1.009  0.00  0.00    +0.000 A 
ATOM     30  C   UNL     1      -0.989   4.080   0.766  0.00  0.00    +0.000 A 
ATOM     31  C   UNL     1       0.262   3.752   0.276  0.00  0.00    +0.000 A 
ATOM     32  C   UNL     1       0.582   2.431   0.029  0.00  0.00    +0.004 A 
ENDBRANCH  26  27
BRANCH  26  33
ATOM     33  C   UNL     1      -0.817  -0.511  -1.157  0.00  0.00    -0.040 A 
ATOM     34  C   UNL     1      -0.202  -0.820  -2.356  0.00  0.00    +0.004 A 
ATOM     35  C   UNL     1      -0.952  -1.290  -3.417  0.00  0.00    +0.000 A 
ATOM     36  C   UNL     1      -2.320  -1.441  -3.283  0.00  0.00    +0.000 A 
ATOM     37  C   UNL     1      -2.936  -1.127  -2.086  0.00  0.00    +0.000 A 
ATOM     38  C   UNL     1      -2.185  -0.662  -1.023  0.00  0.00    +0.004 A 
ENDBRANCH  26  33
ENDBRANCH  25  26
ENDBRANCH  24  25
ENDBRANCH  21  24
ENDBRANCH  20  21
ENDBRANCH   1  20
TORSDOF 8
