REMARK  Name = ZINC26771366
REMARK  5 active torsions:
REMARK  status: ('A' for Active; 'I' for Inactive)
REMARK    1  A    between atoms: C_9  and  O_34
REMARK    2  A    between atoms: C_10  and  N_11
REMARK    3  A    between atoms: N_12  and  C_13
REMARK    4  A    between atoms: C_16  and  N_19
REMARK    5  A    between atoms: C_20  and  C_24
REMARK                            x       y       z     vdW  Elec       q    Type
REMARK                         _______ _______ _______ _____ _____    ______ ____
ROOT
ATOM      1  C   UNL     1      -2.221   9.365  -1.740  0.00  0.00    +0.086 A 
ATOM      2  C   UNL     1      -2.701   8.779  -0.565  0.00  0.00    +0.031 A 
ATOM      3  C   UNL     1      -3.945   9.123  -0.085  0.00  0.00    +0.030 A 
ATOM      4  C   UNL     1      -4.728  10.043  -0.772  0.00  0.00    +0.067 A 
ATOM      5  C   UNL     1      -4.257  10.624  -1.944  0.00  0.00    +0.030 A 
ATOM      6  C   UNL     1      -3.012  10.291  -2.429  0.00  0.00    +0.031 A 
ENDROOT
BRANCH   4   7
ATOM      7  N   UNL     1      -5.995  10.385  -0.283  0.00  0.00    -0.216 N 
ATOM      8  C   UNL     1      -7.166   9.766  -0.597  0.00  0.00    +0.071 A 
ATOM      9  C   UNL     1      -8.130  10.417   0.095  0.00  0.00    +0.160 A 
ATOM     10  N   UNL     1      -7.516  11.385   0.785  0.00  0.00    -0.137 NA
ATOM     11  N   UNL     1      -6.254  11.336   0.544  0.00  0.00    -0.061 NA
BRANCH   8  12
ATOM     12  C   UNL     1      -7.352   8.593  -1.524  0.00  0.00    +0.015 C 
ATOM     13  C   UNL     1      -8.309   7.584  -0.887  0.00  0.00    +0.016 C 
ATOM     14  C   UNL     1      -8.497   6.394  -1.829  0.00  0.00    -0.010 C 
ATOM     15  C   UNL     1      -9.080   6.881  -3.157  0.00  0.00    +0.007 C 
ATOM     16  C   UNL     1      -8.123   7.890  -3.795  0.00  0.00    -0.010 C 
ATOM     17  C   UNL     1      -7.935   9.080  -2.852  0.00  0.00    +0.016 C 
ATOM     18  C   UNL     1      -6.771   7.220  -4.047  0.00  0.00    +0.007 C 
ATOM     19  C   UNL     1      -6.187   6.732  -2.719  0.00  0.00    -0.010 C 
ATOM     20  C   UNL     1      -7.145   5.724  -2.081  0.00  0.00    +0.007 C 
ATOM     21  C   UNL     1      -5.999   7.923  -1.777  0.00  0.00    +0.016 C 
ENDBRANCH   8  12
ENDBRANCH   4   7
BRANCH   1  23
ATOM     22  N   UNL     1      -0.257   8.178  -1.580  0.00  0.00    -0.145 NA
ATOM     23  N   UNL     1      -0.985   9.032  -2.217  0.00  0.00    -0.149 NA
BRANCH  22  33
ATOM     24  C   UNL     1       3.445   5.055  -0.053  0.00  0.00    +0.001 A 
ATOM     25  C   UNL     1       2.190   5.366   0.462  0.00  0.00    +0.001 A 
ATOM     26  C   UNL     1       1.380   6.267  -0.164  0.00  0.00    +0.011 A 
ATOM     27  C   UNL     1       1.811   6.879  -1.347  0.00  0.00    +0.013 A 
ATOM     28  C   UNL     1       3.085   6.561  -1.876  0.00  0.00    -0.016 A 
ATOM     29  C   UNL     1       3.895   5.632  -1.201  0.00  0.00    +0.008 A 
ATOM     30  C   UNL     1       3.516   7.177  -3.065  0.00  0.00    +0.012 A 
ATOM     31  C   UNL     1       2.725   8.073  -3.712  0.00  0.00    +0.048 A 
ATOM     32  C   UNL     1       1.463   8.420  -3.231  0.00  0.00    +0.144 A 
ATOM     33  C   UNL     1       0.972   7.846  -2.055  0.00  0.00    +0.135 A 
BRANCH  32  34
ATOM     34  O   UNL     1       0.707   9.319  -3.909  0.00  0.00    -0.505 OA
ATOM     35  H   UNL     1      -0.290   9.595  -3.533  0.00  0.00    +0.292 HD
ENDBRANCH  32  34
ENDBRANCH  22  33
ENDBRANCH   1  23
TORSDOF 5
