REMARK  Name = ZINC09823538
REMARK  7 active torsions:
REMARK  status: ('A' for Active; 'I' for Inactive)
REMARK    1  A    between atoms: C_1  and  C_2
REMARK    2  A    between atoms: C_2  and  C_3
REMARK    3  A    between atoms: C_2  and  C_4
REMARK    4  A    between atoms: C_2  and  C_5
REMARK    5  A    between atoms: C_8  and  N_11
REMARK    6  A    between atoms: C_22  and  C_24
REMARK    7  A    between atoms: N_26  and  C_27
REMARK                            x       y       z     vdW  Elec       q    Type
REMARK                         _______ _______ _______ _____ _____    ______ ____
ROOT
ATOM      1  N   UNL     1       2.679  -1.894  -4.623  0.00  0.00    -0.269 N 
ATOM      2  C   UNL     1       2.039  -2.694  -5.499  0.00  0.00    +0.311 C 
ATOM      3  O   UNL     1       0.862  -2.952  -5.339  0.00  0.00    -0.252 OA
ATOM      4  N   UNL     1       2.705  -3.207  -6.553  0.00  0.00    -0.243 N 
ATOM      5  C   UNL     1       2.142  -4.030  -7.533  0.00  0.00    +0.042 A 
ATOM      6  C   UNL     1       0.828  -4.484  -7.659  0.00  0.00    +0.024 A 
ATOM      7  C   UNL     1       0.470  -5.293  -8.717  0.00  0.00    +0.002 A 
ATOM      8  C   UNL     1       1.410  -5.656  -9.664  0.00  0.00    +0.000 A 
ATOM      9  C   UNL     1       2.712  -5.207  -9.549  0.00  0.00    +0.005 A 
ATOM     10  C   UNL     1       3.075  -4.396  -8.490  0.00  0.00    -0.024 A 
ATOM     11  C   UNL     1       4.404  -3.773  -8.129  0.00  0.00    +0.069 C 
ATOM     12  C   UNL     1       4.126  -2.989  -6.836  0.00  0.00    +0.173 C 
ATOM     13  H   UNL     1       3.581  -1.592  -4.811  0.00  0.00    +0.156 HD
ENDROOT
BRANCH   1  17
ATOM     14  C   UNL     1       0.779  -0.719  -1.106  0.00  0.00    -0.042 A 
ATOM     15  C   UNL     1       0.042  -0.898  -2.262  0.00  0.00    +0.006 A 
ATOM     16  C   UNL     1       0.669  -1.282  -3.431  0.00  0.00    +0.023 A 
ATOM     17  C   UNL     1       2.041  -1.499  -3.442  0.00  0.00    +0.035 A 
ATOM     18  C   UNL     1       2.778  -1.324  -2.278  0.00  0.00    +0.023 A 
ATOM     19  C   UNL     1       2.145  -0.934  -1.114  0.00  0.00    +0.006 A 
BRANCH  14  21
ATOM     20  C   UNL     1       0.679   1.036   0.643  0.00  0.00    +0.015 C 
ATOM     21  C   UNL     1       0.092  -0.294   0.166  0.00  0.00    -0.013 C 
ATOM     22  C   UNL     1       0.305  -1.361   1.242  0.00  0.00    +0.015 C 
ATOM     23  C   UNL     1      -1.406  -0.125  -0.095  0.00  0.00    +0.015 C 
ENDBRANCH  14  21
ENDBRANCH   1  17
BRANCH  12  24
ATOM     24  C   UNL     1       4.399  -1.522  -7.045  0.00  0.00    +0.234 C 
ATOM     25  O   UNL     1       3.486  -0.766  -7.302  0.00  0.00    -0.274 OA
ATOM     26  N   UNL     1       5.657  -1.050  -6.947  0.00  0.00    -0.317 N 
ATOM     27  C   UNL     1       5.922   0.377  -7.150  0.00  0.00    +0.128 C 
ATOM     28  H   UNL     1       6.387  -1.654  -6.741  0.00  0.00    +0.148 HD
ENDBRANCH  12  24
TORSDOF 3
