REMARK  Name = ZINC11315919
REMARK  9 active torsions:
REMARK  status: ('A' for Active; 'I' for Inactive)
REMARK    1  A    between atoms: C_1  and  S_2
REMARK    2  A    between atoms: S_2  and  C_5
REMARK    3  A    between atoms: C_9  and  C_11
REMARK    4  A    between atoms: C_11  and  O_13
REMARK    5  A    between atoms: O_13  and  C_14
REMARK    6  A    between atoms: C_14  and  C_16
REMARK    7  A    between atoms: C_14  and  C_22
REMARK    8  A    between atoms: N_24  and  C_25
REMARK    9  A    between atoms: C_28  and  N_32
REMARK                            x       y       z     vdW  Elec       q    Type
REMARK                         _______ _______ _______ _____ _____    ______ ____
ROOT
ATOM      1  C   UNL     1      -1.314   2.114   0.015  0.00  0.00    +0.292 C 
ENDROOT
BRANCH   1   2
ATOM      2  C   UNL     1       0.002   1.380  -0.006  0.00  0.00    +0.002 A 
ATOM      3  C   UNL     1       1.188   2.089  -0.023  0.00  0.00    +0.008 A 
ATOM      4  C   UNL     1       2.395   1.415  -0.049  0.00  0.00    +0.000 A 
ATOM      5  C   UNL     1       2.415   0.033  -0.056  0.00  0.00    +0.000 A 
ATOM      6  C   UNL     1       1.229  -0.676  -0.039  0.00  0.00    +0.000 A 
ATOM      7  C   UNL     1       0.022  -0.002  -0.014  0.00  0.00    +0.008 A 
ENDBRANCH   1   2
BRANCH   1   8
ATOM      8  C   UNL     1      -1.710   2.475  -1.394  0.00  0.00    +0.263 C 
ATOM      9  O   UNL     1      -1.777   3.640  -1.726  0.00  0.00    -0.271 OA
ATOM     10  N   UNL     1      -1.991   1.503  -2.285  0.00  0.00    -0.281 N 
ATOM     11  H   UNL     1      -1.876   0.572  -2.039  0.00  0.00    +0.155 HD
BRANCH  10  12
ATOM     12  C   UNL     1      -2.450   1.838  -3.564  0.00  0.00    +0.052 A 
ATOM     13  C   UNL     1      -1.981   2.984  -4.194  0.00  0.00    +0.027 A 
ATOM     14  C   UNL     1      -2.435   3.312  -5.456  0.00  0.00    +0.034 A 
ATOM     15  C   UNL     1      -3.355   2.500  -6.094  0.00  0.00    +0.128 A 
ATOM     16  C   UNL     1      -3.824   1.358  -5.471  0.00  0.00    +0.054 A 
ATOM     17  C   UNL     1      -3.370   1.022  -4.210  0.00  0.00    +0.064 A 
ATOM     18 CL   UNL     1      -3.954  -0.416  -3.431  0.00  0.00    -0.082 Cl
BRANCH  15  19
ATOM     19  N   UNL     1      -3.840   2.855  -7.447  0.00  0.00    +0.056 N 
ATOM     20  O   UNL     1      -3.427   3.861  -7.997  0.00  0.00    -0.126 OA
ATOM     21  O   UNL     1      -4.650   2.142  -8.011  0.00  0.00    -0.126 OA
ENDBRANCH  15  19
ENDBRANCH  10  12
ENDBRANCH   1   8
BRANCH   1  22
ATOM     22  O   UNL     1      -1.180   3.325   0.805  0.00  0.00    -0.444 OA
BRANCH  22  23
ATOM     23  C   UNL     1      -1.447   3.228   2.122  0.00  0.00    +0.340 C 
ATOM     24  O   UNL     1      -1.782   2.162   2.597  0.00  0.00    -0.245 OA
BRANCH  23  29
ATOM     25  C   UNL     1      -1.500   5.439   5.156  0.00  0.00    +0.089 A 
ATOM     26  C   UNL     1      -1.117   6.653   4.612  0.00  0.00    +0.027 A 
ATOM     27  C   UNL     1      -0.842   6.755   3.260  0.00  0.00    +0.003 A 
ATOM     28  C   UNL     1      -0.947   5.647   2.445  0.00  0.00    +0.015 A 
ATOM     29  C   UNL     1      -1.332   4.419   2.988  0.00  0.00    +0.061 A 
ATOM     30  C   UNL     1      -1.613   4.324   4.353  0.00  0.00    +0.042 A 
BRANCH  25  32
ATOM     31  C   UNL     1      -3.622   5.677   7.021  0.00  0.00    +0.200 C 
ATOM     32  S   UNL     1      -1.849   5.320   6.879  0.00  0.00    -0.006 S 
ATOM     33  O   UNL     1      -1.596   3.961   7.207  0.00  0.00    -0.170 OA
ATOM     34  O   UNL     1      -1.091   6.363   7.476  0.00  0.00    -0.170 OA
ENDBRANCH  25  32
ENDBRANCH  23  29
ENDBRANCH  22  23
ENDBRANCH   1  22
TORSDOF 8
