REMARK  Name = ZINC20441932
REMARK  10 active torsions:
REMARK  status: ('A' for Active; 'I' for Inactive)
REMARK    1  A    between atoms: C_1  and  O_2
REMARK    2  A    between atoms: O_2  and  C_3
REMARK    3  A    between atoms: C_6  and  O_35
REMARK    4  A    between atoms: C_7  and  C_9
REMARK    5  A    between atoms: C_12  and  C_14
REMARK    6  A    between atoms: C_21  and  C_24
REMARK    7  A    between atoms: C_22  and  N_23
REMARK    8  A    between atoms: C_24  and  C_26
REMARK    9  A    between atoms: C_29  and  N_32
REMARK   10  A    between atoms: O_35  and  C_36
REMARK                            x       y       z     vdW  Elec       q    Type
REMARK                         _______ _______ _______ _____ _____    ______ ____
ROOT
ATOM      1  C   UNL     1      -3.499   3.725   7.399  0.00  0.00    +0.054 A 
ATOM      2  C   UNL     1      -4.098   4.145   8.682  0.00  0.00    +0.058 A 
ATOM      3  C   UNL     1      -3.770   3.837   9.993  0.00  0.00    +0.027 A 
ATOM      4  C   UNL     1      -4.518   4.391  11.033  0.00  0.00    +0.003 A 
ATOM      5  C   UNL     1      -5.569   5.243  10.720  0.00  0.00    +0.018 A 
ATOM      6  C   UNL     1      -5.855   5.525   9.403  0.00  0.00    +0.092 A 
ATOM      7  N   UNL     1      -5.129   4.986   8.400  0.00  0.00    -0.311 N 
ATOM      8  C   UNL     1      -5.254   5.142   7.017  0.00  0.00    +0.116 A 
ATOM      9  C   UNL     1      -4.294   4.401   6.361  0.00  0.00    +0.064 A 
ENDROOT
BRANCH   1  13
ATOM     10  C   UNL     1      -0.833   1.647   6.080  0.00  0.00    +0.082 A 
ATOM     11  C   UNL     1      -0.344   1.206   7.344  0.00  0.00    +0.075 A 
ATOM     12  S   UNL     1      -1.421   2.023   8.435  0.00  0.00    -0.075 S 
ATOM     13  C   UNL     1      -2.412   2.864   7.210  0.00  0.00    +0.113 A 
ATOM     14  N   UNL     1      -1.845   2.463   6.062  0.00  0.00    -0.239 NA
BRANCH  10  19
ATOM     15  C   UNL     1       0.677  -0.576   3.456  0.00  0.00    +0.121 A 
ATOM     16  C   UNL     1       0.982   0.348   2.460  0.00  0.00    +0.049 A 
ATOM     17  C   UNL     1       0.698   1.688   2.641  0.00  0.00    +0.050 A 
ATOM     18  C   UNL     1       0.106   2.122   3.817  0.00  0.00    +0.129 A 
ATOM     19  C   UNL     1      -0.204   1.195   4.826  0.00  0.00    +0.046 A 
ATOM     20  C   UNL     1       0.083  -0.160   4.632  0.00  0.00    +0.059 A 
BRANCH  15  22
ATOM     21  C   UNL     1       1.569  -2.254   2.027  0.00  0.00    +0.277 C 
ATOM     22  O   UNL     1       0.960  -1.892   3.268  0.00  0.00    -0.495 OA
ENDBRANCH  15  22
BRANCH  18  23
ATOM     23  O   UNL     1      -0.172   3.439   3.993  0.00  0.00    -0.494 OA
ATOM     24  C   UNL     1       0.172   4.323   2.924  0.00  0.00    +0.277 C 
ENDBRANCH  18  23
ENDBRANCH  10  19
ENDBRANCH   1  13
BRANCH   9  25
ATOM     25  N   UNL     1      -4.113   4.311   4.993  0.00  0.00    -0.356 N 
ATOM     26  H   UNL     1      -4.775   4.867   4.313  0.00  0.00    +0.142 HD
ATOM     27  H   UNL     1      -3.307   3.683   4.585  0.00  0.00    +0.142 HD
ENDBRANCH   9  25
BRANCH   8  28
ATOM     28  C   UNL     1      -6.262   5.972   6.358  0.00  0.00    +0.212 C 
ATOM     29  O   UNL     1      -5.996   7.118   6.044  0.00  0.00    -0.285 OA
BRANCH  28  30
ATOM     30  C   UNL     1      -7.604   5.421   6.074  0.00  0.00    +0.024 A 
ATOM     31  C   UNL     1      -7.877   4.074   6.326  0.00  0.00    +0.014 A 
ATOM     32  C   UNL     1      -9.132   3.567   6.063  0.00  0.00    +0.033 A 
ATOM     33  C   UNL     1     -10.117   4.387   5.540  0.00  0.00    +0.126 A 
ATOM     34  C   UNL     1      -9.852   5.721   5.283  0.00  0.00    +0.033 A 
ATOM     35  C   UNL     1      -8.603   6.242   5.547  0.00  0.00    +0.014 A 
BRANCH  33  36
ATOM     36  N   UNL     1     -11.460   3.834   5.255  0.00  0.00    +0.056 N 
ATOM     37  O   UNL     1     -12.400   4.612   4.757  0.00  0.00    -0.126 OA
ATOM     38  O   UNL     1     -11.716   2.566   5.498  0.00  0.00    -0.126 OA
ENDBRANCH  33  36
ENDBRANCH  28  30
ENDBRANCH   8  28
TORSDOF 8
