REMARK  Name = ZINC39948254
REMARK  8 active torsions:
REMARK  status: ('A' for Active; 'I' for Inactive)
REMARK    1  A    between atoms: C_1  and  C_2
REMARK    2  A    between atoms: C_5  and  C_8
REMARK    3  A    between atoms: C_9  and  C_27
REMARK    4  A    between atoms: C_12  and  S_14
REMARK    5  A    between atoms: S_14  and  C_15
REMARK    6  A    between atoms: C_15  and  C_16
REMARK    7  A    between atoms: C_16  and  C_18
REMARK    8  A    between atoms: C_30  and  C_33
REMARK                            x       y       z     vdW  Elec       q    Type
REMARK                         _______ _______ _______ _____ _____    ______ ____
ROOT
ATOM      1  C   UNL     1      -0.168  -4.294   0.195  0.00  0.00    +0.102 A 
ATOM      2  C   UNL     1       0.846  -4.970   0.902  0.00  0.00    +0.119 A 
ATOM      3  N   UNL     1       1.050  -6.260   0.659  0.00  0.00    -0.145 NA
ATOM      4  N   UNL     1       0.331  -6.882  -0.209  0.00  0.00    -0.122 NA
ATOM      5  C   UNL     1      -0.630  -6.265  -0.887  0.00  0.00    +0.210 A 
ATOM      6  N   UNL     1      -0.890  -4.979  -0.690  0.00  0.00    -0.218 NA
ENDROOT
BRANCH   1  11
ATOM      7  C   UNL     1      -1.180   1.297   1.124  0.00  0.00    +0.044 C 
ATOM      8  C   UNL     1      -0.916  -0.167   0.881  0.00  0.00    -0.050 A 
ATOM      9  C   UNL     1      -0.728  -1.020   1.953  0.00  0.00    +0.004 A 
ATOM     10  C   UNL     1      -0.485  -2.361   1.736  0.00  0.00    +0.010 A 
ATOM     11  C   UNL     1      -0.429  -2.855   0.434  0.00  0.00    +0.003 A 
ATOM     12  C   UNL     1      -0.619  -1.990  -0.643  0.00  0.00    +0.010 A 
ATOM     13  C   UNL     1      -0.867  -0.652  -0.414  0.00  0.00    +0.004 A 
ENDBRANCH   1  11
BRANCH   2  14
ATOM     14  C   UNL     1       1.673  -4.252   1.901  0.00  0.00    +0.004 A 
ATOM     15  C   UNL     1       2.186  -2.989   1.608  0.00  0.00    +0.010 A 
ATOM     16  C   UNL     1       2.955  -2.326   2.542  0.00  0.00    +0.004 A 
ATOM     17  C   UNL     1       3.217  -2.911   3.768  0.00  0.00    -0.050 A 
ATOM     18  C   UNL     1       2.711  -4.164   4.064  0.00  0.00    +0.004 A 
ATOM     19  C   UNL     1       1.936  -4.835   3.140  0.00  0.00    +0.010 A 
ATOM     20  C   UNL     1       4.058  -2.182   4.783  0.00  0.00    +0.044 C 
ENDBRANCH   2  14
BRANCH   5  21
ATOM     21  S   UNL     1      -1.579  -7.171  -2.063  0.00  0.00    -0.076 S 
BRANCH  21  22
ATOM     22  C   UNL     1      -0.888  -8.847  -1.987  0.00  0.00    +0.156 C 
BRANCH  22  23
ATOM     23  C   UNL     1      -1.621  -9.736  -2.958  0.00  0.00    +0.172 C 
ATOM     24  O   UNL     1      -2.522  -9.284  -3.636  0.00  0.00    -0.291 OA
BRANCH  23  25
ATOM     25  C   UNL     1      -1.261 -11.095  -3.080  0.00  0.00    +0.024 C 
ATOM     26  C   UNL     1      -1.824 -12.038  -3.921  0.00  0.00    +0.006 A 
ATOM     27  C   UNL     1      -2.870 -11.976  -4.872  0.00  0.00    +0.010 A 
ATOM     28  C   UNL     1      -3.222 -13.079  -5.570  0.00  0.00    +0.001 A 
ATOM     29  C   UNL     1      -2.584 -14.318  -5.394  0.00  0.00    +0.002 A 
ATOM     30  C   UNL     1      -1.575 -14.483  -4.512  0.00  0.00    +0.026 A 
ATOM     31  C   UNL     1      -1.129 -13.331  -3.711  0.00  0.00    +0.043 A 
ATOM     32  N   UNL     1      -0.200 -13.209  -2.806  0.00  0.00    -0.380 N 
ATOM     33  C   UNL     1      -0.173 -11.825  -2.323  0.00  0.00    +0.152 C 
ATOM     34  H   UNL     1       0.385 -13.921  -2.502  0.00  0.00    +0.160 HD
ENDBRANCH  23  25
ENDBRANCH  22  23
ENDBRANCH  21  22
ENDBRANCH   5  21
TORSDOF 6
