REMARK  Name = ZINC36306868
REMARK  17 active torsions:
REMARK  status: ('A' for Active; 'I' for Inactive)
REMARK    1  A    between atoms: C_1  and  C_2
REMARK    2  A    between atoms: C_2  and  C_3
REMARK    3  A    between atoms: C_2  and  C_4
REMARK    4  A    between atoms: C_4  and  O_5
REMARK    5  A    between atoms: O_5  and  C_6
REMARK    6  A    between atoms: C_6  and  C_7
REMARK    7  A    between atoms: C_7  and  C_9
REMARK    8  A    between atoms: C_7  and  O_36
REMARK    9  A    between atoms: C_9  and  N_10
REMARK   10  A    between atoms: N_10  and  C_11
REMARK   11  A    between atoms: N_10  and  C_32
REMARK   12  A    between atoms: C_11  and  C_12
REMARK   13  A    between atoms: C_13  and  C_26
REMARK   14  A    between atoms: N_15  and  C_25
REMARK   15  A    between atoms: C_16  and  O_17
REMARK   16  A    between atoms: O_17  and  C_18
REMARK   17  A    between atoms: C_32  and  C_33
REMARK                            x       y       z     vdW  Elec       q    Type
REMARK                         _______ _______ _______ _____ _____    ______ ____
ROOT
ATOM      1  C   UNL     1      -5.940  -5.758  -1.587  0.00  0.00    +0.025 A 
ATOM      2  C   UNL     1      -5.812  -6.425  -2.820  0.00  0.00    +0.098 A 
ATOM      3  N   UNL     1      -6.511  -5.763  -3.717  0.00  0.00    -0.168 NA
ATOM      4  N   UNL     1      -7.103  -4.661  -3.088  0.00  0.00    -0.235 N 
ATOM      5  C   UNL     1      -6.744  -4.681  -1.778  0.00  0.00    +0.221 A 
ATOM      6  C   UNL     1      -7.965  -3.664  -3.728  0.00  0.00    +0.176 C 
ENDROOT
BRANCH   2   7
ATOM      7  C   UNL     1      -5.024  -7.658  -3.066  0.00  0.00    +0.002 A 
ATOM      8  C   UNL     1      -3.753  -7.798  -2.513  0.00  0.00    +0.010 A 
ATOM      9  C   UNL     1      -3.026  -8.948  -2.745  0.00  0.00    +0.001 A 
ATOM     10  C   UNL     1      -3.556  -9.960  -3.524  0.00  0.00    +0.000 A 
ATOM     11  C   UNL     1      -4.818  -9.826  -4.076  0.00  0.00    +0.001 A 
ATOM     12  C   UNL     1      -5.556  -8.683  -3.846  0.00  0.00    +0.010 A 
ENDBRANCH   2   7
BRANCH   1  13
ATOM     13  C   UNL     1      -5.304  -6.171  -0.284  0.00  0.00    -0.035 C 
BRANCH  13  14
ATOM     14  N   UNL     1      -4.037  -5.449  -0.108  0.00  0.00    +0.384 N 
ATOM     15  H   UNL     1      -3.448  -5.600  -0.914  0.00  0.00    -0.081 HD
BRANCH  14  16
ATOM     16  C   UNL     1      -4.307  -4.013   0.038  0.00  0.00    -0.044 C 
BRANCH  16  17
ATOM     17  C   UNL     1      -2.984  -3.247   0.096  0.00  0.00    +0.124 C 
BRANCH  17  18
ATOM     18  O   UNL     1      -2.302  -3.378  -1.153  0.00  0.00    -0.391 OA
ATOM     19  H   UNL     1      -2.797  -3.035  -1.909  0.00  0.00    +0.210 HD
ENDBRANCH  17  18
BRANCH  17  20
ATOM     20  C   UNL     1      -3.262  -1.768   0.372  0.00  0.00    +0.189 C 
BRANCH  20  21
ATOM     21  O   UNL     1      -2.024  -1.075   0.543  0.00  0.00    -0.377 OA
BRANCH  21  22
ATOM     22  C   UNL     1      -2.171   0.322   0.807  0.00  0.00    +0.163 C 
BRANCH  22  24
ATOM     23  C   UNL     1      -0.942   2.473   1.130  0.00  0.00    +0.009 C 
ATOM     24  C   UNL     1      -0.790   0.959   0.971  0.00  0.00    +0.009 C 
ATOM     25  C   UNL     1      -0.106   0.382   2.212  0.00  0.00    +0.009 C 
ENDBRANCH  22  24
ENDBRANCH  21  22
ENDBRANCH  20  21
ENDBRANCH  17  20
ENDBRANCH  16  17
ENDBRANCH  14  16
BRANCH  14  26
ATOM     26  C   UNL     1      -3.354  -5.943   1.095  0.00  0.00    -0.075 C 
BRANCH  26  27
ATOM     27  C   UNL     1      -2.972  -7.412   0.898  0.00  0.00    -0.028 C 
ATOM     28  C   UNL     1      -3.640  -8.444   1.808  0.00  0.00    +0.002 C 
ATOM     29  C   UNL     1      -2.166  -8.087   2.009  0.00  0.00    +0.002 C 
ENDBRANCH  26  27
ENDBRANCH  14  26
ENDBRANCH  13  14
ENDBRANCH   1  13
BRANCH   5  30
ATOM     30  O   UNL     1      -7.118  -3.784  -0.832  0.00  0.00    -0.435 OA
BRANCH  30  31
ATOM     31  C   UNL     1      -8.255  -4.034  -0.129  0.00  0.00    +0.165 A 
ATOM     32  C   UNL     1      -8.938  -5.227  -0.315  0.00  0.00    +0.049 A 
ATOM     33  C   UNL     1     -10.093  -5.480   0.401  0.00  0.00    +0.004 A 
ATOM     34  C   UNL     1     -10.568  -4.545   1.302  0.00  0.00    +0.003 A 
ATOM     35  C   UNL     1      -9.891  -3.355   1.490  0.00  0.00    +0.042 A 
ATOM     36  C   UNL     1      -8.731  -3.099   0.781  0.00  0.00    +0.165 A 
ATOM     37  F   UNL     1      -8.066  -1.938   0.969  0.00  0.00    -0.202 F 
ENDBRANCH  30  31
ENDBRANCH   5  30
TORSDOF 14
