REMARK  Name = ZINC63506212
REMARK  6 active torsions:
REMARK  status: ('A' for Active; 'I' for Inactive)
REMARK    1  A    between atoms: N_7  and  C_17
REMARK    2  A    between atoms: C_17  and  C_18
REMARK    3  A    between atoms: C_18  and  C_19
REMARK    4  A    between atoms: N_21  and  C_22
REMARK    5  A    between atoms: C_22  and  C_23
REMARK    6  A    between atoms: C_23  and  C_24
REMARK                            x       y       z     vdW  Elec       q    Type
REMARK                         _______ _______ _______ _____ _____    ______ ____
ROOT
ATOM      1  C   UNL     1       0.898  -2.882  -2.320  0.00  0.00    +0.115 C 
ENDROOT
BRANCH   1   2
ATOM      2  C   UNL     1      -0.091  -3.485  -3.285  0.00  0.00    +0.215 C 
ATOM      3  O   UNL     1      -1.224  -3.719  -2.923  0.00  0.00    -0.276 OA
ATOM      4  N   UNL     1       0.284  -3.763  -4.549  0.00  0.00    -0.315 N 
ATOM      5  H   UNL     1       1.191  -3.575  -4.838  0.00  0.00    +0.149 HD
BRANCH   4   6
ATOM      6  C   UNL     1      -0.677  -4.349  -5.486  0.00  0.00    +0.106 C 
BRANCH   6   7
ATOM      7  C   UNL     1      -0.002  -4.564  -6.842  0.00  0.00    +0.047 C 
BRANCH   7   8
ATOM      8  C   UNL     1      -1.006  -5.175  -7.821  0.00  0.00    +0.104 C 
ATOM      9  C   UNL     1      -0.373  -5.336  -9.185  0.00  0.00    +0.007 C 
ATOM     10  C   UNL     1      -0.401  -6.660  -9.458  0.00  0.00    -0.003 A 
ATOM     11  C   UNL     1       0.055  -7.448 -10.609  0.00  0.00    +0.029 A 
ATOM     12  C   UNL     1      -0.113  -8.790 -10.594  0.00  0.00    +0.042 A 
ATOM     13  C   UNL     1      -0.711  -9.446  -9.508  0.00  0.00    +0.022 A 
ATOM     14  C   UNL     1      -1.155  -8.790  -8.415  0.00  0.00    +0.027 A 
ATOM     15  C   UNL     1      -1.029  -7.376  -8.324  0.00  0.00    +0.043 A 
ATOM     16  N   UNL     1      -1.377  -6.527  -7.386  0.00  0.00    -0.378 N 
ATOM     17 CL   UNL     1       0.425  -9.726 -11.954  0.00  0.00    -0.084 Cl
ATOM     18  H   UNL     1      -1.806  -6.753  -6.547  0.00  0.00    +0.160 HD
ENDBRANCH   7   8
ENDBRANCH   6   7
ENDBRANCH   4   6
ENDBRANCH   1   2
BRANCH   1  19
ATOM     19  C   UNL     1       0.223  -2.667  -0.965  0.00  0.00    +0.123 C 
BRANCH  19  26
ATOM     20  C   UNL     1      -0.017   1.376   0.010  0.00  0.00    +0.002 A 
ATOM     21  C   UNL     1       1.168   2.089   0.002  0.00  0.00    +0.001 A 
ATOM     22  C   UNL     1       2.375   1.416  -0.012  0.00  0.00    +0.017 A 
ATOM     23  C   UNL     1       2.400   0.029  -0.020  0.00  0.00    +0.036 A 
ATOM     24  C   UNL     1       1.212  -0.694  -0.014  0.00  0.00    +0.050 A 
ATOM     25  C   UNL     1       0.002  -0.004   0.002  0.00  0.00    +0.024 A 
ATOM     26  N   UNL     1       1.184  -2.082  -0.027  0.00  0.00    -0.266 N 
ATOM     27  C   UNL     1       1.877  -2.950   0.662  0.00  0.00    +0.253 C 
ATOM     28  O   UNL     1       1.612  -4.118   0.450  0.00  0.00    -0.270 OA
ATOM     29  C   UNL     1       2.924  -2.710   1.651  0.00  0.00    +0.069 A 
ATOM     30  C   UNL     1       2.935  -3.452   2.841  0.00  0.00    +0.017 A 
ATOM     31  C   UNL     1       3.936  -3.207   3.764  0.00  0.00    +0.020 A 
ATOM     32  C   UNL     1       4.892  -2.245   3.493  0.00  0.00    +0.112 A 
ATOM     33  N   UNL     1       4.866  -1.558   2.368  0.00  0.00    -0.248 NA
ATOM     34  C   UNL     1       3.930  -1.754   1.450  0.00  0.00    +0.114 A 
ATOM     35  S   UNL     1       3.951  -0.807  -0.037  0.00  0.00    -0.067 S 
ENDBRANCH  19  26
ENDBRANCH   1  19
TORSDOF 6
