REMARK  Name = ZINC16246313
REMARK  8 active torsions:
REMARK  status: ('A' for Active; 'I' for Inactive)
REMARK    1  A    between atoms: C_1  and  C_2
REMARK    2  A    between atoms: C_2  and  C_3
REMARK    3  A    between atoms: C_3  and  C_5
REMARK    4  A    between atoms: C_3  and  C_6
REMARK    5  A    between atoms: C_9  and  N_12
REMARK    6  A    between atoms: C_22  and  S_23
REMARK    7  A    between atoms: S_23  and  C_24
REMARK    8  A    between atoms: C_24  and  C_25
REMARK                            x       y       z     vdW  Elec       q    Type
REMARK                         _______ _______ _______ _____ _____    ______ ____
ROOT
ATOM      1  N   UNL     1       2.357   3.889   0.000  0.00  0.00    -0.255 N 
ATOM      2  C   UNL     1       3.535   3.229   0.087  0.00  0.00    +0.267 A 
ATOM      3  O   UNL     1       3.573   2.015   0.173  0.00  0.00    -0.267 OA
ATOM      4  C   UNL     1       4.766   4.030   0.074  0.00  0.00    +0.065 A 
ATOM      5  C   UNL     1       6.028   3.443   0.159  0.00  0.00    +0.015 A 
ATOM      6  C   UNL     1       7.142   4.236   0.142  0.00  0.00    +0.001 A 
ATOM      7  C   UNL     1       7.029   5.617   0.042  0.00  0.00    +0.002 A 
ATOM      8  C   UNL     1       5.806   6.218  -0.042  0.00  0.00    +0.028 A 
ATOM      9  C   UNL     1       4.647   5.435  -0.028  0.00  0.00    +0.079 A 
ATOM     10  N   UNL     1       3.415   5.989  -0.109  0.00  0.00    -0.223 NA
ATOM     11  C   UNL     1       2.331   5.253  -0.102  0.00  0.00    +0.177 A 
ENDROOT
BRANCH   1  15
ATOM     12  C   UNL     1      -1.216   1.744   0.025  0.00  0.00    -0.044 A 
ATOM     13  C   UNL     1      -0.671   2.190   1.215  0.00  0.00    +0.006 A 
ATOM     14  C   UNL     1       0.514   2.900   1.210  0.00  0.00    +0.026 A 
ATOM     15  C   UNL     1       1.155   3.170   0.008  0.00  0.00    +0.052 A 
ATOM     16  C   UNL     1       0.602   2.726  -1.186  0.00  0.00    +0.026 A 
ATOM     17  C   UNL     1      -0.584   2.017  -1.174  0.00  0.00    +0.006 A 
BRANCH  12  18
ATOM     18  C   UNL     1      -2.506   0.965   0.034  0.00  0.00    +0.016 C 
ATOM     19  C   UNL     1      -3.560   1.713  -0.785  0.00  0.00    +0.012 C 
BRANCH  18  21
ATOM     20  C   UNL     1      -3.547  -1.253  -0.456  0.00  0.00    +0.004 C 
ATOM     21  C   UNL     1      -2.271  -0.417  -0.578  0.00  0.00    +0.004 C 
ENDBRANCH  18  21
ENDBRANCH  12  18
ENDBRANCH   1  15
BRANCH  11  22
ATOM     22  S   UNL     1       0.768   6.058  -0.219  0.00  0.00    -0.079 S 
BRANCH  22  23
ATOM     23  C   UNL     1       1.310   7.782  -0.326  0.00  0.00    +0.151 C 
BRANCH  23  24
ATOM     24  C   UNL     1       0.105   8.680  -0.438  0.00  0.00    +0.121 A 
ATOM     25  N   UNL     1       0.307  10.021  -0.523  0.00  0.00    -0.310 N 
ATOM     26  H   UNL     1       1.211  10.372  -0.512  0.00  0.00    +0.170 HD
ATOM     27  C   UNL     1      -0.742  10.870  -0.630  0.00  0.00    +0.259 A 
ATOM     28  O   UNL     1      -0.575  12.073  -0.712  0.00  0.00    -0.267 OA
ATOM     29  C   UNL     1      -2.090  10.284  -0.637  0.00  0.00    +0.065 A 
ATOM     30  C   UNL     1      -3.236  11.070  -0.738  0.00  0.00    +0.015 A 
ATOM     31  C   UNL     1      -4.474  10.468  -0.739  0.00  0.00    +0.001 A 
ATOM     32  C   UNL     1      -4.589   9.087  -0.641  0.00  0.00    +0.002 A 
ATOM     33  C   UNL     1      -3.469   8.292  -0.542  0.00  0.00    +0.028 A 
ATOM     34  C   UNL     1      -2.202   8.879  -0.538  0.00  0.00    +0.078 A 
ATOM     35  N   UNL     1      -1.073   8.134  -0.441  0.00  0.00    -0.233 NA
ENDBRANCH  23  24
ENDBRANCH  22  23
ENDBRANCH  11  22
TORSDOF 6
