REMARK  Name = ZINC12135535
REMARK  9 active torsions:
REMARK  status: ('A' for Active; 'I' for Inactive)
REMARK    1  A    between atoms: C_1  and  C_2
REMARK    2  A    between atoms: C_5  and  C_7
REMARK    3  A    between atoms: N_9  and  C_10
REMARK    4  A    between atoms: N_9  and  C_27
REMARK    5  A    between atoms: C_10  and  C_11
REMARK    6  A    between atoms: C_16  and  S_25
REMARK    7  A    between atoms: C_19  and  N_20
REMARK    8  A    between atoms: S_25  and  C_26
REMARK    9  A    between atoms: C_27  and  C_28
REMARK                            x       y       z     vdW  Elec       q    Type
REMARK                         _______ _______ _______ _____ _____    ______ ____
ROOT
ATOM      1  C   UNL     1      -2.882   5.736   3.884  0.00  0.00    +0.008 A 
ATOM      2  C   UNL     1      -3.697   6.511   3.113  0.00  0.00    +0.018 A 
ATOM      3  C   UNL     1      -4.773   7.174   3.736  0.00  0.00    -0.001 A 
ATOM      4  C   UNL     1      -5.649   7.987   2.997  0.00  0.00    +0.011 A 
ATOM      5  C   UNL     1      -6.679   8.616   3.623  0.00  0.00    +0.015 A 
ATOM      6  C   UNL     1      -6.881   8.464   5.001  0.00  0.00    +0.010 A 
ATOM      7  C   UNL     1      -6.038   7.673   5.753  0.00  0.00    +0.041 A 
ATOM      8  C   UNL     1      -4.967   7.014   5.130  0.00  0.00    +0.049 A 
ATOM      9  C   UNL     1      -3.129   5.613   5.258  0.00  0.00    +0.104 A 
ATOM     10  N   UNL     1      -4.144   6.232   5.912  0.00  0.00    -0.343 N 
ATOM     11  H   UNL     1      -4.289   6.125   6.922  0.00  0.00    +0.167 HD
ENDROOT
BRANCH   9  12
ATOM     12  N   UNL     1      -2.294   4.817   6.027  0.00  0.00    -0.316 N 
ATOM     13  C   UNL     1      -1.137   5.596   6.537  0.00  0.00    +0.106 C 
ATOM     14  C   UNL     1      -0.644   4.754   7.741  0.00  0.00    +0.020 C 
ATOM     15  C   UNL     1      -1.962   4.235   8.361  0.00  0.00    +0.020 C 
ATOM     16  C   UNL     1      -2.999   4.312   7.226  0.00  0.00    +0.106 C 
ENDBRANCH   9  12
BRANCH   6  17
ATOM     17  S   UNL     1      -8.226   9.293   5.781  0.00  0.00    -0.129 S 
ATOM     18  C   UNL     1      -9.034  10.190   4.427  0.00  0.00    +0.090 C 
ENDBRANCH   6  17
BRANCH   1  19
ATOM     19  C   UNL     1      -1.720   5.008   3.258  0.00  0.00    +0.146 C 
BRANCH  19  22
ATOM     20  C   UNL     1      -1.971   2.650   3.817  0.00  0.00    +0.254 C 
ATOM     21  O   UNL     1      -1.576   2.902   4.940  0.00  0.00    -0.269 OA
ATOM     22  N   UNL     1      -2.126   3.642   2.918  0.00  0.00    -0.290 N 
BRANCH  20  27
ATOM     23  C   UNL     1      -3.284  -2.226   1.420  0.00  0.00    +0.051 C 
ATOM     24  C   UNL     1      -2.907  -1.058   2.293  0.00  0.00    -0.013 A 
ATOM     25  C   UNL     1      -2.626  -1.054   3.623  0.00  0.00    +0.011 A 
ATOM     26  C   UNL     1      -2.300   0.130   4.235  0.00  0.00    +0.021 A 
ATOM     27  C   UNL     1      -2.279   1.267   3.442  0.00  0.00    +0.074 A 
ATOM     28  S   UNL     1      -2.733   0.608   1.847  0.00  0.00    -0.089 S 
ENDBRANCH  20  27
BRANCH  22  29
ATOM     29  C   UNL     1      -2.699   3.355   1.601  0.00  0.00    +0.140 C 
BRANCH  29  30
ATOM     30  C   UNL     1      -1.571   3.160   0.585  0.00  0.00    +0.136 C 
ATOM     31  C   UNL     1      -2.147   2.978  -0.842  0.00  0.00    +0.035 C 
ATOM     32  C   UNL     1      -1.016   2.194  -1.551  0.00  0.00    +0.031 C 
ATOM     33  C   UNL     1      -0.216   1.559  -0.397  0.00  0.00    +0.160 C 
ATOM     34  O   UNL     1      -0.873   1.918   0.830  0.00  0.00    -0.375 OA
ENDBRANCH  29  30
ENDBRANCH  22  29
ENDBRANCH  19  22
ENDBRANCH   1  19
TORSDOF 7
