REMARK  Name = ZINC08779224
REMARK  15 active torsions:
REMARK  status: ('A' for Active; 'I' for Inactive)
REMARK    1  A    between atoms: C_1  and  C_2
REMARK    2  A    between atoms: C_2  and  C_3
REMARK    3  A    between atoms: C_2  and  O_4
REMARK    4  A    between atoms: O_4  and  C_5
REMARK    5  A    between atoms: C_8  and  C_11
REMARK    6  A    between atoms: C_11  and  C_13
REMARK    7  A    between atoms: C_14  and  O_34
REMARK    8  A    between atoms: N_17  and  C_29
REMARK    9  A    between atoms: C_18  and  C_20
REMARK   10  A    between atoms: C_23  and  N_26
REMARK   11  A    between atoms: C_29  and  C_30
REMARK   12  A    between atoms: C_30  and  C_31
REMARK   13  A    between atoms: C_31  and  N_63
REMARK   14  A    between atoms: C_32  and  N_63
REMARK   15  A    between atoms: C_33  and  N_63
REMARK                            x       y       z     vdW  Elec       q    Type
REMARK                         _______ _______ _______ _____ _____    ______ ____
ROOT
ATOM      1  C   UNL     1       1.035  -1.562  -1.054  0.00  0.00    +0.071 C 
ATOM      2  C   UNL     1       2.190  -2.205  -0.763  0.00  0.00    +0.188 C 
ATOM      3  C   UNL     1       2.645  -1.801   0.584  0.00  0.00    +0.282 C 
ATOM      4  O   UNL     1       3.652  -2.206   1.130  0.00  0.00    -0.267 OA
ATOM      5  N   UNL     1       1.778  -0.918   1.117  0.00  0.00    -0.284 N 
ATOM      6  C   UNL     1       0.706  -0.697   0.140  0.00  0.00    +0.144 C 
ENDROOT
BRANCH   6   7
ATOM      7  C   UNL     1       0.667   0.754  -0.266  0.00  0.00    -0.022 A 
ATOM      8  C   UNL     1      -0.546   1.407  -0.382  0.00  0.00    +0.008 A 
ATOM      9  C   UNL     1      -0.582   2.738  -0.754  0.00  0.00    +0.033 A 
ATOM     10  C   UNL     1       0.595   3.416  -1.010  0.00  0.00    +0.126 A 
ATOM     11  C   UNL     1       1.808   2.762  -0.897  0.00  0.00    +0.033 A 
ATOM     12  C   UNL     1       1.844   1.431  -0.524  0.00  0.00    +0.008 A 
BRANCH  10  13
ATOM     13  N   UNL     1       0.557   4.840  -1.409  0.00  0.00    +0.056 N 
ATOM     14  O   UNL     1      -0.511   5.416  -1.511  0.00  0.00    -0.126 OA
ATOM     15  O   UNL     1       1.594   5.438  -1.636  0.00  0.00    -0.126 OA
ENDBRANCH  10  13
ENDBRANCH   6   7
BRANCH   1  16
ATOM     16  C   UNL     1       0.255  -1.681  -2.289  0.00  0.00    +0.195 C 
ATOM     17  O   UNL     1       0.732  -1.317  -3.348  0.00  0.00    -0.287 OA
BRANCH  16  21
ATOM     18  C   UNL     1      -3.670  -3.299  -2.175  0.00  0.00    +0.121 A 
ATOM     19  C   UNL     1      -3.161  -2.799  -3.368  0.00  0.00    +0.046 A 
ATOM     20  C   UNL     1      -1.889  -2.273  -3.410  0.00  0.00    +0.015 A 
ATOM     21  C   UNL     1      -1.109  -2.244  -2.250  0.00  0.00    +0.022 A 
ATOM     22  C   UNL     1      -1.623  -2.753  -1.053  0.00  0.00    +0.015 A 
ATOM     23  C   UNL     1      -2.898  -3.272  -1.019  0.00  0.00    +0.046 A 
BRANCH  18  24
ATOM     24  O   UNL     1      -4.924  -3.817  -2.139  0.00  0.00    -0.489 OA
BRANCH  24  26
ATOM     25  C   UNL     1      -5.917  -3.279  -0.002  0.00  0.00    +0.051 C 
ATOM     26  C   UNL     1      -5.356  -4.384  -0.900  0.00  0.00    +0.167 C 
ATOM     27  C   UNL     1      -6.444  -5.425  -1.168  0.00  0.00    +0.051 C 
ENDBRANCH  24  26
ENDBRANCH  18  24
ENDBRANCH  16  21
ENDBRANCH   1  16
BRANCH   2  28
ATOM     28  O   UNL     1       2.826  -3.080  -1.576  0.00  0.00    -0.502 OA
ATOM     29  H   UNL     1       3.655  -3.412  -1.125  0.00  0.00    +0.292 HD
ENDBRANCH   2  28
BRANCH   5  30
ATOM     30  C   UNL     1       1.887  -0.290   2.436  0.00  0.00    +0.107 C 
BRANCH  30  31
ATOM     31  C   UNL     1       1.173  -1.157   3.474  0.00  0.00    +0.000 C 
BRANCH  31  32
ATOM     32  C   UNL     1       1.287  -0.501   4.852  0.00  0.00    -0.078 C 
BRANCH  32  35
ATOM     33  C   UNL     1       1.285  -2.622   6.019  0.00  0.00    -0.097 C 
ATOM     34  C   UNL     1       0.483  -0.627   7.132  0.00  0.00    -0.097 C 
ATOM     35  N   UNL     1       0.575  -1.338   5.839  0.00  0.00    +0.376 N 
ATOM     36  H   UNL     1      -0.373  -1.527   5.494  0.00  0.00    -0.083 HD
ENDBRANCH  32  35
ENDBRANCH  31  32
ENDBRANCH  30  31
ENDBRANCH   5  30
TORSDOF 11
