REMARK  Name = ZINC18998009
REMARK  7 active torsions:
REMARK  status: ('A' for Active; 'I' for Inactive)
REMARK    1  A    between atoms: C_15  and  C_17
REMARK    2  A    between atoms: C_17  and  O_18
REMARK    3  A    between atoms: O_18  and  C_19
REMARK    4  A    between atoms: C_19  and  C_21
REMARK    5  A    between atoms: C_25  and  S_27
REMARK    6  A    between atoms: S_27  and  N_30
REMARK    7  A    between atoms: N_30  and  C_31
REMARK                            x       y       z     vdW  Elec       q    Type
REMARK                         _______ _______ _______ _____ _____    ______ ____
ROOT
ATOM      1  C   UNL     1       4.752   4.108   0.614  0.00  0.00    +0.328 C 
ENDROOT
BRANCH   1  16
ATOM      2  C   UNL     1       3.386   7.231  -1.071  0.00  0.00    +0.002 A 
ATOM      3  C   UNL     1       2.820   7.317  -2.330  0.00  0.00    +0.001 A 
ATOM      4  C   UNL     1       2.115   6.244  -2.848  0.00  0.00    +0.017 A 
ATOM      5  C   UNL     1       1.972   5.091  -2.097  0.00  0.00    +0.035 A 
ATOM      6  C   UNL     1       2.537   5.002  -0.823  0.00  0.00    +0.055 A 
ATOM      7  C   UNL     1       3.246   6.081  -0.316  0.00  0.00    +0.025 A 
ATOM      8  N   UNL     1       2.388   3.835  -0.062  0.00  0.00    -0.235 N 
ATOM      9  C   UNL     1       1.200   3.094  -0.072  0.00  0.00    +0.055 A 
ATOM     10  C   UNL     1       0.736   2.501   1.092  0.00  0.00    +0.025 A 
ATOM     11  C   UNL     1      -0.439   1.771   1.075  0.00  0.00    +0.002 A 
ATOM     12  C   UNL     1      -1.158   1.628  -0.097  0.00  0.00    +0.001 A 
ATOM     13  C   UNL     1      -0.704   2.216  -1.266  0.00  0.00    +0.017 A 
ATOM     14  C   UNL     1       0.470   2.946  -1.254  0.00  0.00    +0.035 A 
ATOM     15  S   UNL     1       1.074   3.708  -2.728  0.00  0.00    -0.086 S 
ATOM     16  C   UNL     1       3.417   3.414   0.700  0.00  0.00    +0.262 C 
ATOM     17  O   UNL     1       3.268   2.477   1.455  0.00  0.00    -0.271 OA
ENDBRANCH   1  16
BRANCH   1  18
ATOM     18  O   UNL     1       5.740   3.350   1.360  0.00  0.00    -0.452 OA
BRANCH  18  19
ATOM     19  C   UNL     1       6.996   3.838   1.383  0.00  0.00    +0.340 C 
ATOM     20  O   UNL     1       7.257   4.869   0.797  0.00  0.00    -0.245 OA
BRANCH  19  21
ATOM     21  C   UNL     1       8.054   3.120   2.123  0.00  0.00    +0.061 A 
ATOM     22  C   UNL     1       7.755   1.938   2.803  0.00  0.00    +0.015 A 
ATOM     23  C   UNL     1       8.749   1.269   3.487  0.00  0.00    +0.003 A 
ATOM     24  C   UNL     1      10.038   1.774   3.509  0.00  0.00    +0.028 A 
ATOM     25  C   UNL     1      10.339   2.948   2.842  0.00  0.00    +0.106 A 
ATOM     26  C   UNL     1       9.356   3.623   2.149  0.00  0.00    +0.043 A 
BRANCH  25  27
ATOM     27  S   UNL     1      11.983   3.581   2.877  0.00  0.00    +0.059 S 
ATOM     28  O   UNL     1      12.838   2.477   3.138  0.00  0.00    -0.153 OA
ATOM     29  O   UNL     1      12.127   4.400   1.724  0.00  0.00    -0.153 OA
BRANCH  27  30
ATOM     30  N   UNL     1      12.093   4.586   4.188  0.00  0.00    -0.187 NA
ATOM     31  H   UNL     1      12.247   5.535   4.060  0.00  0.00    +0.148 HD
BRANCH  30  32
ATOM     32  C   UNL     1      11.957   4.042   5.541  0.00  0.00    +0.077 C 
ATOM     33  C   UNL     1      11.297   4.930   6.598  0.00  0.00    +0.022 C 
ATOM     34  C   UNL     1      12.805   4.675   6.646  0.00  0.00    +0.022 C 
ENDBRANCH  30  32
ENDBRANCH  27  30
ENDBRANCH  25  27
ENDBRANCH  19  21
ENDBRANCH  18  19
ENDBRANCH   1  18
TORSDOF 7
