REMARK  Name = ZINC11916644
REMARK  11 active torsions:
REMARK  status: ('A' for Active; 'I' for Inactive)
REMARK    1  A    between atoms: C_1  and  O_2
REMARK    2  A    between atoms: O_2  and  C_3
REMARK    3  A    between atoms: C_8  and  C_9
REMARK    4  A    between atoms: C_9  and  N_10
REMARK    5  A    between atoms: N_10  and  C_11
REMARK    6  A    between atoms: N_10  and  C_17
REMARK    7  A    between atoms: C_11  and  C_12
REMARK    8  A    between atoms: C_20  and  S_33
REMARK    9  A    between atoms: C_22  and  C_23
REMARK   10  A    between atoms: N_25  and  C_26
REMARK   11  A    between atoms: S_33  and  C_36
REMARK                            x       y       z     vdW  Elec       q    Type
REMARK                         _______ _______ _______ _____ _____    ______ ____
ROOT
ATOM      1  C   UNL     1       1.335   3.958  -0.598  0.00  0.00    +0.080 A 
ATOM      2  C   UNL     1       2.417   4.819  -0.804  0.00  0.00    +0.140 A 
ATOM      3  N   UNL     1       3.581   4.311  -1.162  0.00  0.00    -0.218 NA
ATOM      4  C   UNL     1       3.736   3.010  -1.327  0.00  0.00    +0.271 A 
ATOM      5  N   UNL     1       2.753   2.159  -1.141  0.00  0.00    -0.205 NA
ATOM      6  C   UNL     1       1.541   2.583  -0.784  0.00  0.00    +0.152 A 
ENDROOT
BRANCH   6   7
ATOM      7  C   UNL     1       0.435   1.621  -0.581  0.00  0.00    +0.269 C 
ATOM      8  O   UNL     1      -0.666   2.020  -0.256  0.00  0.00    -0.268 OA
ATOM      9  N   UNL     1       0.647   0.302  -0.763  0.00  0.00    -0.278 N 
ATOM     10  H   UNL     1       1.506  -0.010  -1.089  0.00  0.00    +0.155 HD
BRANCH   9  11
ATOM     11  C   UNL     1      -0.371  -0.615  -0.481  0.00  0.00    +0.069 A 
ATOM     12  C   UNL     1      -1.699  -0.264  -0.680  0.00  0.00    +0.026 A 
ATOM     13  C   UNL     1      -2.702  -1.174  -0.405  0.00  0.00    +0.002 A 
ATOM     14  C   UNL     1      -2.385  -2.430   0.078  0.00  0.00    +0.003 A 
ATOM     15  C   UNL     1      -1.064  -2.783   0.283  0.00  0.00    +0.040 A 
ATOM     16  C   UNL     1      -0.054  -1.879   0.005  0.00  0.00    +0.144 A 
ATOM     17  F   UNL     1       1.236  -2.224   0.206  0.00  0.00    -0.204 F 
ENDBRANCH   9  11
ENDBRANCH   6   7
BRANCH   4  18
ATOM     18  S   UNL     1       5.316   2.395  -1.806  0.00  0.00    +0.029 S 
ATOM     19  O   UNL     1       5.042   1.172  -2.475  0.00  0.00    -0.167 OA
ATOM     20  O   UNL     1       5.933   3.475  -2.494  0.00  0.00    -0.167 OA
ATOM     21  C   UNL     1       6.183   2.072  -0.245  0.00  0.00    +0.204 C 
ENDBRANCH   4  18
BRANCH   1  22
ATOM     22  N   UNL     1       0.092   4.450  -0.221  0.00  0.00    -0.315 N 
BRANCH  22  23
ATOM     23  C   UNL     1       0.175   5.166   1.059  0.00  0.00    +0.144 C 
BRANCH  23  29
ATOM     24  C   UNL     1       1.462   3.624   2.559  0.00  0.00    +0.125 A 
ATOM     25  C   UNL     1       1.521   2.707   3.599  0.00  0.00    +0.046 A 
ATOM     26  C   UNL     1       0.366   2.342   4.262  0.00  0.00    +0.004 A 
ATOM     27  C   UNL     1      -0.849   2.888   3.890  0.00  0.00    +0.001 A 
ATOM     28  C   UNL     1      -0.910   3.805   2.857  0.00  0.00    +0.009 A 
ATOM     29  C   UNL     1       0.242   4.170   2.188  0.00  0.00    +0.011 A 
BRANCH  24  31
ATOM     30  C   UNL     1       3.817   3.382   2.342  0.00  0.00    +0.277 C 
ATOM     31  O   UNL     1       2.597   3.986   1.906  0.00  0.00    -0.495 OA
ENDBRANCH  24  31
ENDBRANCH  23  29
ENDBRANCH  22  23
BRANCH  22  32
ATOM     32  C   UNL     1      -0.474   5.310  -1.270  0.00  0.00    +0.179 C 
BRANCH  32  33
ATOM     33  C   UNL     1      -1.949   5.498  -1.023  0.00  0.00    +0.122 A 
ATOM     34  C   UNL     1      -2.513   6.535  -0.378  0.00  0.00    +0.046 A 
ATOM     35  C   UNL     1      -3.908   6.306  -0.377  0.00  0.00    +0.041 A 
ATOM     36  C   UNL     1      -4.113   5.144  -1.022  0.00  0.00    +0.195 A 
ATOM     37  O   UNL     1      -2.924   4.661  -1.416  0.00  0.00    -0.466 OA
ENDBRANCH  32  33
ENDBRANCH  22  32
ENDBRANCH   1  22
TORSDOF 9
