REMARK  Name = ZINC01362110
REMARK  7 active torsions:
REMARK  status: ('A' for Active; 'I' for Inactive)
REMARK    1  A    between atoms: C_1  and  C_2
REMARK    2  A    between atoms: C_5  and  C_8
REMARK    3  A    between atoms: C_8  and  C_10
REMARK    4  A    between atoms: C_14  and  N_15
REMARK    5  A    between atoms: C_16  and  C_18
REMARK    6  A    between atoms: C_18  and  N_19
REMARK    7  A    between atoms: N_22  and  C_25
REMARK                            x       y       z     vdW  Elec       q    Type
REMARK                         _______ _______ _______ _____ _____    ______ ____
ROOT
ATOM      1  C   UNL     1       0.088  -4.893   1.295  0.00  0.00    +0.054 A 
ATOM      2  C   UNL     1       0.166  -6.337   1.433  0.00  0.00    -0.024 A 
ATOM      3  C   UNL     1       0.160  -6.771   2.712  0.00  0.00    -0.005 A 
ATOM      4  S   UNL     1       0.054  -5.299   3.687  0.00  0.00    -0.077 S 
ATOM      5  C   UNL     1       0.024  -4.147   2.465  0.00  0.00    +0.083 A 
ATOM      6  C   UNL     1       0.227  -8.192   3.179  0.00  0.00    +0.043 C 
ATOM      7  C   UNL     1      -0.075  -9.108   1.984  0.00  0.00    +0.005 C 
ATOM      8  C   UNL     1       0.766  -8.655   0.787  0.00  0.00    +0.005 C 
ATOM      9  C   UNL     1       0.250  -7.311   0.268  0.00  0.00    +0.037 C 
ENDROOT
BRANCH   5  10
ATOM     10  N   UNL     1      -0.051  -2.770   2.595  0.00  0.00    -0.278 N 
ATOM     11  C   UNL     1       0.006  -2.204   3.817  0.00  0.00    +0.232 C 
ATOM     12  O   UNL     1       0.123  -2.901   4.803  0.00  0.00    -0.274 OA
ATOM     13  H   UNL     1      -0.144  -2.213   1.806  0.00  0.00    +0.155 HD
BRANCH  11  14
ATOM     14  C   UNL     1      -0.075  -0.706   3.958  0.00  0.00    +0.181 C 
BRANCH  14  15
ATOM     15  N   UNL     1       0.010  -0.343   5.379  0.00  0.00    -0.291 NA
ATOM     16  C   UNL     1      -1.161  -0.834   6.118  0.00  0.00    +0.104 C 
ATOM     17  C   UNL     1      -0.951  -0.596   7.617  0.00  0.00    +0.120 C 
ATOM     18  N   UNL     1      -0.636   0.826   7.825  0.00  0.00    -0.325 N 
ATOM     19  C   UNL     1       0.437   1.426   7.018  0.00  0.00    +0.120 C 
ATOM     20  C   UNL     1       0.173   1.108   5.542  0.00  0.00    +0.104 C 
BRANCH  18  21
ATOM     21  C   UNL     1      -1.338   1.586   8.765  0.00  0.00    +0.065 A 
ATOM     22  C   UNL     1      -0.882   1.669  10.074  0.00  0.00    +0.026 A 
ATOM     23  C   UNL     1      -1.578   2.422  11.000  0.00  0.00    +0.002 A 
ATOM     24  C   UNL     1      -2.727   3.092  10.626  0.00  0.00    +0.003 A 
ATOM     25  C   UNL     1      -3.186   3.013   9.324  0.00  0.00    +0.040 A 
ATOM     26  C   UNL     1      -2.491   2.267   8.390  0.00  0.00    +0.144 A 
ATOM     27  F   UNL     1      -2.936   2.194   7.116  0.00  0.00    -0.204 F 
ENDBRANCH  18  21
ENDBRANCH  14  15
ENDBRANCH  11  14
ENDBRANCH   5  10
BRANCH   1  28
ATOM     28  C   UNL     1       0.083  -4.251  -0.021  0.00  0.00    +0.196 C 
ATOM     29  O   UNL     1       1.135  -4.008  -0.584  0.00  0.00    -0.287 OA
BRANCH  28  34
ATOM     30  C   UNL     1      -4.910  -2.875  -2.533  0.00  0.00    +0.044 C 
ATOM     31  C   UNL     1      -3.602  -3.235  -1.875  0.00  0.00    -0.050 A 
ATOM     32  C   UNL     1      -2.408  -2.861  -2.465  0.00  0.00    +0.004 A 
ATOM     33  C   UNL     1      -1.208  -3.187  -1.868  0.00  0.00    +0.012 A 
ATOM     34  C   UNL     1      -1.200  -3.897  -0.666  0.00  0.00    +0.022 A 
ATOM     35  C   UNL     1      -2.409  -4.271  -0.076  0.00  0.00    +0.012 A 
ATOM     36  C   UNL     1      -3.602  -3.934  -0.681  0.00  0.00    +0.004 A 
ENDBRANCH  28  34
ENDBRANCH   1  28
TORSDOF 6
