REMARK  Name = ZINC35246886
REMARK  12 active torsions:
REMARK  status: ('A' for Active; 'I' for Inactive)
REMARK    1  A    between atoms: C_1  and  C_2
REMARK    2  A    between atoms: C_7  and  C_9
REMARK    3  A    between atoms: C_7  and  C_10
REMARK    4  A    between atoms: C_13  and  C_15
REMARK    5  A    between atoms: C_18  and  C_20
REMARK    6  A    between atoms: C_20  and  N_21
REMARK    7  A    between atoms: N_21  and  C_22
REMARK    8  A    between atoms: N_21  and  C_31
REMARK    9  A    between atoms: C_22  and  C_23
REMARK   10  A    between atoms: C_27  and  O_29
REMARK   11  A    between atoms: O_29  and  C_30
REMARK   12  A    between atoms: C_31  and  C_32
REMARK                            x       y       z     vdW  Elec       q    Type
REMARK                         _______ _______ _______ _____ _____    ______ ____
ROOT
ATOM      1  C   UNL     1       3.582  -0.335  -5.636  0.00  0.00    -0.002 C 
ENDROOT
BRANCH   1   5
ATOM      2  C   UNL     1       0.699  -1.972  -4.103  0.00  0.00    +0.190 A 
ATOM      3  C   UNL     1       0.781  -2.697  -5.257  0.00  0.00    +0.055 A 
ATOM      4  C   UNL     1       1.867  -2.182  -5.981  0.00  0.00    +0.043 A 
ATOM      5  C   UNL     1       2.394  -1.177  -5.247  0.00  0.00    +0.090 A 
ATOM      6  O   UNL     1       1.685  -1.051  -4.118  0.00  0.00    -0.457 OA
BRANCH   2  18
ATOM      7  C   UNL     1       0.644   1.803  -0.202  0.00  0.00    +0.013 C 
ATOM      8  C   UNL     1       0.348   0.299  -0.305  0.00  0.00    -0.014 C 
ATOM      9  C   UNL     1      -1.169  -0.013  -0.184  0.00  0.00    +0.030 C 
ATOM     10  C   UNL     1      -1.189  -1.435  -0.798  0.00  0.00    +0.078 C 
ATOM     11  C   UNL     1      -0.619  -2.389   0.249  0.00  0.00    +0.029 C 
ATOM     12  C   UNL     1       0.765  -2.004   0.742  0.00  0.00    -0.033 C 
ATOM     13  C   UNL     1       1.068  -0.518   0.766  0.00  0.00    +0.014 C 
ATOM     14  C   UNL     1       0.890  -2.521   2.197  0.00  0.00    +0.011 C 
ATOM     15  C   UNL     1       1.832  -2.748  -0.075  0.00  0.00    +0.011 C 
ATOM     16  N   UNL     1      -0.263  -1.366  -1.946  0.00  0.00    -0.291 N 
ATOM     17  C   UNL     1       0.690  -0.273  -1.699  0.00  0.00    +0.115 C 
ATOM     18  C   UNL     1      -0.290  -2.158  -3.036  0.00  0.00    +0.282 C 
ATOM     19  O   UNL     1      -1.136  -3.027  -3.136  0.00  0.00    -0.267 OA
ENDBRANCH   2  18
ENDBRANCH   1   5
BRANCH   1  20
ATOM     20  N   UNL     1       3.123   0.840  -6.389  0.00  0.00    +0.390 N 
ATOM     21  H   UNL     1       2.568   0.539  -7.176  0.00  0.00    -0.080 HD
BRANCH  20  22
ATOM     22  C   UNL     1       4.286   1.597  -6.872  0.00  0.00    -0.042 C 
BRANCH  22  23
ATOM     23  C   UNL     1       5.045   0.767  -7.875  0.00  0.00    -0.060 A 
ATOM     24  C   UNL     1       6.132   0.015  -7.468  0.00  0.00    +0.002 A 
ATOM     25  C   UNL     1       6.830  -0.748  -8.386  0.00  0.00    +0.004 A 
ATOM     26  C   UNL     1       6.444  -0.759  -9.712  0.00  0.00    +0.045 A 
ATOM     27  C   UNL     1       5.354  -0.006 -10.123  0.00  0.00    +0.120 A 
ATOM     28  C   UNL     1       4.651   0.753  -9.198  0.00  0.00    +0.047 A 
BRANCH  27  29
ATOM     29  O   UNL     1       4.972  -0.016 -11.427  0.00  0.00    -0.495 OA
ATOM     30  C   UNL     1       5.804  -0.734 -12.341  0.00  0.00    +0.277 C 
ENDBRANCH  27  29
ENDBRANCH  22  23
ENDBRANCH  20  22
BRANCH  20  31
ATOM     31  C   UNL     1       2.310   1.695  -5.515  0.00  0.00    -0.042 C 
BRANCH  31  32
ATOM     32  C   UNL     1       1.736   2.834  -6.318  0.00  0.00    -0.061 A 
ATOM     33  C   UNL     1       2.383   4.056  -6.344  0.00  0.00    +0.002 A 
ATOM     34  C   UNL     1       1.858   5.101  -7.080  0.00  0.00    +0.003 A 
ATOM     35  C   UNL     1       0.686   4.926  -7.792  0.00  0.00    +0.038 A 
ATOM     36  C   UNL     1       0.038   3.703  -7.767  0.00  0.00    +0.124 A 
ATOM     37  C   UNL     1       0.568   2.655  -7.034  0.00  0.00    +0.040 A 
ATOM     38  F   UNL     1      -1.108   3.531  -8.461  0.00  0.00    -0.205 F 
ENDBRANCH  31  32
ENDBRANCH  20  31
ENDBRANCH   1  20
TORSDOF 8
