REMARK  Name = ZINC59490286
REMARK  7 active torsions:
REMARK  status: ('A' for Active; 'I' for Inactive)
REMARK    1  A    between atoms: C_1  and  N_2
REMARK    2  A    between atoms: C_3  and  S_13
REMARK    3  A    between atoms: N_4  and  C_5
REMARK    4  A    between atoms: C_8  and  O_11
REMARK    5  A    between atoms: O_11  and  C_12
REMARK    6  A    between atoms: S_13  and  C_14
REMARK    7  A    between atoms: N_19  and  C_22
REMARK                            x       y       z     vdW  Elec       q    Type
REMARK                         _______ _______ _______ _____ _____    ______ ____
ROOT
ATOM      1  S   UNL     1       2.602  -0.002   1.940  0.00  0.00    -0.079 S 
ENDROOT
BRANCH   1   2
ATOM      2  C   UNL     1       1.584   0.140   3.434  0.00  0.00    +0.149 C 
ATOM      3  C   UNL     1       2.417   0.690   4.609  0.00  0.00    +0.120 C 
ATOM      4  C   UNL     1       1.721   1.986   4.962  0.00  0.00    +0.228 C 
ATOM      5  O   UNL     1       2.058   2.747   5.844  0.00  0.00    -0.275 OA
ATOM      6  N   UNL     1       0.675   2.161   4.145  0.00  0.00    -0.209 N 
ATOM      7  C   UNL     1       0.501   1.180   3.245  0.00  0.00    +0.240 C 
ATOM      8  O   UNL     1      -0.379   1.134   2.413  0.00  0.00    -0.274 OA
BRANCH   6   9
ATOM      9  C   UNL     1      -0.171   3.276   4.223  0.00  0.00    +0.044 A 
ATOM     10  C   UNL     1      -1.487   3.122   4.640  0.00  0.00    +0.025 A 
ATOM     11  C   UNL     1      -2.318   4.222   4.716  0.00  0.00    +0.016 A 
ATOM     12  C   UNL     1      -1.842   5.476   4.378  0.00  0.00    +0.013 A 
ATOM     13  C   UNL     1      -0.532   5.632   3.962  0.00  0.00    +0.016 A 
ATOM     14  C   UNL     1       0.306   4.536   3.889  0.00  0.00    +0.025 A 
ATOM     15  I   UNL     1      -3.107   7.142   4.495  0.00  0.00    -0.044 I 
ENDBRANCH   6   9
ENDBRANCH   1   2
BRANCH   1  18
ATOM     16  C   UNL     1       1.810   1.288  -0.573  0.00  0.00    +0.141 C 
ATOM     17  N   UNL     1       1.178  -0.008  -0.313  0.00  0.00    -0.371 N 
ATOM     18  C   UNL     1       1.510  -0.696   0.744  0.00  0.00    +0.133 C 
ATOM     19  N   UNL     1       1.007  -1.965   0.925  0.00  0.00    -0.296 N 
ATOM     20  H   UNL     1       0.512  -0.354  -0.927  0.00  0.00    +0.161 HD
ATOM     21  H   UNL     1       0.956  -2.344   1.817  0.00  0.00    +0.154 HD
BRANCH  19  22
ATOM     22  C   UNL     1       0.570  -2.710  -0.178  0.00  0.00    +0.033 A 
ATOM     23  C   UNL     1       1.169  -2.531  -1.418  0.00  0.00    +0.027 A 
ATOM     24  C   UNL     1       0.737  -3.265  -2.505  0.00  0.00    +0.047 A 
ATOM     25  C   UNL     1      -0.294  -4.182  -2.358  0.00  0.00    +0.120 A 
ATOM     26  C   UNL     1      -0.893  -4.361  -1.119  0.00  0.00    +0.047 A 
ATOM     27  C   UNL     1      -0.458  -3.631  -0.030  0.00  0.00    +0.027 A 
BRANCH  25  28
ATOM     28  O   UNL     1      -0.718  -4.905  -3.428  0.00  0.00    -0.495 OA
ATOM     29  C   UNL     1      -1.784  -5.830  -3.205  0.00  0.00    +0.277 C 
ENDBRANCH  25  28
ENDBRANCH  19  22
ENDBRANCH   1  18
TORSDOF 5
