REMARK  Name = ZINC33312890
REMARK  6 active torsions:
REMARK  status: ('A' for Active; 'I' for Inactive)
REMARK    1  A    between atoms: C_1  and  C_2
REMARK    2  A    between atoms: C_8  and  C_10
REMARK    3  A    between atoms: N_20  and  C_21
REMARK    4  A    between atoms: C_21  and  C_22
REMARK    5  A    between atoms: N_24  and  C_25
REMARK    6  A    between atoms: C_25  and  C_26
REMARK                            x       y       z     vdW  Elec       q    Type
REMARK                         _______ _______ _______ _____ _____    ______ ____
ROOT
ATOM      1  C   UNL     1      -0.550  -2.195  -0.880  0.00  0.00    +0.051 C 
ATOM      2  C   UNL     1       0.907  -2.566  -0.965  0.00  0.00    -0.049 A 
ATOM      3  C   UNL     1       1.821  -1.821  -0.233  0.00  0.00    +0.003 A 
ATOM      4  C   UNL     1       3.166  -2.128  -0.277  0.00  0.00    +0.000 A 
ATOM      5  C   UNL     1       3.606  -3.183  -1.055  0.00  0.00    +0.000 A 
ATOM      6  C   UNL     1       2.699  -3.923  -1.785  0.00  0.00    +0.004 A 
ATOM      7  C   UNL     1       1.347  -3.615  -1.742  0.00  0.00    -0.047 A 
ATOM      8  C   UNL     1       0.394  -4.445  -2.563  0.00  0.00    +0.017 C 
ATOM      9  C   UNL     1      -1.039  -4.231  -2.074  0.00  0.00    -0.072 C 
ATOM     10  N   UNL     1      -1.294  -2.784  -1.998  0.00  0.00    +0.396 N 
ATOM     11  H   UNL     1      -0.944  -2.317  -2.930  0.00  0.00    -0.080 HD
ENDROOT
BRANCH   1  19
ATOM     12  C   UNL     1       1.272   1.959   3.412  0.00  0.00    +0.007 C 
ATOM     13  C   UNL     1       0.181   1.406   2.493  0.00  0.00    -0.011 C 
ATOM     14  C   UNL     1       0.336   2.011   1.096  0.00  0.00    +0.022 C 
ATOM     15  C   UNL     1      -0.779   1.481   0.189  0.00  0.00    +0.108 C 
ATOM     16  N   UNL     1      -0.754   0.012   0.217  0.00  0.00    -0.303 N 
ATOM     17  C   UNL     1      -0.806  -0.670   1.516  0.00  0.00    +0.108 C 
ATOM     18  C   UNL     1       0.309  -0.117   2.409  0.00  0.00    +0.022 C 
ATOM     19  C   UNL     1      -0.686  -0.695  -0.928  0.00  0.00    +0.206 C 
ATOM     20  O   UNL     1      -0.733  -0.124  -1.998  0.00  0.00    -0.277 OA
ENDBRANCH   1  19
BRANCH  10  21
ATOM     21  C   UNL     1      -2.732  -2.511  -1.875  0.00  0.00    +0.020 C 
BRANCH  21  22
ATOM     22  C   UNL     1      -3.430  -2.911  -3.150  0.00  0.00    +0.197 C 
ATOM     23  O   UNL     1      -2.793  -3.378  -4.069  0.00  0.00    -0.278 OA
ATOM     24  N   UNL     1      -4.763  -2.750  -3.267  0.00  0.00    -0.313 N 
ATOM     25  H   UNL     1      -5.342  -2.325  -2.433  0.00  0.00    +0.149 HD
BRANCH  24  26
ATOM     26  C   UNL     1      -5.442  -3.139  -4.506  0.00  0.00    +0.139 C 
BRANCH  26  27
ATOM     27  C   UNL     1      -6.917  -2.858  -4.380  0.00  0.00    -0.027 A 
ATOM     28  C   UNL     1      -7.765  -3.832  -3.888  0.00  0.00    +0.009 A 
ATOM     29  C   UNL     1      -9.118  -3.577  -3.765  0.00  0.00    +0.050 A 
ATOM     30  C   UNL     1      -9.630  -2.348  -4.148  0.00  0.00    +0.166 A 
ATOM     31  C   UNL     1      -8.776  -1.368  -4.649  0.00  0.00    +0.167 A 
ATOM     32  C   UNL     1      -7.420  -1.629  -4.763  0.00  0.00    +0.054 A 
ATOM     33  O   UNL     1      -9.513  -0.260  -4.950  0.00  0.00    -0.453 OA
ATOM     34  C   UNL     1     -10.879  -0.712  -5.012  0.00  0.00    +0.466 C 
ATOM     35  O   UNL     1     -10.902  -1.853  -4.135  0.00  0.00    -0.453 OA
ENDBRANCH  26  27
ENDBRANCH  24  26
ENDBRANCH  21  22
ENDBRANCH  10  21
TORSDOF 5
