REMARK  Name = ZINC08643201
REMARK  4 active torsions:
REMARK  status: ('A' for Active; 'I' for Inactive)
REMARK    1  A    between atoms: C_4  and  N_17
REMARK    2  A    between atoms: C_5  and  C_7
REMARK    3  A    between atoms: C_18  and  C_19
REMARK    4  A    between atoms: C_24  and  O_25
REMARK                            x       y       z     vdW  Elec       q    Type
REMARK                         _______ _______ _______ _____ _____    ______ ____
ROOT
ATOM      1  C   UNL     1      -0.016   1.376   0.008  0.00  0.00    +0.001 A 
ATOM      2  C   UNL     1       1.150   2.068  -0.277  0.00  0.00    +0.002 A 
ATOM      3  C   UNL     1       2.364   1.414  -0.294  0.00  0.00    +0.028 A 
ATOM      4  C   UNL     1       2.424   0.046  -0.022  0.00  0.00    +0.074 A 
ATOM      5  C   UNL     1       1.238  -0.657   0.268  0.00  0.00    +0.043 A 
ATOM      6  C   UNL     1       0.020   0.024   0.279  0.00  0.00    +0.013 A 
ENDROOT
BRANCH   5   7
ATOM      7  C   UNL     1       1.283  -2.104   0.557  0.00  0.00    +0.141 A 
ATOM      8  N   UNL     1       0.194  -2.884   0.845  0.00  0.00    -0.338 N 
ATOM      9  H   UNL     1      -0.729  -2.589   0.894  0.00  0.00    +0.167 HD
ATOM     10  C   UNL     1       0.657  -4.169   1.051  0.00  0.00    +0.066 A 
ATOM     11  C   UNL     1       0.045  -5.374   1.368  0.00  0.00    +0.028 A 
ATOM     12  C   UNL     1       0.809  -6.513   1.509  0.00  0.00    +0.002 A 
ATOM     13  C   UNL     1       2.185  -6.463   1.335  0.00  0.00    +0.002 A 
ATOM     14  C   UNL     1       2.806  -5.287   1.023  0.00  0.00    +0.030 A 
ATOM     15  C   UNL     1       2.051  -4.118   0.875  0.00  0.00    +0.089 A 
ATOM     16  N   UNL     1       2.370  -2.837   0.571  0.00  0.00    -0.228 NA
ENDBRANCH   5   7
BRANCH   4  17
ATOM     17  N   UNL     1       3.623  -0.606  -0.037  0.00  0.00    -0.254 NA
ATOM     18  C   UNL     1       4.645  -0.108   0.603  0.00  0.00    +0.123 C 
BRANCH  18  19
ATOM     19  C   UNL     1       5.963  -0.750   0.497  0.00  0.00    +0.036 A 
ATOM     20  C   UNL     1       7.060  -0.223   1.186  0.00  0.00    +0.028 A 
ATOM     21  C   UNL     1       8.293  -0.830   1.082  0.00  0.00    +0.019 A 
ATOM     22  C   UNL     1       8.451  -1.962   0.296  0.00  0.00    +0.019 A 
ATOM     23  C   UNL     1       7.375  -2.493  -0.389  0.00  0.00    +0.047 A 
ATOM     24  C   UNL     1       6.127  -1.899  -0.293  0.00  0.00    +0.125 A 
ATOM     25 BR   UNL     1       9.776  -0.117   2.013  0.00  0.00    -0.050 Br
BRANCH  24  26
ATOM     26  O   UNL     1       5.069  -2.423  -0.962  0.00  0.00    -0.506 OA
ATOM     27  H   UNL     1       4.953  -2.068  -1.854  0.00  0.00    +0.292 HD
ENDBRANCH  24  26
ENDBRANCH  18  19
ENDBRANCH   4  17
TORSDOF 4
