REMARK  Name = ZINC40884279
REMARK  10 active torsions:
REMARK  status: ('A' for Active; 'I' for Inactive)
REMARK    1  A    between atoms: C_4  and  C_7
REMARK    2  A    between atoms: C_7  and  O_8
REMARK    3  A    between atoms: O_8  and  C_9
REMARK    4  A    between atoms: C_12  and  C_15
REMARK    5  A    between atoms: C_16  and  C_17
REMARK    6  A    between atoms: C_17  and  O_19
REMARK    7  A    between atoms: O_19  and  C_20
REMARK    8  A    between atoms: C_25  and  C_31
REMARK    9  A    between atoms: N_33  and  C_34
REMARK   10  A    between atoms: C_34  and  C_35
REMARK                            x       y       z     vdW  Elec       q    Type
REMARK                         _______ _______ _______ _____ _____    ______ ____
ROOT
ATOM      1  C   UNL     1      12.268  -5.622   4.743  0.00  0.00    +0.135 A 
ATOM      2  C   UNL     1      13.510  -5.054   4.460  0.00  0.00    +0.047 A 
ATOM      3  C   UNL     1      14.648  -5.796   4.560  0.00  0.00    +0.015 A 
ATOM      4  C   UNL     1      14.573  -7.145   4.941  0.00  0.00    +0.019 A 
ATOM      5  C   UNL     1      15.744  -7.938   5.014  0.00  0.00    +0.031 A 
ATOM      6  C   UNL     1      15.597  -9.308   5.199  0.00  0.00    +0.122 A 
ATOM      7  C   UNL     1      14.224  -9.838   5.271  0.00  0.00    +0.350 A 
ATOM      8  O   UNL     1      13.978 -10.991   4.973  0.00  0.00    -0.244 OA
ATOM      9  O   UNL     1      13.247  -8.997   5.682  0.00  0.00    -0.422 OA
ATOM     10  C   UNL     1      13.322  -7.713   5.256  0.00  0.00    +0.143 A 
ATOM     11  C   UNL     1      12.175  -6.944   5.148  0.00  0.00    +0.093 A 
ENDROOT
BRANCH   6  12
ATOM     12  C   UNL     1      16.767 -10.194   5.316  0.00  0.00    +0.251 C 
ATOM     13  O   UNL     1      17.890  -9.730   5.252  0.00  0.00    -0.270 OA
ATOM     14  N   UNL     1      16.594 -11.518   5.494  0.00  0.00    -0.304 N 
ATOM     15  H   UNL     1      15.698 -11.888   5.545  0.00  0.00    +0.149 HD
BRANCH  14  16
ATOM     16  C   UNL     1      17.758 -12.400   5.611  0.00  0.00    +0.179 C 
BRANCH  16  17
ATOM     17  C   UNL     1      17.294 -13.821   5.803  0.00  0.00    +0.122 A 
ATOM     18  C   UNL     1      17.056 -14.710   4.822  0.00  0.00    +0.046 A 
ATOM     19  C   UNL     1      16.643 -15.909   5.447  0.00  0.00    +0.041 A 
ATOM     20  C   UNL     1      16.654 -15.681   6.772  0.00  0.00    +0.195 A 
ATOM     21  O   UNL     1      17.055 -14.417   6.982  0.00  0.00    -0.466 OA
ENDBRANCH  16  17
ENDBRANCH  14  16
ENDBRANCH   6  12
BRANCH   1  22
ATOM     22  O   UNL     1      11.142  -4.872   4.626  0.00  0.00    -0.423 OA
BRANCH  22  23
ATOM     23  C   UNL     1      10.659  -4.643   3.387  0.00  0.00    +0.337 C 
ATOM     24  O   UNL     1      11.278  -5.026   2.412  0.00  0.00    -0.245 OA
BRANCH  23  26
ATOM     25  C   UNL     1       8.948  -3.725   1.981  0.00  0.00    +0.015 C 
ATOM     26  C   UNL     1       9.431  -3.955   3.221  0.00  0.00    +0.092 C 
BRANCH  25  30
ATOM     27  C   UNL     1       5.272  -1.669   1.484  0.00  0.00    +0.121 A 
ATOM     28  C   UNL     1       5.978  -2.105   0.369  0.00  0.00    +0.046 A 
ATOM     29  C   UNL     1       7.171  -2.772   0.524  0.00  0.00    +0.011 A 
ATOM     30  C   UNL     1       7.674  -3.012   1.809  0.00  0.00    -0.025 A 
ATOM     31  C   UNL     1       6.960  -2.570   2.929  0.00  0.00    +0.011 A 
ATOM     32  C   UNL     1       5.769  -1.899   2.762  0.00  0.00    +0.046 A 
BRANCH  27  33
ATOM     33  O   UNL     1       4.095  -1.010   1.326  0.00  0.00    -0.487 OA
BRANCH  33  34
ATOM     34  C   UNL     1       3.641  -0.807  -0.014  0.00  0.00    +0.264 C 
BRANCH  34  38
ATOM     35  C   UNL     1      -0.077   1.295   0.044  0.00  0.00    +0.000 A 
ATOM     36  C   UNL     1       1.113   1.997  -0.006  0.00  0.00    +0.000 A 
ATOM     37  C   UNL     1       2.316   1.317  -0.024  0.00  0.00    +0.007 A 
ATOM     38  C   UNL     1       2.330  -0.065   0.007  0.00  0.00    -0.010 A 
ATOM     39  C   UNL     1       1.140  -0.767   0.058  0.00  0.00    +0.007 A 
ATOM     40  C   UNL     1      -0.064  -0.087   0.075  0.00  0.00    +0.000 A 
ENDBRANCH  34  38
ENDBRANCH  33  34
ENDBRANCH  27  33
ENDBRANCH  25  30
ENDBRANCH  23  26
ENDBRANCH  22  23
ENDBRANCH   1  22
TORSDOF 10
