REMARK  Name = ZINC33709478
REMARK  10 active torsions:
REMARK  status: ('A' for Active; 'I' for Inactive)
REMARK    1  A    between atoms: C_1  and  C_2
REMARK    2  A    between atoms: C_9  and  C_11
REMARK    3  A    between atoms: C_11  and  C_12
REMARK    4  A    between atoms: C_12  and  C_13
REMARK    5  A    between atoms: C_13  and  C_14
REMARK    6  A    between atoms: C_14  and  S_15
REMARK    7  A    between atoms: S_15  and  C_16
REMARK    8  A    between atoms: C_19  and  C_29
REMARK    9  A    between atoms: N_20  and  C_21
REMARK   10  A    between atoms: C_29  and  C_30
REMARK                            x       y       z     vdW  Elec       q    Type
REMARK                         _______ _______ _______ _____ _____    ______ ____
ROOT
ATOM      1  C   UNL     1      -3.211  -0.185   3.409  0.00  0.00    +0.196 A 
ATOM      2  N   UNL     1      -3.858   0.956   3.338  0.00  0.00    -0.122 NA
ATOM      3  N   UNL     1      -3.694   1.480   2.177  0.00  0.00    -0.133 NA
ATOM      4  C   UNL     1      -2.939   0.715   1.441  0.00  0.00    +0.143 A 
ATOM      5  N   UNL     1      -2.607  -0.378   2.197  0.00  0.00    -0.274 N 
ENDROOT
BRANCH   5   6
ATOM      6  C   UNL     1      -1.813  -1.468   1.810  0.00  0.00    +0.052 A 
ATOM      7  C   UNL     1      -0.596  -1.698   2.437  0.00  0.00    +0.028 A 
ATOM      8  C   UNL     1       0.184  -2.772   2.055  0.00  0.00    +0.023 A 
ATOM      9  C   UNL     1      -0.245  -3.618   1.048  0.00  0.00    +0.059 A 
ATOM     10  C   UNL     1      -1.458  -3.389   0.420  0.00  0.00    +0.061 A 
ATOM     11  C   UNL     1      -2.245  -2.320   0.803  0.00  0.00    +0.047 A 
ATOM     12 CL   UNL     1      -1.994  -4.452  -0.844  0.00  0.00    -0.082 Cl
ATOM     13 CL   UNL     1       0.739  -4.966   0.570  0.00  0.00    -0.082 Cl
ENDBRANCH   5   6
BRANCH   1  14
ATOM     14  S   UNL     1      -3.139  -1.264   4.800  0.00  0.00    -0.086 S 
BRANCH  14  15
ATOM     15  C   UNL     1      -4.166  -0.339   5.969  0.00  0.00    +0.077 C 
BRANCH  15  16
ATOM     16  C   UNL     1      -4.251  -1.106   7.290  0.00  0.00    +0.012 C 
BRANCH  16  17
ATOM     17  C   UNL     1      -5.119  -0.324   8.278  0.00  0.00    +0.010 C 
BRANCH  17  18
ATOM     18  C   UNL     1      -5.204  -1.091   9.600  0.00  0.00    +0.096 C 
BRANCH  18  26
ATOM     19  C   UNL     1      -8.942  -0.333  14.456  0.00  0.00    -0.012 C 
ATOM     20  C   UNL     1      -8.164  -1.030  13.337  0.00  0.00    -0.057 C 
ATOM     21  C   UNL     1      -7.102  -0.069  12.778  0.00  0.00    +0.091 C 
ATOM     22  N   UNL     1      -6.276  -0.807  11.811  0.00  0.00    -0.305 N 
ATOM     23  C   UNL     1      -5.689  -2.088  12.232  0.00  0.00    +0.089 C 
ATOM     24  C   UNL     1      -6.801  -2.966  12.815  0.00  0.00    -0.063 C 
ATOM     25  N   UNL     1      -7.501  -2.226  13.873  0.00  0.00    +0.383 N 
ATOM     26  C   UNL     1      -6.059  -0.321  10.573  0.00  0.00    +0.215 C 
ATOM     27  O   UNL     1      -6.551   0.737  10.242  0.00  0.00    -0.276 OA
ATOM     28  H   UNL     1      -6.767  -1.928  14.636  0.00  0.00    -0.085 HD
ATOM     29  H   UNL     1      -8.252  -2.889  14.326  0.00  0.00    -0.085 HD
ENDBRANCH  18  26
ENDBRANCH  17  18
ENDBRANCH  16  17
ENDBRANCH  15  16
ENDBRANCH  14  15
ENDBRANCH   1  14
BRANCH   4  30
ATOM     30  C   UNL     1      -2.514   0.980   0.019  0.00  0.00    +0.111 C 
BRANCH  30  31
ATOM     31  C   UNL     1      -1.219   1.751   0.017  0.00  0.00    -0.040 A 
ATOM     32  C   UNL     1      -0.013   1.076   0.008  0.00  0.00    +0.004 A 
ATOM     33  C   UNL     1       1.175   1.783   0.000  0.00  0.00    +0.000 A 
ATOM     34  C   UNL     1       1.156   3.165   0.008  0.00  0.00    +0.000 A 
ATOM     35  C   UNL     1      -0.050   3.840   0.022  0.00  0.00    +0.000 A 
ATOM     36  C   UNL     1      -1.238   3.133   0.030  0.00  0.00    +0.004 A 
ENDBRANCH  30  31
ENDBRANCH   4  30
TORSDOF 9
