REMARK  Name = ZINC40081379
REMARK  19 active torsions:
REMARK  status: ('A' for Active; 'I' for Inactive)
REMARK    1  A    between atoms: C_1  and  C_2
REMARK    2  A    between atoms: C_2  and  C_3
REMARK    3  A    between atoms: C_3  and  C_4
REMARK    4  A    between atoms: C_4  and  C_5
REMARK    5  A    between atoms: C_5  and  O_6
REMARK    6  A    between atoms: O_6  and  C_7
REMARK    7  A    between atoms: C_11  and  C_13
REMARK    8  A    between atoms: C_15  and  C_27
REMARK    9  A    between atoms: N_19  and  C_20
REMARK   10  A    between atoms: C_20  and  C_21
REMARK   11  A    between atoms: C_21  and  O_22
REMARK   12  A    between atoms: O_22  and  C_23
REMARK   13  A    between atoms: C_23  and  C_24
REMARK   14  A    between atoms: C_24  and  O_25
REMARK   15  A    between atoms: C_27  and  C_29
REMARK   16  A    between atoms: C_32  and  O_36
REMARK   17  A    between atoms: C_34  and  C_35
REMARK   18  A    between atoms: O_36  and  C_37
REMARK   19  A    between atoms: C_37  and  C_38
REMARK                            x       y       z     vdW  Elec       q    Type
REMARK                         _______ _______ _______ _____ _____    ______ ____
ROOT
ATOM      1  C   UNL     1       3.124  -7.786   4.791  0.00  0.00    +0.145 C 
ATOM      2  C   UNL     1       4.285  -8.518   4.160  0.00  0.00    +0.076 C 
ATOM      3  C   UNL     1       4.800  -9.329   5.113  0.00  0.00    +0.249 C 
ATOM      4  C   UNL     1       4.024  -9.167   6.360  0.00  0.00    +0.288 C 
ATOM      5  O   UNL     1       4.242  -9.759   7.398  0.00  0.00    -0.266 OA
ATOM      6  N   UNL     1       3.042  -8.265   6.176  0.00  0.00    -0.281 N 
ATOM      7  O   UNL     1       5.857 -10.158   4.949  0.00  0.00    -0.282 OA
ENDROOT
BRANCH   1  12
ATOM      8  C   UNL     1       2.875  -4.121   3.906  0.00  0.00    +0.121 A 
ATOM      9  C   UNL     1       3.841  -3.572   4.736  0.00  0.00    +0.045 A 
ATOM     10  C   UNL     1       4.569  -4.388   5.580  0.00  0.00    +0.004 A 
ATOM     11  C   UNL     1       4.336  -5.751   5.597  0.00  0.00    +0.006 A 
ATOM     12  C   UNL     1       3.375  -6.301   4.770  0.00  0.00    -0.019 A 
ATOM     13  C   UNL     1       2.639  -5.488   3.929  0.00  0.00    +0.051 A 
BRANCH   8  14
ATOM     14  O   UNL     1       2.156  -3.321   3.075  0.00  0.00    -0.492 OA
BRANCH  14  15
ATOM     15  C   UNL     1       2.452  -1.923   3.104  0.00  0.00    +0.229 C 
BRANCH  15  16
ATOM     16  C   UNL     1       1.550  -1.190   2.110  0.00  0.00    +0.041 C 
BRANCH  16  17
ATOM     17  C   UNL     1       1.867   0.307   2.142  0.00  0.00    +0.003 C 
BRANCH  17  19
ATOM     18  C   UNL     1       1.281   2.537   1.179  0.00  0.00    +0.004 C 
ATOM     19  C   UNL     1       0.964   1.040   1.148  0.00  0.00    -0.003 C 
ENDBRANCH  17  19
ENDBRANCH  16  17
ENDBRANCH  15  16
ENDBRANCH  14  15
ENDBRANCH   8  14
ENDBRANCH   1  12
BRANCH   2  20
ATOM     20  C   UNL     1       4.763  -8.377   2.780  0.00  0.00    +0.195 C 
ATOM     21  O   UNL     1       5.773  -8.954   2.424  0.00  0.00    -0.287 OA
BRANCH  20  22
ATOM     22  C   UNL     1       4.017  -7.534   1.825  0.00  0.00    +0.025 A 
ATOM     23  C   UNL     1       4.525  -6.287   1.446  0.00  0.00    +0.015 A 
ATOM     24  C   UNL     1       3.827  -5.504   0.554  0.00  0.00    +0.046 A 
ATOM     25  C   UNL     1       2.619  -5.952   0.030  0.00  0.00    +0.121 A 
ATOM     26  C   UNL     1       2.111  -7.191   0.405  0.00  0.00    +0.049 A 
ATOM     27  C   UNL     1       2.806  -7.983   1.291  0.00  0.00    -0.036 A 
ATOM     28  C   UNL     1       2.257  -9.328   1.691  0.00  0.00    +0.044 C 
BRANCH  25  29
ATOM     29  O   UNL     1       1.934  -5.177  -0.848  0.00  0.00    -0.492 OA
BRANCH  29  30
ATOM     30  C   UNL     1       2.513  -3.916  -1.189  0.00  0.00    +0.225 C 
ATOM     31  C   UNL     1       1.604  -3.190  -2.184  0.00  0.00    +0.048 C 
ENDBRANCH  29  30
ENDBRANCH  25  29
ENDBRANCH  20  22
ENDBRANCH   2  20
BRANCH   6  32
ATOM     32  C   UNL     1       2.064  -7.836   7.179  0.00  0.00    +0.137 C 
BRANCH  32  33
ATOM     33  C   UNL     1       0.833  -8.742   7.111  0.00  0.00    +0.179 C 
BRANCH  33  34
ATOM     34  O   UNL     1       1.199 -10.072   7.484  0.00  0.00    -0.376 OA
BRANCH  34  35
ATOM     35  C   UNL     1       0.115 -11.003   7.454  0.00  0.00    +0.187 C 
BRANCH  35  36
ATOM     36  C   UNL     1       0.620 -12.387   7.868  0.00  0.00    +0.184 C 
BRANCH  36  37
ATOM     37  O   UNL     1       1.048 -12.349   9.231  0.00  0.00    -0.393 OA
ATOM     38  H   UNL     1       1.381 -13.194   9.562  0.00  0.00    +0.209 HD
ENDBRANCH  36  37
ENDBRANCH  35  36
ENDBRANCH  34  35
ENDBRANCH  33  34
ENDBRANCH  32  33
ENDBRANCH   6  32
TORSDOF 16
