REMARK  Name = ZINC63137025
REMARK  13 active torsions:
REMARK  status: ('A' for Active; 'I' for Inactive)
REMARK    1  A    between atoms: C_1  and  O_2
REMARK    2  A    between atoms: O_2  and  C_3
REMARK    3  A    between atoms: C_5  and  C_13
REMARK    4  A    between atoms: C_7  and  O_11
REMARK    5  A    between atoms: C_8  and  O_9
REMARK    6  A    between atoms: O_9  and  C_10
REMARK    7  A    between atoms: O_11  and  C_12
REMARK    8  A    between atoms: N_32  and  C_35
REMARK    9  A    between atoms: C_35  and  C_36
REMARK   10  A    between atoms: C_36  and  C_37
REMARK   11  A    between atoms: C_37  and  C_38
REMARK   12  A    between atoms: C_38  and  C_39
REMARK   13  A    between atoms: C_39  and  O_40
REMARK                            x       y       z     vdW  Elec       q    Type
REMARK                         _______ _______ _______ _____ _____    ______ ____
ROOT
ATOM      1  C   UNL     1       2.462   0.340   4.203  0.00  0.00    +0.134 C 
ATOM      2  C   UNL     1       1.502   0.401   5.391  0.00  0.00    +0.131 C 
ATOM      3  C   UNL     1       1.596  -0.961   6.074  0.00  0.00    -0.034 C 
ATOM      4  C   UNL     1       0.386  -1.501   6.019  0.00  0.00    -0.001 A 
ATOM      5  C   UNL     1      -0.141  -2.777   6.530  0.00  0.00    +0.010 A 
ATOM      6  C   UNL     1      -1.456  -3.021   6.290  0.00  0.00    +0.001 A 
ATOM      7  C   UNL     1      -2.290  -2.134   5.602  0.00  0.00    +0.002 A 
ATOM      8  C   UNL     1      -1.891  -0.939   5.099  0.00  0.00    +0.026 A 
ATOM      9  C   UNL     1      -0.527  -0.570   5.290  0.00  0.00    +0.043 A 
ATOM     10  N   UNL     1       0.114   0.522   4.924  0.00  0.00    -0.375 N 
ATOM     11  C   UNL     1       2.900  -1.466   6.628  0.00  0.00    +0.065 C 
ATOM     12  C   UNL     1       4.021  -1.135   5.678  0.00  0.00    +0.167 C 
ATOM     13  N   UNL     1       3.741  -0.249   4.570  0.00  0.00    -0.279 N 
ATOM     14  C   UNL     1       4.810   0.019   3.749  0.00  0.00    +0.234 C 
ATOM     15  O   UNL     1       4.720   0.799   2.825  0.00  0.00    -0.274 OA
ATOM     16  C   UNL     1       6.104  -0.706   4.052  0.00  0.00    +0.203 C 
ATOM     17  N   UNL     1       5.793  -2.119   4.336  0.00  0.00    -0.291 N 
ATOM     18  C   UNL     1       4.751  -2.357   5.178  0.00  0.00    +0.237 C 
ATOM     19  O   UNL     1       4.431  -3.480   5.506  0.00  0.00    -0.274 OA
ATOM     20  H   UNL     1      -0.254   1.274   4.433  0.00  0.00    +0.160 HD
ENDROOT
BRANCH   1  23
ATOM     21  C   UNL     1       0.626  -0.619   1.042  0.00  0.00    +0.165 A 
ATOM     22  C   UNL     1       1.202   0.138   2.051  0.00  0.00    +0.055 A 
ATOM     23  C   UNL     1       1.837  -0.486   3.109  0.00  0.00    -0.018 A 
ATOM     24  C   UNL     1       1.900  -1.866   3.166  0.00  0.00    +0.055 A 
ATOM     25  C   UNL     1       1.327  -2.630   2.160  0.00  0.00    +0.165 A 
ATOM     26  C   UNL     1       0.683  -2.006   1.098  0.00  0.00    +0.204 A 
BRANCH  21  28
ATOM     27  C   UNL     1      -0.017   1.425   0.010  0.00  0.00    +0.277 C 
ATOM     28  O   UNL     1       0.002  -0.004   0.002  0.00  0.00    -0.491 OA
ENDBRANCH  21  28
BRANCH  26  29
ATOM     29  O   UNL     1       0.114  -2.753   0.113  0.00  0.00    -0.488 OA
ATOM     30  C   UNL     1       0.939  -3.090  -1.004  0.00  0.00    +0.277 C 
ENDBRANCH  26  29
BRANCH  25  31
ATOM     31  O   UNL     1       1.390  -3.987   2.217  0.00  0.00    -0.491 OA
ATOM     32  C   UNL     1       2.062  -4.559   3.340  0.00  0.00    +0.277 C 
ENDBRANCH  25  31
ENDBRANCH   1  23
BRANCH  17  33
ATOM     33  C   UNL     1       6.568  -3.212   3.742  0.00  0.00    +0.108 C 
BRANCH  33  34
ATOM     34  C   UNL     1       7.740  -3.564   4.660  0.00  0.00    +0.019 C 
BRANCH  34  35
ATOM     35  C   UNL     1       8.548  -4.705   4.039  0.00  0.00    +0.004 C 
BRANCH  35  36
ATOM     36  C   UNL     1       9.721  -5.058   4.957  0.00  0.00    +0.028 C 
BRANCH  36  37
ATOM     37  C   UNL     1      10.529  -6.199   4.336  0.00  0.00    +0.156 C 
BRANCH  37  38
ATOM     38  O   UNL     1      11.624  -6.528   5.193  0.00  0.00    -0.395 OA
ATOM     39  H   UNL     1      12.181  -7.245   4.862  0.00  0.00    +0.209 HD
ENDBRANCH  37  38
ENDBRANCH  36  37
ENDBRANCH  35  36
ENDBRANCH  34  35
ENDBRANCH  33  34
ENDBRANCH  17  33
TORSDOF 10
