REMARK  Name = ZINC03463750
REMARK  6 active torsions:
REMARK  status: ('A' for Active; 'I' for Inactive)
REMARK    1  A    between atoms: C_1  and  C_2
REMARK    2  A    between atoms: C_7  and  N_8
REMARK    3  A    between atoms: C_9  and  C_11
REMARK    4  A    between atoms: C_11  and  N_12
REMARK    5  A    between atoms: C_13  and  C_15
REMARK    6  A    between atoms: C_15  and  N_16
REMARK                            x       y       z     vdW  Elec       q    Type
REMARK                         _______ _______ _______ _____ _____    ______ ____
ROOT
ATOM      1  N   UNL     1      -1.582  -4.272  -3.528  0.00  0.00    -0.305 N 
ATOM      2  C   UNL     1      -1.236  -3.422  -2.541  0.00  0.00    +0.231 C 
ATOM      3  O   UNL     1      -0.445  -3.770  -1.690  0.00  0.00    -0.274 OA
ATOM      4  H   UNL     1      -2.215  -3.994  -4.208  0.00  0.00    +0.149 HD
ENDROOT
BRANCH   1   5
ATOM      5  C   UNL     1      -1.001  -5.617  -3.573  0.00  0.00    +0.200 C 
BRANCH   5   7
ATOM      6  N   UNL     1      -1.152  -7.625  -5.010  0.00  0.00    -0.284 N 
ATOM      7  C   UNL     1      -1.548  -6.360  -4.765  0.00  0.00    +0.234 C 
ATOM      8  O   UNL     1      -2.344  -5.820  -5.504  0.00  0.00    -0.274 OA
ATOM      9  H   UNL     1      -0.457  -8.029  -4.467  0.00  0.00    +0.155 HD
BRANCH   6  16
ATOM     10  C   UNL     1       0.342  -9.741  -6.186  0.00  0.00    +0.046 C 
ATOM     11  C   UNL     1      -1.051  -9.396  -6.649  0.00  0.00    -0.028 A 
ATOM     12  C   UNL     1      -1.640 -10.118  -7.668  0.00  0.00    +0.020 A 
ATOM     13  C   UNL     1      -2.915  -9.798  -8.097  0.00  0.00    +0.018 A 
ATOM     14  C   UNL     1      -3.607  -8.758  -7.502  0.00  0.00    +0.017 A 
ATOM     15  C   UNL     1      -3.025  -8.036  -6.479  0.00  0.00    +0.024 A 
ATOM     16  C   UNL     1      -1.745  -8.355  -6.046  0.00  0.00    +0.036 A 
ATOM     17 BR   UNL     1      -3.715 -10.784  -9.498  0.00  0.00    -0.050 Br
ENDBRANCH   6  16
ENDBRANCH   5   7
ENDBRANCH   1   5
BRANCH   2  18
ATOM     18  C   UNL     1      -1.833  -2.039  -2.494  0.00  0.00    +0.213 C 
BRANCH  18  19
ATOM     19  N   UNL     1      -1.301  -1.317  -1.336  0.00  0.00    -0.215 N 
ATOM     20  C   UNL     1      -0.184  -0.558  -1.361  0.00  0.00    +0.251 C 
ATOM     21  O   UNL     1       0.544  -0.351  -2.308  0.00  0.00    -0.272 OA
ATOM     22  C   UNL     1      -0.037  -0.023   0.039  0.00  0.00    +0.138 C 
ATOM     23  C   UNL     1      -0.058   1.511   0.053  0.00  0.00    +0.045 C 
ATOM     24  C   UNL     1       1.448   1.858   0.053  0.00  0.00    +0.038 C 
ATOM     25  C   UNL     1       2.133   0.656   0.668  0.00  0.00    -0.042 A 
ATOM     26  C   UNL     1       1.274  -0.431   0.655  0.00  0.00    -0.012 A 
ATOM     27  C   UNL     1       1.698  -1.646   1.167  0.00  0.00    +0.006 A 
ATOM     28  C   UNL     1       2.969  -1.777   1.692  0.00  0.00    +0.000 A 
ATOM     29  C   UNL     1       3.824  -0.692   1.706  0.00  0.00    +0.000 A 
ATOM     30  C   UNL     1       3.406   0.521   1.195  0.00  0.00    +0.004 A 
ATOM     31  N   UNL     1      -1.176  -0.580   0.769  0.00  0.00    -0.281 N 
ATOM     32  C   UNL     1      -1.863  -1.326  -0.120  0.00  0.00    +0.310 C 
ATOM     33  O   UNL     1      -2.877  -1.939   0.152  0.00  0.00    -0.252 OA
ATOM     34  H   UNL     1      -1.394  -0.440   1.704  0.00  0.00    +0.152 HD
ENDBRANCH  18  19
ENDBRANCH   2  18
TORSDOF 5
