REMARK  Name = ZINC40054492
REMARK  11 active torsions:
REMARK  status: ('A' for Active; 'I' for Inactive)
REMARK    1  A    between atoms: C_2  and  C_3
REMARK    2  A    between atoms: C_3  and  O_4
REMARK    3  A    between atoms: O_4  and  C_5
REMARK    4  A    between atoms: C_9  and  C_11
REMARK    5  A    between atoms: C_11  and  C_13
REMARK    6  A    between atoms: N_17  and  C_29
REMARK    7  A    between atoms: C_18  and  C_20
REMARK    8  A    between atoms: C_24  and  N_26
REMARK    9  A    between atoms: C_29  and  C_30
REMARK   10  A    between atoms: C_30  and  C_31
REMARK   11  A    between atoms: C_31  and  O_32
REMARK                            x       y       z     vdW  Elec       q    Type
REMARK                         _______ _______ _______ _____ _____    ______ ____
ROOT
ATOM      1  C   UNL     1      -4.574  -6.561  -3.240  0.00  0.00    +0.076 C 
ATOM      2  C   UNL     1      -4.629  -7.656  -4.033  0.00  0.00    +0.249 C 
ATOM      3  C   UNL     1      -5.938  -8.320  -3.854  0.00  0.00    +0.288 C 
ATOM      4  O   UNL     1      -6.292  -9.330  -4.429  0.00  0.00    -0.266 OA
ATOM      5  N   UNL     1      -6.678  -7.640  -2.960  0.00  0.00    -0.283 N 
ATOM      6  C   UNL     1      -5.889  -6.492  -2.499  0.00  0.00    +0.145 C 
ATOM      7  O   UNL     1      -3.644  -8.075  -4.860  0.00  0.00    -0.282 OA
ENDROOT
BRANCH   6   8
ATOM      8  C   UNL     1      -6.604  -5.208  -2.831  0.00  0.00    -0.020 A 
ATOM      9  C   UNL     1      -7.357  -5.115  -3.986  0.00  0.00    +0.006 A 
ATOM     10  C   UNL     1      -8.014  -3.937  -4.291  0.00  0.00    +0.003 A 
ATOM     11  C   UNL     1      -7.917  -2.852  -3.439  0.00  0.00    +0.033 A 
ATOM     12  C   UNL     1      -7.165  -2.946  -2.283  0.00  0.00    +0.127 A 
ATOM     13  C   UNL     1      -6.512  -4.125  -1.977  0.00  0.00    +0.038 A 
BRANCH  12  14
ATOM     14  N   UNL     1      -7.061  -1.784  -1.372  0.00  0.00    +0.056 N 
ATOM     15  O   UNL     1      -7.557  -0.726  -1.683  0.00  0.00    -0.126 OA
ATOM     16  O   UNL     1      -6.481  -1.893  -0.317  0.00  0.00    -0.126 OA
ENDBRANCH  12  14
ENDBRANCH   6   8
BRANCH   1  17
ATOM     17  C   UNL     1      -3.452  -5.625  -3.118  0.00  0.00    +0.195 C 
ATOM     18  O   UNL     1      -3.144  -4.918  -4.059  0.00  0.00    -0.287 OA
BRANCH  17  23
ATOM     19  C   UNL     1      -0.872  -4.636  -0.568  0.00  0.00    +0.122 A 
ATOM     20  C   UNL     1      -1.278  -5.386   0.528  0.00  0.00    +0.046 A 
ATOM     21  C   UNL     1      -2.385  -6.210   0.438  0.00  0.00    +0.004 A 
ATOM     22  C   UNL     1      -3.095  -6.291  -0.743  0.00  0.00    +0.012 A 
ATOM     23  C   UNL     1      -2.694  -5.540  -1.851  0.00  0.00    +0.026 A 
ATOM     24  C   UNL     1      -1.579  -4.706  -1.755  0.00  0.00    +0.057 A 
BRANCH  19  25
ATOM     25  O   UNL     1       0.218  -3.830  -0.473  0.00  0.00    -0.488 OA
BRANCH  25  26
ATOM     26  C   UNL     1       0.901  -3.807   0.782  0.00  0.00    +0.256 C 
BRANCH  26  28
ATOM     27  C   UNL     1       2.300  -2.014   1.670  0.00  0.00    +0.007 C 
ATOM     28  C   UNL     1       2.073  -2.864   0.699  0.00  0.00    +0.006 C 
ENDBRANCH  26  28
ENDBRANCH  25  26
ENDBRANCH  19  25
ENDBRANCH  17  23
ENDBRANCH   1  17
BRANCH   5  29
ATOM     29  C   UNL     1      -8.032  -7.987  -2.521  0.00  0.00    +0.111 C 
BRANCH  29  30
ATOM     30  C   UNL     1      -7.952  -8.909  -1.302  0.00  0.00    +0.047 C 
BRANCH  30  31
ATOM     31  C   UNL     1      -9.366  -9.271  -0.843  0.00  0.00    +0.157 C 
BRANCH  31  32
ATOM     32  O   UNL     1      -9.291 -10.132   0.296  0.00  0.00    -0.395 OA
ATOM     33  H   UNL     1     -10.152 -10.403   0.641  0.00  0.00    +0.209 HD
ENDBRANCH  31  32
ENDBRANCH  30  31
ENDBRANCH  29  30
ENDBRANCH   5  29
TORSDOF 11
