REMARK  Name = ZINC15957999
REMARK  6 active torsions:
REMARK  status: ('A' for Active; 'I' for Inactive)
REMARK    1  A    between atoms: C_1  and  C_2
REMARK    2  A    between atoms: C_5  and  C_8
REMARK    3  A    between atoms: N_26  and  C_29
REMARK    4  A    between atoms: C_34  and  C_35
REMARK    5  A    between atoms: N_37  and  C_38
REMARK    6  A    between atoms: C_38  and  C_39
REMARK                            x       y       z     vdW  Elec       q    Type
REMARK                         _______ _______ _______ _____ _____    ______ ____
ROOT
ATOM      1  C   UNL     1      -0.254   1.398   2.571  0.00  0.00    +0.155 C 
ATOM      2  C   UNL     1       1.257   1.524   2.535  0.00  0.00    +0.046 A 
ATOM      3  C   UNL     1       1.971   1.635   1.395  0.00  0.00    -0.015 A 
ATOM      4  C   UNL     1       3.367   1.715   1.783  0.00  0.00    +0.003 A 
ATOM      5  C   UNL     1       4.548   1.834   1.044  0.00  0.00    +0.010 A 
ATOM      6  C   UNL     1       5.722   1.884   1.754  0.00  0.00    +0.001 A 
ATOM      7  C   UNL     1       5.748   1.820   3.138  0.00  0.00    +0.002 A 
ATOM      8  C   UNL     1       4.595   1.702   3.894  0.00  0.00    +0.026 A 
ATOM      9  C   UNL     1       3.388   1.648   3.199  0.00  0.00    +0.047 A 
ATOM     10  N   UNL     1       2.094   1.534   3.618  0.00  0.00    -0.356 N 
ATOM     11  H   UNL     1       1.810   1.470   4.544  0.00  0.00    +0.166 HD
ATOM     12  C   UNL     1       1.405   1.670  -0.002  0.00  0.00    +0.069 C 
ATOM     13  C   UNL     1      -0.013   1.086   0.008  0.00  0.00    +0.170 C 
ATOM     14  N   UNL     1      -0.717   1.618   1.195  0.00  0.00    -0.260 N 
ATOM     15  C   UNL     1      -1.785   2.287   0.756  0.00  0.00    +0.317 C 
ATOM     16  O   UNL     1      -2.607   2.806   1.486  0.00  0.00    -0.252 OA
ATOM     17  N   UNL     1      -1.846   2.319  -0.582  0.00  0.00    -0.192 N 
ATOM     18  C   UNL     1      -0.800   1.642  -1.161  0.00  0.00    +0.248 C 
ATOM     19  O   UNL     1      -0.552   1.507  -2.340  0.00  0.00    -0.273 OA
ENDROOT
BRANCH   1  24
ATOM     20  C   UNL     1      -2.494   5.401   6.085  0.00  0.00    +0.044 C 
ATOM     21  C   UNL     1      -1.911   4.357   5.169  0.00  0.00    -0.050 A 
ATOM     22  C   UNL     1      -1.750   3.058   5.614  0.00  0.00    +0.004 A 
ATOM     23  C   UNL     1      -1.214   2.100   4.773  0.00  0.00    +0.006 A 
ATOM     24  C   UNL     1      -0.839   2.442   3.487  0.00  0.00    -0.021 A 
ATOM     25  C   UNL     1      -0.994   3.742   3.044  0.00  0.00    +0.006 A 
ATOM     26  C   UNL     1      -1.535   4.698   3.883  0.00  0.00    +0.004 A 
ENDBRANCH   1  24
BRANCH  17  27
ATOM     27  C   UNL     1      -2.845   2.974  -1.306  0.00  0.00    +0.058 A 
ATOM     28  C   UNL     1      -2.683   4.302  -1.674  0.00  0.00    +0.025 A 
ATOM     29  C   UNL     1      -3.672   4.947  -2.390  0.00  0.00    +0.002 A 
ATOM     30  C   UNL     1      -4.830   4.277  -2.746  0.00  0.00    +0.001 A 
ATOM     31  C   UNL     1      -5.008   2.958  -2.389  0.00  0.00    +0.015 A 
ATOM     32  C   UNL     1      -4.014   2.291  -1.669  0.00  0.00    +0.059 A 
BRANCH  32  33
ATOM     33  C   UNL     1      -4.196   0.876  -1.289  0.00  0.00    +0.246 C 
ATOM     34  O   UNL     1      -3.330   0.300  -0.659  0.00  0.00    -0.270 OA
ATOM     35  N   UNL     1      -5.321   0.223  -1.641  0.00  0.00    -0.308 N 
ATOM     36  H   UNL     1      -6.012   0.683  -2.143  0.00  0.00    +0.149 HD
BRANCH  35  37
ATOM     37  C   UNL     1      -5.501  -1.181  -1.263  0.00  0.00    +0.131 C 
BRANCH  37  38
ATOM     38  C   UNL     1      -6.832  -1.671  -1.773  0.00  0.00    -0.016 C 
ATOM     39  C   UNL     1      -6.890  -2.736  -2.534  0.00  0.00    +0.005 C 
ENDBRANCH  37  38
ENDBRANCH  35  37
ENDBRANCH  32  33
ENDBRANCH  17  27
TORSDOF 5
