REMARK  Name = ZINC36556380
REMARK  20 active torsions:
REMARK  status: ('A' for Active; 'I' for Inactive)
REMARK    1  A    between atoms: C_1  and  C_2
REMARK    2  A    between atoms: C_5  and  C_7
REMARK    3  A    between atoms: C_7  and  N_8
REMARK    4  A    between atoms: N_8  and  C_9
REMARK    5  A    between atoms: C_9  and  C_11
REMARK    6  A    between atoms: C_9  and  C_20
REMARK    7  A    between atoms: C_11  and  C_13
REMARK    8  A    between atoms: C_11  and  C_14
REMARK    9  A    between atoms: N_22  and  C_23
REMARK   10  A    between atoms: C_23  and  C_24
REMARK   11  A    between atoms: C_23  and  C_25
REMARK   12  A    between atoms: C_23  and  C_26
REMARK   13  A    between atoms: C_26  and  C_27
REMARK   14  A    between atoms: C_27  and  C_28
REMARK   15  A    between atoms: C_27  and  C_29
REMARK   16  A    between atoms: C_27  and  C_30
REMARK   17  A    between atoms: C_31  and  C_33
REMARK   18  A    between atoms: C_33  and  C_35
REMARK   19  A    between atoms: C_33  and  O_41
REMARK   20  A    between atoms: O_41  and  C_42
REMARK                            x       y       z     vdW  Elec       q    Type
REMARK                         _______ _______ _______ _____ _____    ______ ____
ROOT
ATOM      1  C   UNL     1       0.659  -2.384  -2.216  0.00  0.00    +0.169 C 
ENDROOT
BRANCH   1   2
ATOM      2  C   UNL     1       0.541  -0.933  -2.606  0.00  0.00    +0.235 C 
ATOM      3  O   UNL     1      -0.093  -0.168  -1.911  0.00  0.00    -0.274 OA
ATOM      4  N   UNL     1       1.139  -0.486  -3.728  0.00  0.00    -0.309 N 
ATOM      5  H   UNL     1       1.595  -1.109  -4.316  0.00  0.00    +0.149 HD
BRANCH   4   6
ATOM      6  C   UNL     1       1.102   0.940  -4.059  0.00  0.00    +0.030 C 
ATOM      7  C   UNL     1      -0.335   1.350  -4.389  0.00  0.00    +0.031 C 
ATOM      8  C   UNL     1       1.604   1.754  -2.865  0.00  0.00    +0.031 C 
BRANCH   6   9
ATOM      9  C   UNL     1       1.998   1.206  -5.271  0.00  0.00    +0.031 C 
BRANCH   9  10
ATOM     10  C   UNL     1       3.325   0.464  -5.096  0.00  0.00    -0.036 C 
ATOM     11  C   UNL     1       3.119  -1.025  -5.381  0.00  0.00    +0.010 C 
ATOM     12  C   UNL     1       4.359   1.032  -6.070  0.00  0.00    +0.010 C 
ATOM     13  C   UNL     1       3.825   0.644  -3.661  0.00  0.00    +0.010 C 
ENDBRANCH   9  10
ENDBRANCH   6   9
ENDBRANCH   4   6
ENDBRANCH   1   2
BRANCH   1  14
ATOM     14  N   UNL     1      -0.679  -2.966  -2.088  0.00  0.00    -0.280 N 
ATOM     15  C   UNL     1      -1.009  -4.060  -2.803  0.00  0.00    +0.250 C 
ATOM     16  O   UNL     1      -0.233  -4.507  -3.621  0.00  0.00    -0.272 OA
BRANCH  14  17
ATOM     17  C   UNL     1      -1.659  -2.359  -1.183  0.00  0.00    +0.182 C 
BRANCH  17  22
ATOM     18  C   UNL     1      -3.540   1.845  -3.238  0.00  0.00    +0.086 C 
ATOM     19  C   UNL     1      -3.373   0.397  -2.856  0.00  0.00    +0.102 A 
ATOM     20  C   UNL     1      -4.186  -0.611  -3.218  0.00  0.00    +0.045 A 
ATOM     21  C   UNL     1      -3.658  -1.790  -2.642  0.00  0.00    +0.046 A 
ATOM     22  C   UNL     1      -2.554  -1.431  -1.962  0.00  0.00    +0.122 A 
ATOM     23  O   UNL     1      -2.383  -0.106  -2.100  0.00  0.00    -0.463 OA
ENDBRANCH  17  22
ENDBRANCH  14  17
BRANCH  15  24
ATOM     24  C   UNL     1      -2.342  -4.728  -2.585  0.00  0.00    +0.233 C 
BRANCH  24  25
ATOM     25  C   UNL     1      -2.250  -5.662  -1.406  0.00  0.00    -0.010 A 
ATOM     26  C   UNL     1      -1.639  -6.894  -1.546  0.00  0.00    +0.006 A 
ATOM     27  C   UNL     1      -1.554  -7.751  -0.465  0.00  0.00    +0.000 A 
ATOM     28  C   UNL     1      -2.080  -7.375   0.757  0.00  0.00    +0.000 A 
ATOM     29  C   UNL     1      -2.690  -6.143   0.898  0.00  0.00    +0.000 A 
ATOM     30  C   UNL     1      -2.771  -5.285  -0.183  0.00  0.00    +0.006 A 
ENDBRANCH  24  25
BRANCH  24  31
ATOM     31  O   UNL     1      -2.700  -5.470  -3.753  0.00  0.00    -0.366 OA
ATOM     32  C   UNL     1      -3.451  -4.720  -4.710  0.00  0.00    +0.195 C 
ENDBRANCH  24  31
ENDBRANCH  15  24
ENDBRANCH   1  14
BRANCH   1  33
ATOM     33  C   UNL     1       1.393  -2.494  -0.878  0.00  0.00    +0.045 C 
ATOM     34  C   UNL     1       2.748  -1.791  -0.980  0.00  0.00    +0.015 C 
BRANCH  33  35
ATOM     35  C   UNL     1       1.605  -3.947  -0.539  0.00  0.00    -0.042 A 
ATOM     36  C   UNL     1       2.342  -4.754  -1.386  0.00  0.00    +0.004 A 
ATOM     37  C   UNL     1       2.536  -6.087  -1.075  0.00  0.00    +0.000 A 
ATOM     38  C   UNL     1       1.994  -6.613   0.083  0.00  0.00    +0.000 A 
ATOM     39  C   UNL     1       1.259  -5.806   0.930  0.00  0.00    +0.000 A 
ATOM     40  C   UNL     1       1.068  -4.472   0.621  0.00  0.00    +0.004 A 
ENDBRANCH  33  35
ENDBRANCH   1  33
TORSDOF 12
