REMARK  Name = ZINC59597482
REMARK  6 active torsions:
REMARK  status: ('A' for Active; 'I' for Inactive)
REMARK    1  A    between atoms: C_1  and  O_2
REMARK    2  A    between atoms: O_2  and  C_3
REMARK    3  A    between atoms: C_5  and  C_11
REMARK    4  A    between atoms: C_8  and  O_9
REMARK    5  A    between atoms: N_12  and  N_13
REMARK    6  A    between atoms: N_16  and  C_17
REMARK                            x       y       z     vdW  Elec       q    Type
REMARK                         _______ _______ _______ _____ _____    ______ ____
ROOT
ATOM      1  C   UNL     1       2.435   0.303   4.202  0.00  0.00    +0.138 C 
ATOM      2  N   UNL     1       3.035  -0.287   5.189  0.00  0.00    -0.186 NA
ENDROOT
BRANCH   1   5
ATOM      3  C   UNL     1       0.582  -0.621   1.068  0.00  0.00    +0.163 A 
ATOM      4  C   UNL     1       1.165   0.135   2.069  0.00  0.00    +0.059 A 
ATOM      5  C   UNL     1       1.812  -0.499   3.132  0.00  0.00    -0.000 A 
ATOM      6  C   UNL     1       1.867  -1.894   3.180  0.00  0.00    +0.033 A 
ATOM      7  C   UNL     1       1.284  -2.642   2.178  0.00  0.00    +0.087 A 
ATOM      8  C   UNL     1       0.636  -2.011   1.124  0.00  0.00    +0.177 A 
ATOM      9 CL   UNL     1       1.354  -4.375   2.238  0.00  0.00    -0.080 Cl
BRANCH   3  11
ATOM     10  C   UNL     1      -0.066   1.423   0.038  0.00  0.00    +0.277 C 
ATOM     11  O   UNL     1      -0.049  -0.006   0.032  0.00  0.00    -0.491 OA
ENDBRANCH   3  11
BRANCH   8  12
ATOM     12  O   UNL     1       0.059  -2.752   0.142  0.00  0.00    -0.502 OA
ATOM     13  H   UNL     1       0.649  -2.955  -0.597  0.00  0.00    +0.292 HD
ENDBRANCH   8  12
ENDBRANCH   1   5
BRANCH   2  14
ATOM     14  N   UNL     1       3.627   0.474   6.205  0.00  0.00    -0.191 N 
ATOM     15  C   UNL     1       4.251  -0.139   7.230  0.00  0.00    +0.323 C 
ATOM     16  O   UNL     1       4.765   0.522   8.112  0.00  0.00    -0.251 OA
ATOM     17  N   UNL     1       4.305  -1.485   7.278  0.00  0.00    -0.268 N 
ATOM     18  H   UNL     1       3.588   1.443   6.170  0.00  0.00    +0.179 HD
ATOM     19  H   UNL     1       3.839  -2.013   6.612  0.00  0.00    +0.156 HD
BRANCH  17  20
ATOM     20  C   UNL     1       5.035  -2.120   8.289  0.00  0.00    +0.035 A 
ATOM     21  C   UNL     1       5.715  -3.301   8.020  0.00  0.00    +0.024 A 
ATOM     22  C   UNL     1       6.434  -3.926   9.020  0.00  0.00    +0.017 A 
ATOM     23  C   UNL     1       6.478  -3.377  10.289  0.00  0.00    +0.018 A 
ATOM     24  C   UNL     1       5.801  -2.201  10.560  0.00  0.00    +0.017 A 
ATOM     25  C   UNL     1       5.085  -1.569   9.563  0.00  0.00    +0.024 A 
ATOM     26 BR   UNL     1       7.464  -4.235  11.655  0.00  0.00    -0.050 Br
ENDBRANCH  17  20
ENDBRANCH   2  14
TORSDOF 5
