REMARK  Name = ZINC04475484
REMARK  10 active torsions:
REMARK  status: ('A' for Active; 'I' for Inactive)
REMARK    1  A    between atoms: C_1  and  C_2
REMARK    2  A    between atoms: C_5  and  C_8
REMARK    3  A    between atoms: N_13  and  N_14
REMARK    4  A    between atoms: C_15  and  C_16
REMARK    5  A    between atoms: C_18  and  O_26
REMARK    6  A    between atoms: C_19  and  O_24
REMARK    7  A    between atoms: C_20  and  O_22
REMARK    8  A    between atoms: O_22  and  C_23
REMARK    9  A    between atoms: O_24  and  C_25
REMARK   10  A    between atoms: O_26  and  C_27
REMARK                            x       y       z     vdW  Elec       q    Type
REMARK                         _______ _______ _______ _____ _____    ______ ____
ROOT
ATOM      1  C   UNL     1       0.011  -0.061  -0.946  0.00  0.00    +0.055 A 
ATOM      2  C   UNL     1      -1.084  -0.630  -0.358  0.00  0.00    +0.075 A 
ATOM      3  S   UNL     1      -0.455  -2.265   0.002  0.00  0.00    -0.056 S 
ATOM      4  C   UNL     1       1.187  -2.023  -0.661  0.00  0.00    +0.192 A 
ATOM      5  N   UNL     1       1.118  -0.774  -1.087  0.00  0.00    -0.332 N 
ATOM      6  N   UNL     1       2.248  -2.910  -0.719  0.00  0.00    -0.124 NA
ATOM      7  H   UNL     1       2.002  -0.329  -1.567  0.00  0.00    +0.168 HD
ENDROOT
BRANCH   1  12
ATOM      8  C   UNL     1      -0.195   5.385  -2.809  0.00  0.00    +0.044 C 
ATOM      9  C   UNL     1      -0.141   3.959  -2.321  0.00  0.00    -0.050 A 
ATOM     10  C   UNL     1       1.021   3.224  -2.469  0.00  0.00    +0.004 A 
ATOM     11  C   UNL     1       1.076   1.919  -2.024  0.00  0.00    +0.010 A 
ATOM     12  C   UNL     1      -0.043   1.342  -1.426  0.00  0.00    -0.001 A 
ATOM     13  C   UNL     1      -1.213   2.085  -1.285  0.00  0.00    +0.010 A 
ATOM     14  C   UNL     1      -1.255   3.392  -1.729  0.00  0.00    +0.004 A 
ENDBRANCH   1  12
BRANCH   6  15
ATOM     15  N   UNL     1       2.106  -4.207  -0.208  0.00  0.00    -0.155 NA
ATOM     16  C   UNL     1       3.132  -5.000  -0.153  0.00  0.00    +0.143 C 
BRANCH  16  17
ATOM     17  C   UNL     1       4.497  -4.441  -0.163  0.00  0.00    +0.002 A 
ATOM     18  C   UNL     1       5.594  -5.278  -0.382  0.00  0.00    +0.059 A 
ATOM     19  C   UNL     1       6.873  -4.749  -0.396  0.00  0.00    +0.166 A 
ATOM     20  C   UNL     1       7.067  -3.389  -0.181  0.00  0.00    +0.204 A 
ATOM     21  C   UNL     1       5.976  -2.554   0.043  0.00  0.00    +0.166 A 
ATOM     22  C   UNL     1       4.695  -3.075   0.053  0.00  0.00    +0.059 A 
BRANCH  21  23
ATOM     23  O   UNL     1       6.171  -1.224   0.253  0.00  0.00    -0.491 OA
ATOM     24  C   UNL     1       5.007  -0.426   0.477  0.00  0.00    +0.277 C 
ENDBRANCH  21  23
BRANCH  20  25
ATOM     25  O   UNL     1       8.326  -2.873  -0.189  0.00  0.00    -0.488 OA
ATOM     26  C   UNL     1       9.021  -2.839   1.059  0.00  0.00    +0.277 C 
ENDBRANCH  20  25
BRANCH  19  27
ATOM     27  O   UNL     1       7.941  -5.562  -0.614  0.00  0.00    -0.491 OA
ATOM     28  C   UNL     1       7.669  -6.948  -0.828  0.00  0.00    +0.277 C 
ENDBRANCH  19  27
ENDBRANCH  16  17
ENDBRANCH   6  15
TORSDOF 6
