REMARK  Name = ZINC44876094
REMARK  10 active torsions:
REMARK  status: ('A' for Active; 'I' for Inactive)
REMARK    1  A    between atoms: C_1  and  C_2
REMARK    2  A    between atoms: N_5  and  C_8
REMARK    3  A    between atoms: C_8  and  C_9
REMARK    4  A    between atoms: C_12  and  C_15
REMARK    5  A    between atoms: C_15  and  N_16
REMARK    6  A    between atoms: C_17  and  C_19
REMARK    7  A    between atoms: C_19  and  N_20
REMARK    8  A    between atoms: N_20  and  C_21
REMARK    9  A    between atoms: N_20  and  S_27
REMARK   10  A    between atoms: S_27  and  C_30
REMARK                            x       y       z     vdW  Elec       q    Type
REMARK                         _______ _______ _______ _____ _____    ______ ____
ROOT
ATOM      1  N   UNL     1       1.532  -6.711   9.480  0.00  0.00    -0.310 N 
ATOM      2  C   UNL     1       2.354  -5.864  10.130  0.00  0.00    +0.232 C 
ATOM      3  O   UNL     1       2.846  -6.189  11.190  0.00  0.00    -0.274 OA
ATOM      4  H   UNL     1       1.139  -6.451   8.633  0.00  0.00    +0.149 HD
ENDROOT
BRANCH   1   5
ATOM      5  C   UNL     1       1.231  -8.025  10.055  0.00  0.00    +0.139 C 
BRANCH   5   9
ATOM      6  C   UNL     1      -1.422 -10.143   7.462  0.00  0.00    -0.064 A 
ATOM      7  C   UNL     1      -0.055 -10.267   7.303  0.00  0.00    +0.002 A 
ATOM      8  C   UNL     1       0.804  -9.581   8.142  0.00  0.00    +0.005 A 
ATOM      9  C   UNL     1       0.295  -8.771   9.140  0.00  0.00    -0.030 A 
ATOM     10  C   UNL     1      -1.073  -8.647   9.298  0.00  0.00    +0.005 A 
ATOM     11  C   UNL     1      -1.931  -9.329   8.457  0.00  0.00    +0.002 A 
BRANCH   6  12
ATOM     12  C   UNL     1      -2.358 -10.890   6.547  0.00  0.00    -0.043 C 
BRANCH  12  17
ATOM     13  C   UNL     1      -3.151  -8.597   1.386  0.00  0.00    +0.007 C 
ATOM     14  C   UNL     1      -2.795  -9.556   2.524  0.00  0.00    -0.018 C 
ATOM     15  C   UNL     1      -4.044  -9.842   3.362  0.00  0.00    -0.016 C 
ATOM     16  C   UNL     1      -3.665 -10.738   4.543  0.00  0.00    -0.078 C 
ATOM     17  N   UNL     1      -2.662 -10.060   5.373  0.00  0.00    +0.382 N 
ATOM     18  C   UNL     1      -1.435  -9.847   4.597  0.00  0.00    -0.078 C 
ATOM     19  C   UNL     1      -1.728  -8.917   3.417  0.00  0.00    -0.016 C 
ATOM     20  H   UNL     1      -3.025  -9.169   5.678  0.00  0.00    -0.081 HD
ENDBRANCH  12  17
ENDBRANCH   6  12
ENDBRANCH   5   9
ENDBRANCH   1   5
BRANCH   2  21
ATOM     21  C   UNL     1       2.663  -4.513   9.539  0.00  0.00    +0.227 C 
BRANCH  21  22
ATOM     22  N   UNL     1       3.573  -3.787  10.429  0.00  0.00    -0.194 N 
BRANCH  22  23
ATOM     23  C   UNL     1       4.952  -3.994  10.337  0.00  0.00    +0.052 A 
ATOM     24  C   UNL     1       5.632  -4.619  11.374  0.00  0.00    +0.025 A 
ATOM     25  C   UNL     1       6.995  -4.822  11.280  0.00  0.00    +0.002 A 
ATOM     26  C   UNL     1       7.682  -4.403  10.156  0.00  0.00    +0.000 A 
ATOM     27  C   UNL     1       7.008  -3.780   9.122  0.00  0.00    +0.002 A 
ATOM     28  C   UNL     1       5.644  -3.579   9.207  0.00  0.00    +0.025 A 
ENDBRANCH  22  23
BRANCH  22  29
ATOM     29  S   UNL     1       2.968  -2.722  11.543  0.00  0.00    +0.075 S 
ATOM     30  O   UNL     1       4.051  -1.894  11.944  0.00  0.00    -0.150 OA
ATOM     31  O   UNL     1       1.769  -2.195  10.991  0.00  0.00    -0.150 OA
BRANCH  29  32
ATOM     32  C   UNL     1       2.500  -3.660  12.960  0.00  0.00    +0.109 A 
ATOM     33  C   UNL     1       1.271  -4.292  12.995  0.00  0.00    +0.031 A 
ATOM     34  C   UNL     1       0.904  -5.028  14.105  0.00  0.00    +0.040 A 
ATOM     35  C   UNL     1       1.767  -5.133  15.182  0.00  0.00    +0.124 A 
ATOM     36  C   UNL     1       2.998  -4.499  15.146  0.00  0.00    +0.040 A 
ATOM     37  C   UNL     1       3.365  -3.768  14.033  0.00  0.00    +0.031 A 
ATOM     38  F   UNL     1       1.408  -5.852  16.268  0.00  0.00    -0.205 F 
ENDBRANCH  29  32
ENDBRANCH  22  29
ENDBRANCH  21  22
ENDBRANCH   2  21
TORSDOF 9
