REMARK  Name = ZINC35063027
REMARK  9 active torsions:
REMARK  status: ('A' for Active; 'I' for Inactive)
REMARK    1  A    between atoms: C_1  and  C_2
REMARK    2  A    between atoms: C_2  and  N_3
REMARK    3  A    between atoms: N_3  and  C_4
REMARK    4  A    between atoms: C_4  and  C_6
REMARK    5  A    between atoms: C_4  and  C_7
REMARK    6  A    between atoms: N_17  and  C_18
REMARK    7  A    between atoms: C_21  and  C_24
REMARK    8  A    between atoms: N_27  and  C_28
REMARK    9  A    between atoms: C_33  and  C_34
REMARK                            x       y       z     vdW  Elec       q    Type
REMARK                         _______ _______ _______ _____ _____    ______ ____
ROOT
ATOM      1  C   UNL     1       0.804  -0.779  -0.447  0.00  0.00    +0.141 C 
ATOM      2  C   UNL     1       0.833  -1.905   0.588  0.00  0.00    +0.036 C 
ENDROOT
BRANCH   1   3
ATOM      3  C   UNL     1       1.983   0.133  -0.230  0.00  0.00    +0.138 A 
ATOM      4  N   UNL     1       2.639   0.038   0.886  0.00  0.00    -0.231 NA
ATOM      5  C   UNL     1       3.711   0.827   1.151  0.00  0.00    +0.078 A 
ATOM      6  C   UNL     1       4.417   0.724   2.351  0.00  0.00    +0.028 A 
ATOM      7  C   UNL     1       5.499   1.544   2.577  0.00  0.00    +0.002 A 
ATOM      8  C   UNL     1       5.899   2.474   1.626  0.00  0.00    +0.001 A 
ATOM      9  C   UNL     1       5.218   2.594   0.435  0.00  0.00    +0.015 A 
ATOM     10  C   UNL     1       4.121   1.773   0.185  0.00  0.00    +0.065 A 
ATOM     11  C   UNL     1       3.357   1.856  -1.068  0.00  0.00    +0.266 A 
ATOM     12  O   UNL     1       3.658   2.650  -1.941  0.00  0.00    -0.267 OA
ATOM     13  N   UNL     1       2.310   1.011  -1.217  0.00  0.00    -0.263 N 
BRANCH  13  14
ATOM     14  C   UNL     1       1.552   1.046  -2.395  0.00  0.00    +0.051 A 
ATOM     15  C   UNL     1       0.736   2.136  -2.665  0.00  0.00    +0.026 A 
ATOM     16  C   UNL     1      -0.009   2.167  -3.828  0.00  0.00    +0.005 A 
ATOM     17  C   UNL     1       0.057   1.114  -4.721  0.00  0.00    -0.050 A 
ATOM     18  C   UNL     1       0.869   0.026  -4.455  0.00  0.00    +0.005 A 
ATOM     19  C   UNL     1       1.621  -0.008  -3.297  0.00  0.00    +0.026 A 
ATOM     20  C   UNL     1      -0.758   1.150  -5.988  0.00  0.00    +0.044 C 
ENDBRANCH  13  14
ENDBRANCH   1   3
BRANCH   1  21
ATOM     21  N   UNL     1      -0.438  -0.015  -0.301  0.00  0.00    -0.276 N 
ATOM     22  C   UNL     1      -1.348  -0.013  -1.296  0.00  0.00    +0.307 C 
ATOM     23  O   UNL     1      -1.138  -0.644  -2.313  0.00  0.00    -0.252 OA
ATOM     24  N   UNL     1      -2.490   0.690  -1.162  0.00  0.00    -0.269 N 
ATOM     25  H   UNL     1      -2.627   1.250  -0.382  0.00  0.00    +0.156 HD
BRANCH  24  26
ATOM     26  C   UNL     1      -3.479   0.613  -2.150  0.00  0.00    +0.046 A 
ATOM     27  C   UNL     1      -3.619  -0.544  -2.905  0.00  0.00    +0.024 A 
ATOM     28  C   UNL     1      -4.596  -0.618  -3.878  0.00  0.00    +0.002 A 
ATOM     29  C   UNL     1      -5.434   0.460  -4.101  0.00  0.00    +0.001 A 
ATOM     30  C   UNL     1      -5.296   1.613  -3.352  0.00  0.00    +0.014 A 
ATOM     31  C   UNL     1      -4.325   1.691  -2.373  0.00  0.00    +0.076 A 
BRANCH  31  32
ATOM     32  C   UNL     1      -4.180   2.946  -1.552  0.00  0.00    +0.419 C 
ATOM     33  F   UNL     1      -5.137   3.882  -1.958  0.00  0.00    -0.166 F 
ATOM     34  F   UNL     1      -4.368   2.643  -0.199  0.00  0.00    -0.166 F 
ATOM     35  F   UNL     1      -2.900   3.479  -1.736  0.00  0.00    -0.166 F 
ENDBRANCH  31  32
ENDBRANCH  24  26
BRANCH  21  37
ATOM     36  C   UNL     1      -0.262   2.200   0.720  0.00  0.00    +0.024 C 
ATOM     37  C   UNL     1      -0.691   0.746   0.925  0.00  0.00    +0.107 C 
ENDBRANCH  21  37
ENDBRANCH   1  21
TORSDOF 6
