REMARK  Name = ZINC39686172
REMARK  10 active torsions:
REMARK  status: ('A' for Active; 'I' for Inactive)
REMARK    1  A    between atoms: C_1  and  C_2
REMARK    2  A    between atoms: C_2  and  C_3
REMARK    3  A    between atoms: C_2  and  C_4
REMARK    4  A    between atoms: C_4  and  C_5
REMARK    5  A    between atoms: C_10  and  N_13
REMARK    6  A    between atoms: C_14  and  C_16
REMARK    7  A    between atoms: C_27  and  C_29
REMARK    8  A    between atoms: C_34  and  O_35
REMARK    9  A    between atoms: O_35  and  C_36
REMARK   10  A    between atoms: C_36  and  C_38
REMARK                            x       y       z     vdW  Elec       q    Type
REMARK                         _______ _______ _______ _____ _____    ______ ____
ROOT
ATOM      1  C   UNL     1      -7.529  -6.530   3.017  0.00  0.00    +0.100 C 
ATOM      2  C   UNL     1      -6.458  -6.918   4.061  0.00  0.00    +0.121 C 
ATOM      3  N   UNL     1      -6.875  -8.255   4.545  0.00  0.00    -0.296 N 
ATOM      4  C   UNL     1      -7.361  -8.952   3.331  0.00  0.00    +0.115 C 
ATOM      5  C   UNL     1      -8.118  -7.867   2.540  0.00  0.00    -0.004 C 
ATOM      6  C   UNL     1      -7.882  -8.045   1.043  0.00  0.00    -0.010 C 
ATOM      7  C   UNL     1      -8.528  -9.354   0.581  0.00  0.00    -0.082 C 
ATOM      8  N   UNL     1      -9.967  -9.320   0.869  0.00  0.00    +0.379 N 
ATOM      9  C   UNL     1     -10.186  -9.243   2.318  0.00  0.00    -0.082 C 
ATOM     10  C   UNL     1      -9.610  -7.929   2.854  0.00  0.00    -0.010 C 
ATOM     11  C   UNL     1      -6.824  -8.729   5.806  0.00  0.00    +0.250 C 
ATOM     12  O   UNL     1      -7.117  -9.887   6.032  0.00  0.00    -0.270 OA
ATOM     13  H   UNL     1     -10.379  -8.514   0.424  0.00  0.00    -0.086 HD
ATOM     14  H   UNL     1     -10.401 -10.157   0.509  0.00  0.00    -0.086 HD
ENDROOT
BRANCH  11  15
ATOM     15  C   UNL     1      -6.413  -7.843   6.912  0.00  0.00    +0.079 A 
ATOM     16  C   UNL     1      -5.439  -6.864   6.703  0.00  0.00    +0.017 A 
ATOM     17  C   UNL     1      -5.061  -6.039   7.740  0.00  0.00    +0.001 A 
ATOM     18  C   UNL     1      -5.641  -6.176   8.990  0.00  0.00    +0.004 A 
ATOM     19  C   UNL     1      -6.605  -7.140   9.210  0.00  0.00    +0.047 A 
ATOM     20  C   UNL     1      -7.002  -7.975   8.177  0.00  0.00    +0.144 A 
BRANCH  20  21
ATOM     21  O   UNL     1      -7.953  -8.919   8.390  0.00  0.00    -0.425 OA
BRANCH  21  22
ATOM     22  C   UNL     1      -9.230  -8.600   8.124  0.00  0.00    +0.309 C 
ATOM     23  O   UNL     1      -9.494  -7.533   7.622  0.00  0.00    -0.251 OA
ATOM     24  C   UNL     1     -10.334  -9.572   8.452  0.00  0.00    +0.136 C 
ENDBRANCH  21  22
ENDBRANCH  20  21
ENDBRANCH  11  15
BRANCH   1  26
ATOM     25  N   UNL     1      -7.639  -4.968   1.102  0.00  0.00    -0.312 N 
ATOM     26  C   UNL     1      -6.895  -5.794   1.864  0.00  0.00    +0.218 C 
ATOM     27  O   UNL     1      -5.717  -5.947   1.622  0.00  0.00    -0.275 OA
ATOM     28  H   UNL     1      -8.581  -4.846   1.296  0.00  0.00    +0.149 HD
BRANCH  25  34
ATOM     29  C   UNL     1      -6.916  -0.803  -2.246  0.00  0.00    +0.216 C 
ATOM     30  O   UNL     1      -6.290   0.147  -1.827  0.00  0.00    -0.276 OA
ATOM     31  N   UNL     1      -6.695  -2.032  -1.740  0.00  0.00    -0.301 N 
ATOM     32  C   UNL     1      -7.442  -3.194  -2.242  0.00  0.00    +0.109 C 
ATOM     33  C   UNL     1      -8.095  -3.910  -1.056  0.00  0.00    +0.041 C 
ATOM     34  C   UNL     1      -7.023  -4.253  -0.019  0.00  0.00    +0.076 C 
ATOM     35  C   UNL     1      -6.375  -2.964   0.493  0.00  0.00    +0.041 C 
ATOM     36  C   UNL     1      -5.699  -2.237  -0.680  0.00  0.00    +0.109 C 
BRANCH  29  37
ATOM     37  C   UNL     1      -7.942  -0.609  -3.333  0.00  0.00    +0.099 C 
BRANCH  37  39
ATOM     38  C   UNL     1      -8.944   1.048  -4.913  0.00  0.00    +0.008 C 
ATOM     39  C   UNL     1      -7.995   0.869  -3.726  0.00  0.00    -0.008 C 
ATOM     40  C   UNL     1      -8.501   1.694  -2.540  0.00  0.00    +0.008 C 
ENDBRANCH  37  39
ENDBRANCH  29  37
ENDBRANCH  25  34
ENDBRANCH   1  26
TORSDOF 7
