REMARK  Name = ZINC21342252
REMARK  10 active torsions:
REMARK  status: ('A' for Active; 'I' for Inactive)
REMARK    1  A    between atoms: C_1  and  C_2
REMARK    2  A    between atoms: C_2  and  O_3
REMARK    3  A    between atoms: O_3  and  C_4
REMARK    4  A    between atoms: C_4  and  C_6
REMARK    5  A    between atoms: C_7  and  C_13
REMARK    6  A    between atoms: C_13  and  S_14
REMARK    7  A    between atoms: S_14  and  C_15
REMARK    8  A    between atoms: C_18  and  C_27
REMARK    9  A    between atoms: N_19  and  C_20
REMARK   10  A    between atoms: C_27  and  N_28
REMARK                            x       y       z     vdW  Elec       q    Type
REMARK                         _______ _______ _______ _____ _____    ______ ____
ROOT
ATOM      1  C   UNL     1       6.022  -1.030  -1.759  0.00  0.00    +0.196 A 
ATOM      2  N   UNL     1       6.497  -1.635  -0.694  0.00  0.00    -0.122 NA
ATOM      3  N   UNL     1       7.660  -2.119  -0.948  0.00  0.00    -0.135 NA
ATOM      4  C   UNL     1       8.001  -1.846  -2.176  0.00  0.00    +0.122 A 
ATOM      5  N   UNL     1       6.970  -1.143  -2.739  0.00  0.00    -0.276 N 
ENDROOT
BRANCH   5   6
ATOM      6  C   UNL     1       6.900  -0.641  -4.047  0.00  0.00    +0.050 A 
ATOM      7  C   UNL     1       6.878  -1.514  -5.126  0.00  0.00    +0.029 A 
ATOM      8  C   UNL     1       6.804  -1.019  -6.413  0.00  0.00    +0.040 A 
ATOM      9  C   UNL     1       6.763   0.349  -6.628  0.00  0.00    +0.124 A 
ATOM     10  C   UNL     1       6.791   1.222  -5.553  0.00  0.00    +0.040 A 
ATOM     11  C   UNL     1       6.859   0.729  -4.265  0.00  0.00    +0.029 A 
ATOM     12  F   UNL     1       6.696   0.832  -7.888  0.00  0.00    -0.205 F 
ENDBRANCH   5   6
BRANCH   1  13
ATOM     13  S   UNL     1       4.463  -0.221  -1.897  0.00  0.00    -0.080 S 
BRANCH  13  14
ATOM     14  C   UNL     1       3.815  -0.501  -0.230  0.00  0.00    +0.128 C 
BRANCH  14  16
ATOM     15  C   UNL     1       1.354  -0.668  -0.125  0.00  0.00    +0.071 C 
ATOM     16  C   UNL     1       2.449   0.123  -0.111  0.00  0.00    +0.034 C 
ATOM     17  N   UNL     1       2.337   1.479   0.010  0.00  0.00    -0.272 N 
ATOM     18  C   UNL     1       1.167   2.121   0.120  0.00  0.00    +0.304 C 
ATOM     19  O   UNL     1       1.169   3.332   0.223  0.00  0.00    -0.253 OA
ATOM     20  N   UNL     1      -0.012   1.468   0.122  0.00  0.00    -0.295 N 
ATOM     21  C   UNL     1      -0.001   0.001  -0.003  0.00  0.00    +0.150 C 
ATOM     22  H   UNL     1       3.241   2.106   0.020  0.00  0.00    +0.156 HD
ATOM     23  H   UNL     1      -0.968   2.005   0.214  0.00  0.00    +0.151 HD
BRANCH  15  24
ATOM     24  C   UNL     1       1.468  -2.072  -0.250  0.00  0.00    +0.338 C 
ATOM     25  O   UNL     1       1.276  -2.604  -1.327  0.00  0.00    -0.245 OA
BRANCH  24  26
ATOM     26  O   UNL     1       1.790  -2.821   0.825  0.00  0.00    -0.462 OA
BRANCH  26  28
ATOM     27  C   UNL     1       2.258  -4.909   1.948  0.00  0.00    +0.048 C 
ATOM     28  C   UNL     1       1.887  -4.233   0.626  0.00  0.00    +0.229 C 
ENDBRANCH  26  28
ENDBRANCH  24  26
ENDBRANCH  15  24
ENDBRANCH  14  16
ENDBRANCH  13  14
ENDBRANCH   1  13
BRANCH   4  29
ATOM     29  C   UNL     1       9.292  -2.234  -2.851  0.00  0.00    -0.001 C 
BRANCH  29  30
ATOM     30  N   UNL     1      10.289  -1.174  -2.647  0.00  0.00    +0.384 N 
ATOM     31  C   UNL     1       9.889   0.063  -3.329  0.00  0.00    -0.078 C 
ATOM     32  C   UNL     1      10.871   1.182  -2.976  0.00  0.00    -0.019 C 
ATOM     33  C   UNL     1      12.282   0.771  -3.409  0.00  0.00    -0.004 C 
ATOM     34  C   UNL     1      12.655  -0.545  -2.721  0.00  0.00    -0.019 C 
ATOM     35  C   UNL     1      11.620  -1.614  -3.082  0.00  0.00    -0.078 C 
ATOM     36  H   UNL     1      10.341  -0.961  -1.569  0.00  0.00    -0.081 HD
ENDBRANCH  29  30
ENDBRANCH   4  29
TORSDOF 9
