REMARK  Name = ZINC03655506
REMARK  9 active torsions:
REMARK  status: ('A' for Active; 'I' for Inactive)
REMARK    1  A    between atoms: C_1  and  C_2
REMARK    2  A    between atoms: C_6  and  O_9
REMARK    3  A    between atoms: C_7  and  C_8
REMARK    4  A    between atoms: O_9  and  C_10
REMARK    5  A    between atoms: C_10  and  C_12
REMARK    6  A    between atoms: C_10  and  C_13
REMARK    7  A    between atoms: N_15  and  C_16
REMARK    8  A    between atoms: C_24  and  C_25
REMARK    9  A    between atoms: C_25  and  C_27
REMARK                            x       y       z     vdW  Elec       q    Type
REMARK                         _______ _______ _______ _____ _____    ______ ____
ROOT
ATOM      1  C   UNL     1       0.238   5.224   1.647  0.00  0.00    +0.091 A 
ATOM      2  C   UNL     1      -0.543   6.335   1.092  0.00  0.00    +0.042 A 
ATOM      3  C   UNL     1      -1.685   6.414   0.293  0.00  0.00    +0.013 A 
ATOM      4  C   UNL     1      -2.186   7.637  -0.054  0.00  0.00    +0.001 A 
ATOM      5  C   UNL     1      -1.570   8.800   0.386  0.00  0.00    +0.004 A 
ATOM      6  C   UNL     1      -0.445   8.743   1.180  0.00  0.00    +0.047 A 
ATOM      7  C   UNL     1       0.083   7.510   1.547  0.00  0.00    +0.138 A 
ATOM      8  O   UNL     1       1.146   7.153   2.295  0.00  0.00    -0.450 OA
ATOM      9  C   UNL     1       1.260   5.808   2.370  0.00  0.00    +0.197 A 
ENDROOT
BRANCH   1  12
ATOM     10  C   UNL     1      -1.261   3.406   1.400  0.00  0.00    +0.258 C 
ATOM     11  O   UNL     1      -2.191   4.185   1.386  0.00  0.00    -0.271 OA
ATOM     12  N   UNL     1       0.003   3.866   1.475  0.00  0.00    -0.279 N 
ATOM     13  H   UNL     1       0.749   3.249   1.409  0.00  0.00    +0.155 HD
BRANCH  10  14
ATOM     14  C   UNL     1      -1.520   1.923   1.335  0.00  0.00    +0.256 C 
ATOM     15  C   UNL     1      -0.948   1.362   0.031  0.00  0.00    +0.062 C 
BRANCH  14  16
ATOM     16  O   UNL     1      -2.928   1.682   1.379  0.00  0.00    -0.480 OA
BRANCH  16  22
ATOM     17  C   UNL     1      -6.550  -1.475   2.236  0.00  0.00    +0.044 C 
ATOM     18  C   UNL     1      -5.087  -1.114   2.249  0.00  0.00    -0.044 A 
ATOM     19  C   UNL     1      -4.155  -2.026   2.706  0.00  0.00    +0.004 A 
ATOM     20  C   UNL     1      -2.812  -1.698   2.720  0.00  0.00    +0.004 A 
ATOM     21  C   UNL     1      -2.398  -0.459   2.270  0.00  0.00    +0.046 A 
ATOM     22  C   UNL     1      -3.332   0.461   1.816  0.00  0.00    +0.125 A 
ATOM     23  C   UNL     1      -4.679   0.129   1.804  0.00  0.00    -0.006 A 
ATOM     24  C   UNL     1      -5.696   1.123   1.306  0.00  0.00    +0.048 C 
ENDBRANCH  16  22
ENDBRANCH  14  16
ENDBRANCH  10  14
ENDBRANCH   1  12
BRANCH   9  25
ATOM     25  C   UNL     1       2.267   5.109   3.078  0.00  0.00    +0.230 C 
ATOM     26  O   UNL     1       2.348   3.897   2.985  0.00  0.00    -0.283 OA
BRANCH  25  27
ATOM     27  C   UNL     1       3.221   5.850   3.932  0.00  0.00    +0.026 A 
ATOM     28  C   UNL     1       3.049   7.218   4.152  0.00  0.00    +0.013 A 
ATOM     29  C   UNL     1       3.938   7.902   4.953  0.00  0.00    +0.016 A 
ATOM     30  C   UNL     1       5.008   7.237   5.530  0.00  0.00    +0.018 A 
ATOM     31  C   UNL     1       5.187   5.882   5.311  0.00  0.00    +0.016 A 
ATOM     32  C   UNL     1       4.301   5.186   4.516  0.00  0.00    +0.013 A 
ATOM     33 BR   UNL     1       6.226   8.184   6.622  0.00  0.00    -0.050 Br
ENDBRANCH  25  27
ENDBRANCH   9  25
TORSDOF 6
