REMARK  Name = ZINC63395279
REMARK  6 active torsions:
REMARK  status: ('A' for Active; 'I' for Inactive)
REMARK    1  A    between atoms: C_1  and  O_2
REMARK    2  A    between atoms: O_2  and  C_3
REMARK    3  A    between atoms: C_6  and  C_9
REMARK    4  A    between atoms: N_10  and  N_11
REMARK    5  A    between atoms: C_12  and  C_14
REMARK    6  A    between atoms: C_16  and  C_25
REMARK                            x       y       z     vdW  Elec       q    Type
REMARK                         _______ _______ _______ _____ _____    ______ ____
ROOT
ATOM      1  C   UNL     1       3.436  -6.461  -6.591  0.00  0.00    +0.199 C 
ATOM      2  C   UNL     1       2.782  -6.360  -7.951  0.00  0.00    -0.000 C 
ATOM      3  C   UNL     1       2.810  -7.640  -8.477  0.00  0.00    +0.005 A 
ATOM      4  C   UNL     1       2.355  -8.181  -9.704  0.00  0.00    +0.025 A 
ATOM      5  C   UNL     1       2.518  -9.502  -9.958  0.00  0.00    +0.019 A 
ATOM      6  C   UNL     1       3.130 -10.358  -9.033  0.00  0.00    +0.017 A 
ATOM      7  C   UNL     1       3.589  -9.912  -7.841  0.00  0.00    +0.027 A 
ATOM      8  C   UNL     1       3.455  -8.539  -7.500  0.00  0.00    +0.044 A 
ATOM      9  N   UNL     1       3.813  -7.869  -6.426  0.00  0.00    -0.370 N 
ATOM     10 BR   UNL     1       1.904 -10.208 -11.601  0.00  0.00    -0.050 Br
ATOM     11  H   UNL     1       4.255  -8.245  -5.648  0.00  0.00    +0.161 HD
ENDROOT
BRANCH   2  12
ATOM     12  C   UNL     1       2.233  -5.157  -8.581  0.00  0.00    -0.019 A 
ATOM     13  C   UNL     1       3.031  -4.015  -8.736  0.00  0.00    +0.008 A 
ATOM     14  C   UNL     1       2.506  -2.888  -9.330  0.00  0.00    +0.001 A 
ATOM     15  C   UNL     1       1.194  -2.881  -9.773  0.00  0.00    +0.000 A 
ATOM     16  C   UNL     1       0.398  -4.005  -9.624  0.00  0.00    +0.001 A 
ATOM     17  C   UNL     1       0.907  -5.143  -9.038  0.00  0.00    +0.008 A 
ENDBRANCH   2  12
BRANCH   1  19
ATOM     18  N   UNL     1       2.377  -4.765  -5.134  0.00  0.00    -0.205 N 
ATOM     19  C   UNL     1       2.461  -6.055  -5.515  0.00  0.00    +0.259 C 
ATOM     20  O   UNL     1       1.753  -6.890  -4.992  0.00  0.00    -0.271 OA
ATOM     21  H   UNL     1       2.993  -4.111  -5.499  0.00  0.00    +0.177 HD
BRANCH  18  23
ATOM     22  C   UNL     1       1.320  -3.128  -3.844  0.00  0.00    +0.138 C 
ATOM     23  N   UNL     1       1.401  -4.370  -4.211  0.00  0.00    -0.188 NA
BRANCH  22  27
ATOM     24  C   UNL     1      -1.640  -1.929  -1.047  0.00  0.00    +0.120 A 
ATOM     25  C   UNL     1      -0.759  -0.990  -1.568  0.00  0.00    +0.046 A 
ATOM     26  C   UNL     1       0.203  -1.375  -2.476  0.00  0.00    +0.013 A 
ATOM     27  C   UNL     1       0.292  -2.712  -2.872  0.00  0.00    -0.005 A 
ATOM     28  C   UNL     1      -0.596  -3.653  -2.345  0.00  0.00    +0.013 A 
ATOM     29  C   UNL     1      -1.552  -3.260  -1.434  0.00  0.00    +0.046 A 
BRANCH  24  31
ATOM     30  C   UNL     1      -2.622  -0.162   0.203  0.00  0.00    +0.277 C 
ATOM     31  O   UNL     1      -2.587  -1.546  -0.151  0.00  0.00    -0.495 OA
ENDBRANCH  24  31
ENDBRANCH  22  27
ENDBRANCH  18  23
ENDBRANCH   1  19
TORSDOF 5
