REMARK  Name = ZINC64215316
REMARK  9 active torsions:
REMARK  status: ('A' for Active; 'I' for Inactive)
REMARK    1  A    between atoms: C_1  and  O_2
REMARK    2  A    between atoms: O_2  and  C_3
REMARK    3  A    between atoms: C_3  and  C_5
REMARK    4  A    between atoms: C_5  and  C_7
REMARK    5  A    between atoms: C_5  and  N_17
REMARK    6  A    between atoms: C_7  and  C_8
REMARK    7  A    between atoms: C_18  and  C_20
REMARK    8  A    between atoms: C_20  and  O_21
REMARK    9  A    between atoms: O_21  and  C_22
REMARK                            x       y       z     vdW  Elec       q    Type
REMARK                         _______ _______ _______ _____ _____    ______ ____
ROOT
ATOM      1  N   UNL     1       1.354  -2.503  -2.345  0.00  0.00    -0.299 N 
ATOM      2  C   UNL     1       2.700  -2.578  -2.362  0.00  0.00    +0.251 C 
ATOM      3  O   UNL     1       3.334  -2.315  -1.362  0.00  0.00    -0.272 OA
ATOM      4  H   UNL     1       0.847  -2.713  -3.145  0.00  0.00    +0.150 HD
ENDROOT
BRANCH   1   5
ATOM      5  C   UNL     1       0.657  -2.104  -1.120  0.00  0.00    +0.186 C 
BRANCH   5   6
ATOM      6  C   UNL     1       0.598  -0.600  -1.043  0.00  0.00    +0.328 C 
ATOM      7  O   UNL     1       1.088   0.070  -1.921  0.00  0.00    -0.249 OA
BRANCH   6   9
ATOM      8  C   UNL     1      -0.017   1.425   0.010  0.00  0.00    +0.280 C 
ATOM      9  O   UNL     1       0.002  -0.004   0.002  0.00  0.00    -0.467 OA
ENDBRANCH   6   9
ENDBRANCH   5   6
BRANCH   5  10
ATOM     10  C   UNL     1      -0.764  -2.670  -1.133  0.00  0.00    +0.067 C 
BRANCH  10  11
ATOM     11  C   UNL     1      -0.705  -4.175  -1.086  0.00  0.00    -0.039 C 
ATOM     12  C   UNL     1      -0.796  -4.958   0.013  0.00  0.00    -0.001 A 
ATOM     13  C   UNL     1      -0.970  -4.655   1.438  0.00  0.00    +0.010 A 
ATOM     14  C   UNL     1      -1.026  -5.676   2.324  0.00  0.00    +0.001 A 
ATOM     15  C   UNL     1      -0.923  -7.013   1.915  0.00  0.00    +0.002 A 
ATOM     16  C   UNL     1      -0.763  -7.370   0.623  0.00  0.00    +0.026 A 
ATOM     17  C   UNL     1      -0.691  -6.378  -0.393  0.00  0.00    +0.043 A 
ATOM     18  N   UNL     1      -0.540  -6.469  -1.692  0.00  0.00    -0.380 N 
ATOM     19  C   UNL     1      -0.539  -5.115  -2.259  0.00  0.00    +0.144 C 
ATOM     20  H   UNL     1      -0.449  -7.293  -2.195  0.00  0.00    +0.160 HD
ENDBRANCH  10  11
ENDBRANCH   5  10
ENDBRANCH   1   5
BRANCH   2  21
ATOM     21  C   UNL     1       3.416  -2.989  -3.622  0.00  0.00    +0.324 C 
BRANCH  21  22
ATOM     22  O   UNL     1       4.826  -2.993  -3.389  0.00  0.00    -0.483 OA
BRANCH  22  23
ATOM     23  C   UNL     1       5.623  -3.344  -4.433  0.00  0.00    +0.122 A 
ATOM     24  C   UNL     1       5.057  -3.672  -5.660  0.00  0.00    +0.049 A 
ATOM     25  C   UNL     1       5.855  -4.029  -6.726  0.00  0.00    +0.050 A 
ATOM     26  C   UNL     1       7.237  -4.065  -6.584  0.00  0.00    +0.136 A 
ATOM     27  C   UNL     1       7.807  -3.735  -5.347  0.00  0.00    +0.031 A 
ATOM     28  C   UNL     1       6.997  -3.369  -4.276  0.00  0.00    +0.058 A 
ATOM     29  C   UNL     1       9.264  -3.871  -5.529  0.00  0.00    +0.028 A 
ATOM     30  C   UNL     1      10.364  -3.690  -4.697  0.00  0.00    +0.012 A 
ATOM     31  C   UNL     1      11.635  -3.906  -5.186  0.00  0.00    +0.001 A 
ATOM     32  C   UNL     1      11.816  -4.302  -6.502  0.00  0.00    +0.004 A 
ATOM     33  C   UNL     1      10.733  -4.484  -7.335  0.00  0.00    +0.047 A 
ATOM     34  C   UNL     1       9.445  -4.272  -6.860  0.00  0.00    +0.136 A 
ATOM     35  O   UNL     1       8.231  -4.374  -7.446  0.00  0.00    -0.455 OA
ENDBRANCH  22  23
ENDBRANCH  21  22
ENDBRANCH   2  21
TORSDOF 8
