REMARK  Name = ZINC20480928
REMARK  4 active torsions:
REMARK  status: ('A' for Active; 'I' for Inactive)
REMARK    1  A    between atoms: C_3  and  C_13
REMARK    2  A    between atoms: C_6  and  C_7
REMARK    3  A    between atoms: C_13  and  C_15
REMARK    4  A    between atoms: C_13  and  N_22
REMARK                            x       y       z     vdW  Elec       q    Type
REMARK                         _______ _______ _______ _____ _____    ______ ____
ROOT
ATOM      1  C   UNL     1      -2.140  -2.025   3.472  0.00  0.00    +0.004 A 
ATOM      2  C   UNL     1      -1.640  -1.973   2.184  0.00  0.00    +0.002 A 
ATOM      3  C   UNL     1      -1.832  -0.841   1.414  0.00  0.00    -0.058 A 
ATOM      4  C   UNL     1      -2.518   0.241   1.933  0.00  0.00    +0.002 A 
ATOM      5  C   UNL     1      -3.022   0.187   3.219  0.00  0.00    +0.004 A 
ATOM      6  C   UNL     1      -2.830  -0.945   3.990  0.00  0.00    -0.044 A 
ENDROOT
BRANCH   6   7
ATOM      7  C   UNL     1      -3.374  -1.001   5.394  0.00  0.00    +0.019 C 
ATOM      8  C   UNL     1      -4.894  -0.831   5.359  0.00  0.00    +0.008 C 
ATOM      9  C   UNL     1      -5.446  -0.888   6.785  0.00  0.00    +0.001 C 
ATOM     10  C   UNL     1      -4.826   0.236   7.618  0.00  0.00    +0.000 C 
ATOM     11  C   UNL     1      -3.306   0.066   7.652  0.00  0.00    +0.001 C 
ATOM     12  C   UNL     1      -2.754   0.123   6.226  0.00  0.00    +0.008 C 
ENDBRANCH   6   7
BRANCH   3  13
ATOM     13  C   UNL     1      -1.287  -0.785   0.010  0.00  0.00    -0.012 C 
BRANCH  13  14
ATOM     14  C   UNL     1       0.002  -0.004   0.002  0.00  0.00    -0.038 A 
ATOM     15  C   UNL     1       1.222  -0.663  -0.013  0.00  0.00    +0.020 A 
ATOM     16  C   UNL     1       2.382   0.096  -0.020  0.00  0.00    +0.036 A 
ATOM     17  C   UNL     1       2.285   1.476  -0.012  0.00  0.00    +0.126 A 
ATOM     18  N   UNL     1       1.107   2.068   0.003  0.00  0.00    -0.262 NA
ATOM     19  C   UNL     1      -0.017   1.378   0.010  0.00  0.00    +0.113 A 
ATOM     20 BR   UNL     1       4.077  -0.744  -0.041  0.00  0.00    -0.049 Br
ENDBRANCH  13  14
BRANCH  13  21
ATOM     21  N   UNL     1      -2.264  -0.126  -0.868  0.00  0.00    +0.385 N 
ATOM     22  H   UNL     1      -1.866  -0.085  -1.893  0.00  0.00    -0.089 HD
ATOM     23  H   UNL     1      -2.451   0.896  -0.506  0.00  0.00    -0.089 HD
ATOM     24  H   UNL     1      -3.204  -0.696  -0.863  0.00  0.00    -0.089 HD
ENDBRANCH  13  21
ENDBRANCH   3  13
TORSDOF 4
