REMARK  Name = ZINC06844143
REMARK  9 active torsions:
REMARK  status: ('A' for Active; 'I' for Inactive)
REMARK    1  A    between atoms: C_1  and  C_2
REMARK    2  A    between atoms: C_2  and  C_3
REMARK    3  A    between atoms: C_9  and  C_24
REMARK    4  A    between atoms: C_12  and  C_14
REMARK    5  A    between atoms: C_17  and  C_20
REMARK    6  A    between atoms: C_20  and  C_21
REMARK    7  A    between atoms: C_20  and  C_22
REMARK    8  A    between atoms: C_20  and  C_23
REMARK    9  A    between atoms: C_27  and  N_30
REMARK                            x       y       z     vdW  Elec       q    Type
REMARK                         _______ _______ _______ _____ _____    ______ ____
ROOT
ATOM      1  C   UNL     1      -4.535   3.982   0.421  0.00  0.00    -0.047 A 
ATOM      2  C   UNL     1      -5.847   3.502   0.471  0.00  0.00    +0.005 A 
ATOM      3  C   UNL     1      -6.131   2.175   0.367  0.00  0.00    +0.024 A 
ATOM      4  C   UNL     1      -5.076   1.257   0.204  0.00  0.00    +0.042 A 
ATOM      5  C   UNL     1      -3.690   1.767   0.158  0.00  0.00    +0.024 A 
ATOM      6  C   UNL     1      -3.469   3.146   0.266  0.00  0.00    +0.015 A 
ATOM      7  C   UNL     1      -2.504   1.016  -0.004  0.00  0.00    +0.100 C 
ATOM      8  N   UNL     1      -2.425  -0.324  -0.135  0.00  0.00    -0.172 NA
ATOM      9  N   UNL     1      -3.366  -1.196  -0.150  0.00  0.00    -0.263 N 
ATOM     10  C   UNL     1      -4.711  -1.085  -0.043  0.00  0.00    +0.124 C 
ATOM     11  N   UNL     1      -5.478  -0.008   0.114  0.00  0.00    -0.299 N 
ATOM     12  H   UNL     1      -2.905  -2.186  -0.276  0.00  0.00    +0.190 HD
ATOM     13  H   UNL     1      -6.550  -0.250   0.168  0.00  0.00    +0.154 HD
ENDROOT
BRANCH  10  14
ATOM     14  C   UNL     1      -5.445  -2.362  -0.111  0.00  0.00    +0.015 A 
ATOM     15  C   UNL     1      -4.746  -3.573  -0.144  0.00  0.00    +0.011 A 
ATOM     16  C   UNL     1      -5.439  -4.763  -0.203  0.00  0.00    +0.005 A 
ATOM     17  C   UNL     1      -6.823  -4.762  -0.240  0.00  0.00    -0.042 A 
ATOM     18  C   UNL     1      -7.522  -3.567  -0.213  0.00  0.00    +0.005 A 
ATOM     19  C   UNL     1      -6.843  -2.369  -0.149  0.00  0.00    +0.011 A 
BRANCH  17  20
ATOM     20  C   UNL     1      -7.573  -6.067  -0.310  0.00  0.00    -0.013 C 
ATOM     21  C   UNL     1      -8.418  -6.102  -1.585  0.00  0.00    +0.015 C 
ATOM     22  C   UNL     1      -6.576  -7.228  -0.328  0.00  0.00    +0.015 C 
ATOM     23  C   UNL     1      -8.486  -6.198   0.910  0.00  0.00    +0.015 C 
ENDBRANCH  17  20
ENDBRANCH  10  14
BRANCH   7  24
ATOM     24  C   UNL     1      -1.236   1.765  -0.024  0.00  0.00    +0.003 A 
ATOM     25  C   UNL     1      -0.668   2.155  -1.243  0.00  0.00    +0.012 A 
ATOM     26  C   UNL     1       0.515   2.861  -1.252  0.00  0.00    +0.033 A 
ATOM     27  C   UNL     1       1.145   3.181  -0.061  0.00  0.00    +0.126 A 
ATOM     28  C   UNL     1       0.593   2.794   1.149  0.00  0.00    +0.033 A 
ATOM     29  C   UNL     1      -0.590   2.087   1.176  0.00  0.00    +0.012 A 
BRANCH  27  30
ATOM     30  N   UNL     1       2.416   3.940  -0.081  0.00  0.00    +0.056 N 
ATOM     31  O   UNL     1       2.944   4.310  -1.229  0.00  0.00    -0.126 OA
ATOM     32  O   UNL     1       3.017   4.247   1.050  0.00  0.00    -0.126 OA
ENDBRANCH  27  30
ENDBRANCH   7  24
BRANCH   1  34
ATOM     33  C   UNL     1      -4.106   5.831   2.017  0.00  0.00    +0.009 C 
ATOM     34  C   UNL     1      -4.292   5.464   0.543  0.00  0.00    +0.032 C 
ENDBRANCH   1  34
TORSDOF 5
