REMARK  Name = ZINC39781360
REMARK  7 active torsions:
REMARK  status: ('A' for Active; 'I' for Inactive)
REMARK    1  A    between atoms: C_4  and  C_7
REMARK    2  A    between atoms: C_10  and  C_13
REMARK    3  A    between atoms: C_13  and  S_14
REMARK    4  A    between atoms: S_14  and  C_15
REMARK    5  A    between atoms: C_19  and  C_28
REMARK    6  A    between atoms: N_20  and  C_21
REMARK    7  A    between atoms: C_21  and  C_22
REMARK                            x       y       z     vdW  Elec       q    Type
REMARK                         _______ _______ _______ _____ _____    ______ ____
ROOT
ATOM      1  C   UNL     1       5.324  -6.574  -0.824  0.00  0.00    +0.237 C 
ATOM      2  N   UNL     1       5.106  -6.375  -2.266  0.00  0.00    -0.237 N 
ATOM      3  N   UNL     1       6.352  -6.053  -2.816  0.00  0.00    -0.169 NA
ATOM      4  C   UNL     1       7.285  -6.033  -1.901  0.00  0.00    +0.147 C 
ATOM      5  N   UNL     1       6.766  -6.340  -0.637  0.00  0.00    -0.283 N 
ATOM      6  H   UNL     1       4.264  -6.452  -2.742  0.00  0.00    +0.171 HD
ENDROOT
BRANCH   4   7
ATOM      7  C   UNL     1       8.634  -5.743  -2.152  0.00  0.00    +0.022 C 
ATOM      8  C   UNL     1       9.200  -5.344  -3.364  0.00  0.00    +0.006 A 
ATOM      9  C   UNL     1       8.650  -5.116  -4.643  0.00  0.00    +0.010 A 
ATOM     10  C   UNL     1       9.457  -4.724  -5.663  0.00  0.00    +0.001 A 
ATOM     11  C   UNL     1      10.829  -4.538  -5.480  0.00  0.00    +0.002 A 
ATOM     12  C   UNL     1      11.424  -4.739  -4.278  0.00  0.00    +0.026 A 
ATOM     13  C   UNL     1      10.646  -5.150  -3.166  0.00  0.00    +0.043 A 
ATOM     14  N   UNL     1      10.978  -5.407  -1.916  0.00  0.00    -0.380 N 
ATOM     15  C   UNL     1       9.779  -5.790  -1.164  0.00  0.00    +0.152 C 
ATOM     16  H   UNL     1      11.875  -5.347  -1.550  0.00  0.00    +0.160 HD
ENDBRANCH   4   7
BRANCH   1  17
ATOM     17  S   UNL     1       4.358  -5.376   0.136  0.00  0.00    -0.114 S 
BRANCH  17  18
ATOM     18  C   UNL     1       4.909  -3.765  -0.491  0.00  0.00    +0.119 C 
BRANCH  18  22
ATOM     19  C   UNL     1       2.359  -1.360  -0.168  0.00  0.00    +0.218 C 
ATOM     20  N   UNL     1       3.332  -0.510  -0.264  0.00  0.00    -0.247 NA
ATOM     21  C   UNL     1       4.606  -1.256  -0.264  0.00  0.00    +0.190 C 
ATOM     22  C   UNL     1       4.162  -2.650   0.243  0.00  0.00    +0.206 C 
ATOM     23  O   UNL     1       2.763  -2.646  -0.099  0.00  0.00    -0.470 OA
BRANCH  19  27
ATOM     24  C   UNL     1      -1.728  -0.204  -0.059  0.00  0.00    +0.000 A 
ATOM     25  C   UNL     1      -0.743   0.760  -0.169  0.00  0.00    +0.001 A 
ATOM     26  C   UNL     1       0.587   0.391  -0.205  0.00  0.00    +0.013 A 
ATOM     27  C   UNL     1       0.935  -0.957  -0.129  0.00  0.00    +0.036 A 
ATOM     28  C   UNL     1      -0.064  -1.925  -0.018  0.00  0.00    +0.013 A 
ATOM     29  C   UNL     1      -1.389  -1.543   0.016  0.00  0.00    +0.001 A 
ENDBRANCH  19  27
ENDBRANCH  18  22
ENDBRANCH  17  18
ENDBRANCH   1  17
BRANCH   5  30
ATOM     30  C   UNL     1       7.509  -6.414   0.624  0.00  0.00    +0.140 C 
BRANCH  30  31
ATOM     31  C   UNL     1       7.638  -5.012   1.223  0.00  0.00    +0.136 C 
ATOM     32  C   UNL     1       8.533  -5.060   2.480  0.00  0.00    +0.035 C 
ATOM     33  C   UNL     1       7.811  -4.072   3.436  0.00  0.00    +0.031 C 
ATOM     34  C   UNL     1       6.331  -4.313   3.046  0.00  0.00    +0.160 C 
ATOM     35  O   UNL     1       6.348  -4.535   1.625  0.00  0.00    -0.375 OA
ENDBRANCH  30  31
ENDBRANCH   5  30
TORSDOF 7
