REMARK  Name = ZINC64360571
REMARK  5 active torsions:
REMARK  status: ('A' for Active; 'I' for Inactive)
REMARK    1  A    between atoms: C_1  and  C_2
REMARK    2  A    between atoms: C_7  and  C_13
REMARK    3  A    between atoms: C_16  and  C_22
REMARK    4  A    between atoms: C_19  and  C_21
REMARK    5  A    between atoms: C_24  and  C_34
REMARK                            x       y       z     vdW  Elec       q    Type
REMARK                         _______ _______ _______ _____ _____    ______ ____
ROOT
ATOM      1  C   UNL     1      -0.077  -6.226   1.246  0.00  0.00    +0.139 C 
ATOM      2  C   UNL     1      -1.493  -6.832   1.306  0.00  0.00    +0.083 C 
ATOM      3  C   UNL     1      -1.579  -7.672   0.051  0.00  0.00    +0.055 C 
ATOM      4  N   UNL     1      -0.490  -7.589  -0.597  0.00  0.00    -0.185 NA
ATOM      5  N   UNL     1       0.477  -6.773  -0.003  0.00  0.00    -0.186 N 
ATOM      6  C   UNL     1       1.709  -6.526  -0.491  0.00  0.00    +0.232 C 
ATOM      7  O   UNL     1       2.466  -5.796   0.114  0.00  0.00    -0.274 OA
ATOM      8  C   UNL     1       2.146  -7.157  -1.788  0.00  0.00    +0.111 C 
ENDROOT
BRANCH   1  15
ATOM      9  C   UNL     1      -0.411   1.592  -0.007  0.00  0.00    +0.044 C 
ATOM     10  C   UNL     1      -0.342   0.087  -0.003  0.00  0.00    -0.048 A 
ATOM     11  C   UNL     1      -0.283  -0.601  -1.214  0.00  0.00    +0.004 A 
ATOM     12  C   UNL     1      -0.220  -1.960  -1.243  0.00  0.00    +0.010 A 
ATOM     13  C   UNL     1      -0.213  -2.681  -0.037  0.00  0.00    +0.001 A 
ATOM     14  C   UNL     1      -0.148  -4.087  -0.025  0.00  0.00    +0.018 A 
ATOM     15  C   UNL     1      -0.145  -4.721   1.184  0.00  0.00    +0.013 A 
ATOM     16  C   UNL     1      -0.205  -3.976   2.361  0.00  0.00    +0.135 A 
ATOM     17  N   UNL     1      -0.266  -2.665   2.345  0.00  0.00    -0.235 NA
ATOM     18  C   UNL     1      -0.272  -1.984   1.195  0.00  0.00    +0.073 A 
ATOM     19  C   UNL     1      -0.332  -0.580   1.184  0.00  0.00    +0.031 A 
ATOM     20 CL   UNL     1      -0.200  -4.803   3.888  0.00  0.00    -0.062 Cl
ENDBRANCH   1  15
BRANCH   3  21
ATOM     21  C   UNL     1      -2.777  -8.485  -0.368  0.00  0.00    +0.152 C 
ATOM     22  C   UNL     1      -2.528  -8.988  -1.777  0.00  0.00    -0.014 C 
ATOM     23  C   UNL     1      -2.555 -10.372  -1.970  0.00  0.00    +0.001 A 
ATOM     24  C   UNL     1      -2.334 -10.926  -3.248  0.00  0.00    +0.010 A 
ATOM     25  C   UNL     1      -2.366 -12.277  -3.409  0.00  0.00    +0.001 A 
ATOM     26  C   UNL     1      -2.615 -13.128  -2.334  0.00  0.00    +0.002 A 
ATOM     27  C   UNL     1      -2.836 -12.653  -1.078  0.00  0.00    +0.024 A 
ATOM     28  C   UNL     1      -2.817 -11.267  -0.838  0.00  0.00    +0.041 A 
ATOM     29  N   UNL     1      -3.034 -10.802   0.397  0.00  0.00    -0.284 N 
ATOM     30  C   UNL     1      -3.032  -9.520   0.703  0.00  0.00    +0.230 C 
ATOM     31  O   UNL     1      -3.237  -9.170   1.851  0.00  0.00    -0.274 OA
ATOM     32  H   UNL     1      -3.202 -11.443   1.106  0.00  0.00    +0.155 HD
BRANCH  22  33
ATOM     33  C   UNL     1      -2.277  -8.096  -2.849  0.00  0.00    -0.020 A 
ATOM     34  C   UNL     1      -1.051  -8.138  -3.534  0.00  0.00    +0.008 A 
ATOM     35  C   UNL     1      -0.818  -7.267  -4.574  0.00  0.00    +0.001 A 
ATOM     36  C   UNL     1      -1.788  -6.349  -4.946  0.00  0.00    +0.000 A 
ATOM     37  C   UNL     1      -3.001  -6.299  -4.278  0.00  0.00    +0.001 A 
ATOM     38  C   UNL     1      -3.256  -7.166  -3.239  0.00  0.00    +0.008 A 
ENDBRANCH  22  33
ENDBRANCH   3  21
TORSDOF 3
