REMARK  Name = ZINC02378185
REMARK  7 active torsions:
REMARK  status: ('A' for Active; 'I' for Inactive)
REMARK    1  A    between atoms: C_1  and  C_2
REMARK    2  A    between atoms: C_5  and  C_8
REMARK    3  A    between atoms: C_9  and  C_19
REMARK    4  A    between atoms: N_21  and  N_22
REMARK    5  A    between atoms: C_23  and  C_24
REMARK    6  A    between atoms: C_33  and  O_34
REMARK    7  A    between atoms: O_34  and  C_35
REMARK                            x       y       z     vdW  Elec       q    Type
REMARK                         _______ _______ _______ _____ _____    ______ ____
ROOT
ATOM      1  C   UNL     1      -5.241   5.399   0.109  0.00  0.00    +0.109 A 
ATOM      2  C   UNL     1      -5.066   4.020   0.094  0.00  0.00    +0.177 A 
ATOM      3  N   UNL     1      -6.280   3.445   0.108  0.00  0.00    -0.124 NA
ATOM      4  N   UNL     1      -7.196   4.347   0.126  0.00  0.00    -0.058 NA
ATOM      5  N   UNL     1      -6.591   5.611   0.123  0.00  0.00    -0.187 N 
ATOM      6  C   UNL     1      -7.242   6.849   0.138  0.00  0.00    +0.241 A 
ATOM      7  C   UNL     1      -8.693   7.055   0.159  0.00  0.00    +0.206 A 
ATOM      8  N   UNL     1      -8.925   8.339   0.169  0.00  0.00    -0.032 NA
ATOM      9  O   UNL     1      -7.675   9.005   0.154  0.00  0.00    -0.239 OA
ATOM     10  N   UNL     1      -6.661   8.016   0.141  0.00  0.00    -0.027 NA
ATOM     11  N   UNL     1      -9.657   6.053   0.168  0.00  0.00    -0.337 N 
ATOM     12  H   UNL     1      -9.389   5.121   0.160  0.00  0.00    +0.144 HD
ATOM     13  H   UNL     1     -10.599   6.287   0.182  0.00  0.00    +0.144 HD
ENDROOT
BRANCH   1  18
ATOM     14  C   UNL     1      -1.111   9.405   0.097  0.00  0.00    +0.044 C 
ATOM     15  C   UNL     1      -2.193   8.356   0.101  0.00  0.00    -0.050 A 
ATOM     16  C   UNL     1      -2.087   7.259   0.938  0.00  0.00    +0.004 A 
ATOM     17  C   UNL     1      -3.074   6.295   0.946  0.00  0.00    +0.010 A 
ATOM     18  C   UNL     1      -4.181   6.428   0.106  0.00  0.00    +0.003 A 
ATOM     19  C   UNL     1      -4.280   7.534  -0.740  0.00  0.00    +0.010 A 
ATOM     20  C   UNL     1      -3.288   8.493  -0.734  0.00  0.00    +0.004 A 
ENDBRANCH   1  18
BRANCH   2  21
ATOM     21  C   UNL     1      -3.776   3.312   0.072  0.00  0.00    +0.286 C 
ATOM     22  O   UNL     1      -2.736   3.945   0.060  0.00  0.00    -0.267 OA
ATOM     23  N   UNL     1      -3.745   1.965   0.065  0.00  0.00    -0.202 N 
ATOM     24  H   UNL     1      -4.574   1.461   0.074  0.00  0.00    +0.178 HD
BRANCH  23  25
ATOM     25  N   UNL     1      -2.517   1.292   0.044  0.00  0.00    -0.187 NA
ATOM     26  C   UNL     1      -2.488  -0.007   0.037  0.00  0.00    +0.142 C 
BRANCH  26  27
ATOM     27  C   UNL     1      -1.199  -0.713   0.015  0.00  0.00    +0.044 A 
ATOM     28  C   UNL     1      -1.147  -2.174   0.003  0.00  0.00    -0.006 A 
ATOM     29  C   UNL     1      -2.315  -2.946   0.011  0.00  0.00    +0.009 A 
ATOM     30  C   UNL     1      -2.224  -4.306   0.005  0.00  0.00    +0.001 A 
ATOM     31  C   UNL     1      -0.984  -4.940  -0.010  0.00  0.00    +0.001 A 
ATOM     32  C   UNL     1       0.172  -4.219  -0.018  0.00  0.00    +0.008 A 
ATOM     33  C   UNL     1       0.115  -2.815  -0.012  0.00  0.00    -0.017 A 
ATOM     34  C   UNL     1       1.287  -2.038  -0.020  0.00  0.00    +0.012 A 
ATOM     35  C   UNL     1       1.221  -0.680  -0.013  0.00  0.00    +0.047 A 
ATOM     36  C   UNL     1       0.002  -0.004   0.002  0.00  0.00    +0.129 A 
BRANCH  36  37
ATOM     37  O   UNL     1      -0.016   1.353   0.009  0.00  0.00    -0.494 OA
ATOM     38  C   UNL     1       1.248   2.019   0.001  0.00  0.00    +0.277 C 
ENDBRANCH  36  37
ENDBRANCH  26  27
ENDBRANCH  23  25
ENDBRANCH   2  21
TORSDOF 5
