REMARK  Name = ZINC39448846
REMARK  6 active torsions:
REMARK  status: ('A' for Active; 'I' for Inactive)
REMARK    1  A    between atoms: C_1  and  O_2
REMARK    2  A    between atoms: O_2  and  C_3
REMARK    3  A    between atoms: C_6  and  C_9
REMARK    4  A    between atoms: C_14  and  S_16
REMARK    5  A    between atoms: S_16  and  C_17
REMARK    6  A    between atoms: C_17  and  C_18
REMARK                            x       y       z     vdW  Elec       q    Type
REMARK                         _______ _______ _______ _____ _____    ______ ____
ROOT
ATOM      1  C   UNL     1      -4.981  -2.629   0.035  0.00  0.00    +0.200 C 
ATOM      2  N   UNL     1      -5.968  -1.808   0.746  0.00  0.00    -0.336 N 
ATOM      3  C   UNL     1      -6.175  -1.982   2.024  0.00  0.00    +0.190 C 
ATOM      4  N   UNL     1      -5.537  -2.934   2.725  0.00  0.00    -0.195 NA
ATOM      5  C   UNL     1      -4.868  -3.895   2.113  0.00  0.00    +0.159 C 
ATOM      6  N   UNL     1      -4.859  -3.916   0.737  0.00  0.00    -0.300 N 
ATOM      7  N   UNL     1      -7.076  -1.162   2.674  0.00  0.00    -0.329 N 
ATOM      8  H   UNL     1      -7.544  -0.470   2.182  0.00  0.00    +0.145 HD
ATOM      9  H   UNL     1      -7.241  -1.279   3.623  0.00  0.00    +0.145 HD
ATOM     10  H   UNL     1      -4.775  -4.750   0.247  0.00  0.00    +0.150 HD
ATOM     11  H   UNL     1      -6.469  -1.132   0.264  0.00  0.00    +0.164 HD
ENDROOT
BRANCH   1  15
ATOM     12  C   UNL     1      -1.200  -0.637   0.010  0.00  0.00    +0.120 A 
ATOM     13  C   UNL     1      -2.375   0.101   0.019  0.00  0.00    +0.046 A 
ATOM     14  C   UNL     1      -3.596  -0.545   0.027  0.00  0.00    +0.011 A 
ATOM     15  C   UNL     1      -3.648  -1.927   0.026  0.00  0.00    -0.007 A 
ATOM     16  C   UNL     1      -2.479  -2.665   0.017  0.00  0.00    +0.011 A 
ATOM     17  C   UNL     1      -1.255  -2.024   0.003  0.00  0.00    +0.046 A 
BRANCH  12  19
ATOM     18  C   UNL     1      -0.017   1.425   0.010  0.00  0.00    +0.277 C 
ATOM     19  O   UNL     1       0.002  -0.004   0.002  0.00  0.00    -0.495 OA
ENDBRANCH  12  19
ENDBRANCH   1  15
BRANCH   5  20
ATOM     20  S   UNL     1      -4.005  -5.121   3.038  0.00  0.00    -0.081 S 
BRANCH  20  21
ATOM     21  C   UNL     1      -4.316  -4.667   4.766  0.00  0.00    +0.173 C 
BRANCH  21  22
ATOM     22  C   UNL     1      -3.624  -5.649   5.676  0.00  0.00    +0.234 C 
ATOM     23  O   UNL     1      -2.985  -6.566   5.205  0.00  0.00    -0.274 OA
ATOM     24  N   UNL     1      -3.716  -5.509   7.013  0.00  0.00    -0.239 N 
ATOM     25  C   UNL     1      -4.454  -4.461   7.582  0.00  0.00    +0.044 A 
ATOM     26  C   UNL     1      -5.794  -4.342   7.230  0.00  0.00    +0.024 A 
ATOM     27  C   UNL     1      -6.579  -3.353   7.785  0.00  0.00    +0.002 A 
ATOM     28  C   UNL     1      -6.017  -2.482   8.701  0.00  0.00    +0.000 A 
ATOM     29  C   UNL     1      -4.688  -2.591   9.038  0.00  0.00    +0.005 A 
ATOM     30  C   UNL     1      -3.871  -3.572   8.473  0.00  0.00    -0.025 A 
ATOM     31  C   UNL     1      -2.418  -3.499   8.883  0.00  0.00    +0.042 C 
ATOM     32  C   UNL     1      -1.544  -4.530   8.191  0.00  0.00    +0.042 C 
ATOM     33  C   UNL     1      -1.971  -5.935   8.537  0.00  0.00    -0.025 A 
ATOM     34  C   UNL     1      -3.082  -6.409   7.880  0.00  0.00    +0.044 A 
ATOM     35  C   UNL     1      -3.535  -7.701   8.086  0.00  0.00    +0.024 A 
ATOM     36  C   UNL     1      -2.861  -8.504   8.992  0.00  0.00    +0.002 A 
ATOM     37  C   UNL     1      -1.760  -8.020   9.674  0.00  0.00    +0.000 A 
ATOM     38  C   UNL     1      -1.299  -6.716   9.448  0.00  0.00    +0.005 A 
ENDBRANCH  21  22
ENDBRANCH  20  21
ENDBRANCH   5  20
TORSDOF 5
