REMARK  Name = ZINC41586326
REMARK  10 active torsions:
REMARK  status: ('A' for Active; 'I' for Inactive)
REMARK    1  A    between atoms: C_1  and  C_2
REMARK    2  A    between atoms: C_2  and  O_3
REMARK    3  A    between atoms: O_3  and  C_4
REMARK    4  A    between atoms: C_4  and  C_6
REMARK    5  A    between atoms: N_9  and  C_12
REMARK    6  A    between atoms: C_12  and  C_13
REMARK    7  A    between atoms: C_14  and  O_33
REMARK    8  A    between atoms: C_20  and  C_32
REMARK    9  A    between atoms: C_21  and  O_24
REMARK   10  A    between atoms: O_24  and  C_25
REMARK                            x       y       z     vdW  Elec       q    Type
REMARK                         _______ _______ _______ _____ _____    ______ ____
ROOT
ATOM      1  C   UNL     1      -5.959  -6.300   1.583  0.00  0.00    +0.020 A 
ATOM      2  C   UNL     1      -5.849  -7.113   0.467  0.00  0.00    +0.122 A 
ATOM      3  C   UNL     1      -5.615  -8.479   0.606  0.00  0.00    +0.046 A 
ATOM      4  C   UNL     1      -5.490  -9.037   1.847  0.00  0.00    +0.019 A 
ATOM      5  C   UNL     1      -5.598  -8.231   2.981  0.00  0.00    +0.068 A 
ATOM      6  C   UNL     1      -5.830  -6.850   2.851  0.00  0.00    +0.144 A 
ATOM      7  O   UNL     1      -5.928  -6.081   3.954  0.00  0.00    -0.456 OA
ATOM      8  C   UNL     1      -5.808  -6.581   5.191  0.00  0.00    +0.148 A 
ATOM      9  C   UNL     1      -5.581  -7.887   5.430  0.00  0.00    +0.213 A 
ATOM     10  C   UNL     1      -5.470  -8.793   4.337  0.00  0.00    +0.235 A 
ATOM     11  O   UNL     1      -5.266  -9.982   4.515  0.00  0.00    -0.283 OA
ATOM     12  C   UNL     1      -5.933  -5.643   6.364  0.00  0.00    +0.090 C 
ENDROOT
BRANCH   2  13
ATOM     13  O   UNL     1      -5.971  -6.574  -0.772  0.00  0.00    -0.506 OA
ATOM     14  H   UNL     1      -5.135  -6.270  -1.153  0.00  0.00    +0.292 HD
ENDBRANCH   2  13
BRANCH   1  15
ATOM     15  C   UNL     1      -6.213  -4.824   1.421  0.00  0.00    -0.036 C 
BRANCH  15  19
ATOM     16  C   UNL     1      -3.041  -2.337   0.038  0.00  0.00    +0.094 C 
ATOM     17  C   UNL     1      -3.839  -1.920   1.278  0.00  0.00    -0.004 C 
ATOM     18  C   UNL     1      -5.174  -2.667   1.292  0.00  0.00    -0.078 C 
ATOM     19  N   UNL     1      -4.930  -4.114   1.329  0.00  0.00    +0.383 N 
ATOM     20  C   UNL     1      -4.228  -4.532   0.110  0.00  0.00    -0.078 C 
ATOM     21  C   UNL     1      -2.856  -3.857   0.050  0.00  0.00    -0.004 C 
ATOM     22  H   UNL     1      -4.365  -4.338   2.135  0.00  0.00    -0.081 HD
BRANCH  16  23
ATOM     23  C   UNL     1      -1.692  -1.665   0.058  0.00  0.00    +0.310 C 
ATOM     24  O   UNL     1      -0.685  -2.332   0.079  0.00  0.00    -0.251 OA
BRANCH  23  25
ATOM     25  O   UNL     1      -1.609  -0.325   0.053  0.00  0.00    -0.465 OA
BRANCH  25  27
ATOM     26  C   UNL     1      -0.406   1.770   0.063  0.00  0.00    +0.048 C 
ATOM     27  C   UNL     1      -0.299   0.244   0.073  0.00  0.00    +0.229 C 
ENDBRANCH  25  27
ENDBRANCH  23  25
ENDBRANCH  16  23
ENDBRANCH  15  19
ENDBRANCH   1  15
BRANCH   9  28
ATOM     28  O   UNL     1      -5.468  -8.340   6.709  0.00  0.00    -0.448 OA
BRANCH  28  29
ATOM     29  C   UNL     1      -4.258  -8.806   7.116  0.00  0.00    +0.143 A 
ATOM     30  C   UNL     1      -3.156  -8.703   6.278  0.00  0.00    +0.047 A 
ATOM     31  C   UNL     1      -1.927  -9.177   6.695  0.00  0.00    +0.004 A 
ATOM     32  C   UNL     1      -1.793  -9.752   7.945  0.00  0.00    +0.001 A 
ATOM     33  C   UNL     1      -2.889  -9.856   8.781  0.00  0.00    +0.019 A 
ATOM     34  C   UNL     1      -4.120  -9.379   8.372  0.00  0.00    +0.060 A 
ATOM     35 BR   UNL     1      -5.617  -9.515   9.520  0.00  0.00    -0.046 Br
ENDBRANCH  28  29
ENDBRANCH   9  28
TORSDOF 8
