REMARK  Name = ZINC35484692
REMARK  14 active torsions:
REMARK  status: ('A' for Active; 'I' for Inactive)
REMARK    1  A    between atoms: C_1  and  C_2
REMARK    2  A    between atoms: C_2  and  C_3
REMARK    3  A    between atoms: C_3  and  O_4
REMARK    4  A    between atoms: O_4  and  C_5
REMARK    5  A    between atoms: C_8  and  C_14
REMARK    6  A    between atoms: C_10  and  O_11
REMARK    7  A    between atoms: O_11  and  C_12
REMARK    8  A    between atoms: C_12  and  C_13
REMARK    9  A    between atoms: C_16  and  C_17
REMARK   10  A    between atoms: C_17  and  C_18
REMARK   11  A    between atoms: C_19  and  C_28
REMARK   12  A    between atoms: C_24  and  C_27
REMARK   13  A    between atoms: N_34  and  C_35
REMARK   14  A    between atoms: C_35  and  C_36
REMARK                            x       y       z     vdW  Elec       q    Type
REMARK                         _______ _______ _______ _____ _____    ______ ____
ROOT
ATOM      1  C   UNL     1      -6.107  -4.624   0.039  0.00  0.00    +0.145 C 
ATOM      2  C   UNL     1      -6.779  -4.589  -1.313  0.00  0.00    +0.078 C 
ATOM      3  C   UNL     1      -8.013  -4.066  -1.122  0.00  0.00    +0.249 C 
ATOM      4  O   UNL     1      -8.938  -3.865  -2.090  0.00  0.00    -0.282 OA
ATOM      5  C   UNL     1      -8.190  -3.749   0.310  0.00  0.00    +0.288 C 
ATOM      6  O   UNL     1      -9.192  -3.268   0.799  0.00  0.00    -0.266 OA
ATOM      7  N   UNL     1      -7.077  -4.075   0.993  0.00  0.00    -0.276 N 
ENDROOT
BRANCH   1  11
ATOM      8  C   UNL     1      -2.575  -2.213  -0.013  0.00  0.00    +0.162 A 
ATOM      9  C   UNL     1      -3.826  -1.616  -0.049  0.00  0.00    +0.050 A 
ATOM     10  C   UNL     1      -4.965  -2.399  -0.032  0.00  0.00    +0.009 A 
ATOM     11  C   UNL     1      -4.861  -3.776   0.021  0.00  0.00    -0.019 A 
ATOM     12  C   UNL     1      -3.617  -4.378   0.058  0.00  0.00    +0.055 A 
ATOM     13  C   UNL     1      -2.470  -3.599   0.035  0.00  0.00    +0.162 A 
BRANCH   8  14
ATOM     14  O   UNL     1      -1.453  -1.445  -0.030  0.00  0.00    -0.488 OA
BRANCH  14  15
ATOM     15  C   UNL     1      -1.637  -0.028  -0.079  0.00  0.00    +0.229 C 
BRANCH  15  17
ATOM     16  C   UNL     1      -0.469   2.179  -0.144  0.00  0.00    +0.007 C 
ATOM     17  C   UNL     1      -0.272   0.663  -0.091  0.00  0.00    +0.038 C 
ENDBRANCH  15  17
ENDBRANCH  14  15
ENDBRANCH   8  14
BRANCH  13  18
ATOM     18  O   UNL     1      -1.246  -4.190   0.065  0.00  0.00    -0.489 OA
BRANCH  18  19
ATOM     19  C   UNL     1      -1.212  -5.617   0.006  0.00  0.00    +0.226 C 
ATOM     20  C   UNL     1       0.231  -6.100   0.167  0.00  0.00    +0.048 C 
ENDBRANCH  18  19
ENDBRANCH  13  18
ENDBRANCH   1  11
BRANCH   2  21
ATOM     21  C   UNL     1      -6.206  -5.036  -2.587  0.00  0.00    +0.215 C 
ATOM     22  O   UNL     1      -5.151  -5.642  -2.600  0.00  0.00    -0.285 OA
BRANCH  21  23
ATOM     23  C   UNL     1      -6.909  -4.750  -3.853  0.00  0.00    +0.133 A 
ATOM     24  C   UNL     1      -6.562  -5.227  -5.098  0.00  0.00    +0.051 A 
ATOM     25  N   UNL     1      -7.468  -4.725  -5.981  0.00  0.00    -0.303 N 
ATOM     26  C   UNL     1      -7.608  -4.866  -7.334  0.00  0.00    +0.093 A 
ATOM     27  C   UNL     1      -8.613  -4.251  -7.990  0.00  0.00    +0.018 A 
ATOM     28  C   UNL     1      -9.534  -3.453  -7.289  0.00  0.00    +0.008 A 
ATOM     29  C   UNL     1      -9.409  -3.303  -5.944  0.00  0.00    -0.008 A 
ATOM     30  C   UNL     1      -8.352  -3.953  -5.269  0.00  0.00    +0.141 A 
ATOM     31  N   UNL     1      -8.005  -3.982  -3.993  0.00  0.00    -0.224 NA
ATOM     32  C   UNL     1     -10.389  -2.451  -5.180  0.00  0.00    +0.047 C 
ATOM     33  C   UNL     1      -5.400  -6.131  -5.420  0.00  0.00    +0.066 C 
ENDBRANCH  21  23
ENDBRANCH   2  21
BRANCH   7  34
ATOM     34  C   UNL     1      -6.871  -3.909   2.434  0.00  0.00    +0.183 C 
BRANCH  34  35
ATOM     35  C   UNL     1      -6.282  -2.548   2.704  0.00  0.00    +0.122 A 
ATOM     36  C   UNL     1      -6.979  -1.423   2.946  0.00  0.00    +0.046 A 
ATOM     37  C   UNL     1      -6.034  -0.391   3.143  0.00  0.00    +0.041 A 
ATOM     38  C   UNL     1      -4.816  -0.946   3.010  0.00  0.00    +0.195 A 
ATOM     39  O   UNL     1      -4.973  -2.254   2.749  0.00  0.00    -0.466 OA
ENDBRANCH  34  35
ENDBRANCH   7  34
TORSDOF 10
