REMARK  Name = ZINC63414972
REMARK  5 active torsions:
REMARK  status: ('A' for Active; 'I' for Inactive)
REMARK    1  A    between atoms: C_1  and  C_2
REMARK    2  A    between atoms: C_9  and  S_11
REMARK    3  A    between atoms: S_11  and  C_12
REMARK    4  A    between atoms: C_12  and  C_13
REMARK    5  A    between atoms: C_13  and  C_14
REMARK                            x       y       z     vdW  Elec       q    Type
REMARK                         _______ _______ _______ _____ _____    ______ ____
ROOT
ATOM      1  C   UNL     1       0.105  -7.035   1.047  0.00  0.00    +0.085 C 
ENDROOT
BRANCH   1   2
ATOM      2  S   UNL     1       0.096  -5.820   2.394  0.00  0.00    -0.087 S 
BRANCH   2  11
ATOM      3  C   UNL     1      -0.018   1.503   0.010  0.00  0.00    +0.044 C 
ATOM      4  C   UNL     1       0.002  -0.004   0.002  0.00  0.00    -0.048 A 
ATOM      5  C   UNL     1       0.006  -0.686  -1.206  0.00  0.00    +0.005 A 
ATOM      6  C   UNL     1       0.024  -2.063  -1.230  0.00  0.00    +0.030 A 
ATOM      7  C   UNL     1       0.040  -2.778  -0.030  0.00  0.00    +0.090 A 
ATOM      8  C   UNL     1       0.037  -2.082   1.190  0.00  0.00    +0.067 A 
ATOM      9  C   UNL     1       0.023  -0.696   1.196  0.00  0.00    +0.031 A 
ATOM     10  N   UNL     1       0.055  -3.047   2.184  0.00  0.00    -0.333 N 
ATOM     11  C   UNL     1       0.069  -4.265   1.566  0.00  0.00    +0.167 A 
ATOM     12  N   UNL     1       0.060  -4.104   0.266  0.00  0.00    -0.222 NA
ATOM     13  H   UNL     1       0.058  -2.887   3.141  0.00  0.00    +0.168 HD
ENDBRANCH   2  11
ENDBRANCH   1   2
BRANCH   1  14
ATOM     14  C   UNL     1       0.129  -8.447   1.634  0.00  0.00    +0.085 C 
BRANCH  14  15
ATOM     15  C   UNL     1       0.137  -9.456   0.514  0.00  0.00    +0.111 A 
ATOM     16  N   UNL     1       0.152 -10.776   0.836  0.00  0.00    -0.310 N 
ATOM     17  H   UNL     1       0.157 -11.043   1.769  0.00  0.00    +0.170 HD
ATOM     18  C   UNL     1       0.159 -11.722  -0.132  0.00  0.00    +0.259 A 
ATOM     19  O   UNL     1       0.171 -12.908   0.142  0.00  0.00    -0.267 OA
ATOM     20  C   UNL     1       0.150 -11.261  -1.528  0.00  0.00    +0.065 A 
ATOM     21  C   UNL     1       0.157 -12.152  -2.599  0.00  0.00    +0.015 A 
ATOM     22  C   UNL     1       0.148 -11.665  -3.888  0.00  0.00    +0.001 A 
ATOM     23  C   UNL     1       0.134 -10.297  -4.126  0.00  0.00    +0.002 A 
ATOM     24  C   UNL     1       0.127  -9.400  -3.082  0.00  0.00    +0.028 A 
ATOM     25  C   UNL     1       0.135  -9.868  -1.767  0.00  0.00    +0.078 A 
ATOM     26  N   UNL     1       0.123  -9.020  -0.709  0.00  0.00    -0.234 NA
ENDBRANCH  14  15
ENDBRANCH   1  14
TORSDOF 4
