REMARK  Name = ZINC13033859
REMARK  9 active torsions:
REMARK  status: ('A' for Active; 'I' for Inactive)
REMARK    1  A    between atoms: C_1  and  C_2
REMARK    2  A    between atoms: C_5  and  C_8
REMARK    3  A    between atoms: C_8  and  N_66
REMARK    4  A    between atoms: C_9  and  C_10
REMARK    5  A    between atoms: C_9  and  N_66
REMARK    6  A    between atoms: C_26  and  C_27
REMARK    7  A    between atoms: C_26  and  N_66
REMARK    8  A    between atoms: N_31  and  C_32
REMARK    9  A    between atoms: C_32  and  C_33
REMARK                            x       y       z     vdW  Elec       q    Type
REMARK                         _______ _______ _______ _____ _____    ______ ____
ROOT
ATOM      1  N   UNL     1      -0.112  -0.864   2.029  0.00  0.00    +0.390 N 
ATOM      2  H   UNL     1       0.128   0.106   1.793  0.00  0.00    -0.080 HD
ENDROOT
BRANCH   1   3
ATOM      3  C   UNL     1       0.159  -1.090   3.464  0.00  0.00    -0.042 C 
BRANCH   3   8
ATOM      4  C   UNL     1       5.429   0.931   4.704  0.00  0.00    +0.044 C 
ATOM      5  C   UNL     1       4.054   0.404   4.381  0.00  0.00    -0.050 A 
ATOM      6  C   UNL     1       2.973   1.265   4.351  0.00  0.00    +0.003 A 
ATOM      7  C   UNL     1       1.713   0.781   4.054  0.00  0.00    +0.002 A 
ATOM      8  C   UNL     1       1.533  -0.563   3.787  0.00  0.00    -0.064 A 
ATOM      9  C   UNL     1       2.614  -1.425   3.822  0.00  0.00    +0.002 A 
ATOM     10  C   UNL     1       3.875  -0.940   4.114  0.00  0.00    +0.003 A 
ENDBRANCH   3   8
ENDBRANCH   1   3
BRANCH   1  11
ATOM     11  C   UNL     1       0.715  -1.775   1.209  0.00  0.00    -0.036 C 
BRANCH  11  12
ATOM     12  C   UNL     1       0.785  -1.232  -0.195  0.00  0.00    +0.001 A 
ATOM     13  C   UNL     1       1.808  -0.414  -0.553  0.00  0.00    +0.017 A 
ATOM     14  C   UNL     1       1.851   0.092  -1.924  0.00  0.00    +0.002 A 
ATOM     15  C   UNL     1       2.885   0.935  -2.351  0.00  0.00    +0.059 A 
ATOM     16  C   UNL     1       2.896   1.401  -3.649  0.00  0.00    +0.163 A 
ATOM     17  C   UNL     1       1.881   1.035  -4.537  0.00  0.00    +0.164 A 
ATOM     18  C   UNL     1       0.855   0.202  -4.124  0.00  0.00    +0.075 A 
ATOM     19  C   UNL     1       0.829  -0.275  -2.820  0.00  0.00    +0.053 A 
ATOM     20  N   UNL     1      -0.187  -1.105  -2.390  0.00  0.00    -0.322 N 
ATOM     21  H   UNL     1      -0.892  -1.357  -3.008  0.00  0.00    +0.169 HD
ATOM     22  C   UNL     1      -0.214  -1.569  -1.129  0.00  0.00    +0.251 A 
ATOM     23  O   UNL     1      -1.127  -2.300  -0.784  0.00  0.00    -0.268 OA
ATOM     24  O   UNL     1       1.887   1.487  -5.820  0.00  0.00    -0.485 OA
ATOM     25  C   UNL     1       2.720   2.617  -6.101  0.00  0.00    +0.270 C 
ATOM     26  C   UNL     1       4.093   2.374  -5.459  0.00  0.00    +0.270 C 
ATOM     27  O   UNL     1       3.907   2.223  -4.048  0.00  0.00    -0.485 OA
ENDBRANCH  11  12
ENDBRANCH   1  11
BRANCH   1  28
ATOM     28  C   UNL     1      -1.544  -1.088   1.744  0.00  0.00    +0.001 C 
BRANCH  28  29
ATOM     29  C   UNL     1      -2.353  -0.032   2.451  0.00  0.00    +0.135 A 
ATOM     30  N   UNL     1      -2.792  -0.079   3.685  0.00  0.00    -0.115 NA
ATOM     31  N   UNL     1      -3.444   1.009   3.917  0.00  0.00    -0.023 NA
ATOM     32  N   UNL     1      -3.426   1.750   2.865  0.00  0.00    -0.044 NA
ATOM     33  N   UNL     1      -2.760   1.145   1.940  0.00  0.00    -0.227 N 
BRANCH  33  34
ATOM     34  C   UNL     1      -2.502   1.642   0.587  0.00  0.00    +0.182 C 
BRANCH  34  35
ATOM     35  C   UNL     1      -1.329   2.588   0.614  0.00  0.00    -0.026 A 
ATOM     36  C   UNL     1      -0.041   2.093   0.546  0.00  0.00    +0.005 A 
ATOM     37  C   UNL     1       1.035   2.961   0.565  0.00  0.00    +0.000 A 
ATOM     38  C   UNL     1       0.822   4.324   0.659  0.00  0.00    +0.000 A 
ATOM     39  C   UNL     1      -0.467   4.819   0.733  0.00  0.00    +0.000 A 
ATOM     40  C   UNL     1      -1.542   3.950   0.713  0.00  0.00    +0.005 A 
ENDBRANCH  34  35
ENDBRANCH  33  34
ENDBRANCH  28  29
ENDBRANCH   1  28
TORSDOF 8
