REMARK  Name = ZINC12791468
REMARK  14 active torsions:
REMARK  status: ('A' for Active; 'I' for Inactive)
REMARK    1  A    between atoms: C_1  and  C_2
REMARK    2  A    between atoms: C_2  and  C_3
REMARK    3  A    between atoms: C_3  and  C_4
REMARK    4  A    between atoms: C_4  and  N_5
REMARK    5  A    between atoms: C_6  and  C_21
REMARK    6  A    between atoms: N_16  and  C_17
REMARK    7  A    between atoms: C_17  and  C_18
REMARK    8  A    between atoms: C_18  and  C_19
REMARK    9  A    between atoms: C_19  and  C_20
REMARK   10  A    between atoms: C_21  and  C_22
REMARK   11  A    between atoms: C_22  and  C_23
REMARK   12  A    between atoms: N_25  and  C_26
REMARK   13  A    between atoms: N_25  and  C_27
REMARK   14  A    between atoms: C_27  and  C_28
REMARK                            x       y       z     vdW  Elec       q    Type
REMARK                         _______ _______ _______ _____ _____    ______ ____
ROOT
ATOM      1  N   UNL     1       7.987  -5.022  -2.441  0.00  0.00    -0.322 N 
ATOM      2  C   UNL     1       8.308  -4.769  -1.157  0.00  0.00    +0.113 A 
ATOM      3  N   UNL     1       9.590  -4.957  -0.978  0.00  0.00    -0.214 NA
ATOM      4  C   UNL     1      10.158  -5.332  -2.127  0.00  0.00    +0.168 A 
ATOM      5  C   UNL     1       9.153  -5.379  -3.086  0.00  0.00    +0.151 A 
ATOM      6  C   UNL     1       9.481  -5.753  -4.407  0.00  0.00    +0.280 A 
ATOM      7  O   UNL     1       8.618  -5.801  -5.265  0.00  0.00    -0.265 OA
ATOM      8  N   UNL     1      10.761  -6.055  -4.708  0.00  0.00    -0.273 N 
ATOM      9  H   UNL     1      10.998  -6.321  -5.643  0.00  0.00    +0.173 HD
ATOM     10  C   UNL     1      11.723  -6.005  -3.770  0.00  0.00    +0.331 A 
ATOM     11  O   UNL     1      12.866  -6.284  -4.078  0.00  0.00    -0.246 OA
ATOM     12  N   UNL     1      11.453  -5.654  -2.499  0.00  0.00    -0.277 N 
ENDROOT
BRANCH   1  13
ATOM     13  C   UNL     1       6.652  -4.932  -3.039  0.00  0.00    +0.124 C 
BRANCH  13  14
ATOM     14  C   UNL     1       6.431  -3.518  -3.581  0.00  0.00    +0.021 C 
BRANCH  14  16
ATOM     15  C   UNL     1       4.816  -2.011  -4.748  0.00  0.00    +0.004 C 
ATOM     16  C   UNL     1       5.037  -3.424  -4.206  0.00  0.00    -0.002 C 
ENDBRANCH  14  16
ENDBRANCH  13  14
ENDBRANCH   1  13
BRANCH  12  17
ATOM     17  C   UNL     1      12.530  -5.612  -1.507  0.00  0.00    +0.128 C 
BRANCH  17  18
ATOM     18  C   UNL     1      12.657  -6.979  -0.833  0.00  0.00    +0.021 C 
BRANCH  18  19
ATOM     19  C   UNL     1      13.782  -6.936   0.203  0.00  0.00    -0.002 C 
ATOM     20  C   UNL     1      13.908  -8.303   0.877  0.00  0.00    +0.004 C 
ENDBRANCH  18  19
ENDBRANCH  17  18
ENDBRANCH  12  17
BRANCH   2  21
ATOM     21  C   UNL     1       7.336  -4.340  -0.088  0.00  0.00    +0.083 C 
BRANCH  21  22
ATOM     22  C   UNL     1       7.256  -2.812  -0.055  0.00  0.00    +0.103 C 
BRANCH  22  23
ATOM     23  C   UNL     1       6.284  -2.383   1.014  0.00  0.00    +0.216 C 
ATOM     24  O   UNL     1       5.713  -3.217   1.684  0.00  0.00    -0.276 OA
ATOM     25  N   UNL     1       6.051  -1.073   1.226  0.00  0.00    -0.300 N 
ATOM     26  C   UNL     1       6.742  -0.065   0.417  0.00  0.00    +0.132 C 
BRANCH  25  27
ATOM     27  C   UNL     1       5.107  -0.655   2.265  0.00  0.00    +0.142 C 
BRANCH  27  28
ATOM     28  C   UNL     1       3.725  -0.548   1.674  0.00  0.00    -0.026 A 
ATOM     29  C   UNL     1       2.885  -1.646   1.677  0.00  0.00    +0.009 A 
ATOM     30  C   UNL     1       1.617  -1.553   1.135  0.00  0.00    +0.050 A 
ATOM     31  C   UNL     1       1.183  -0.356   0.589  0.00  0.00    +0.166 A 
ATOM     32  C   UNL     1       2.028   0.751   0.586  0.00  0.00    +0.167 A 
ATOM     33  C   UNL     1       3.298   0.650   1.131  0.00  0.00    +0.054 A 
ATOM     34  O   UNL     1       1.376   1.797  -0.001  0.00  0.00    -0.453 OA
ATOM     35  C   UNL     1      -0.018   1.436   0.010  0.00  0.00    +0.466 C 
ATOM     36  O   UNL     1       0.002  -0.004   0.002  0.00  0.00    -0.453 OA
ENDBRANCH  27  28
ENDBRANCH  25  27
ENDBRANCH  22  23
ENDBRANCH  21  22
ENDBRANCH   2  21
TORSDOF 11
