REMARK  Name = ZINC62430619
REMARK  6 active torsions:
REMARK  status: ('A' for Active; 'I' for Inactive)
REMARK    1  A    between atoms: C_1  and  C_2
REMARK    2  A    between atoms: C_2  and  C_3
REMARK    3  A    between atoms: C_2  and  C_4
REMARK    4  A    between atoms: C_2  and  C_5
REMARK    5  A    between atoms: N_13  and  C_14
REMARK    6  A    between atoms: C_17  and  N_20
REMARK                            x       y       z     vdW  Elec       q    Type
REMARK                         _______ _______ _______ _____ _____    ______ ____
ROOT
ATOM      1  C   UNL     1       0.864  -0.694  -1.012  0.00  0.00    +0.001 C 
ATOM      2  C   UNL     1       0.993  -2.220  -1.030  0.00  0.00    +0.010 C 
ATOM      3  C   UNL     1       1.386  -2.685  -2.438  0.00  0.00    +0.058 C 
ATOM      4  C   UNL     1       2.562  -1.865  -2.896  0.00  0.00    +0.068 A 
ATOM      5  C   UNL     1       2.951  -0.698  -2.324  0.00  0.00    +0.087 A 
ATOM      6  N   UNL     1       4.018  -0.279  -2.996  0.00  0.00    -0.134 NA
ATOM      7  N   UNL     1       4.279  -1.128  -3.932  0.00  0.00    -0.060 NA
ATOM      8  N   UNL     1       3.427  -2.098  -3.908  0.00  0.00    -0.217 N 
ATOM      9  C   UNL     1       2.253  -0.059  -1.152  0.00  0.00    +0.063 C 
ENDROOT
BRANCH   8  10
ATOM     10  C   UNL     1       3.404  -3.199  -4.778  0.00  0.00    +0.067 A 
ATOM     11  C   UNL     1       2.196  -3.656  -5.286  0.00  0.00    +0.029 A 
ATOM     12  C   UNL     1       2.172  -4.739  -6.142  0.00  0.00    +0.025 A 
ATOM     13  C   UNL     1       3.358  -5.371  -6.495  0.00  0.00    +0.025 A 
ATOM     14  C   UNL     1       4.567  -4.912  -5.987  0.00  0.00    +0.025 A 
ATOM     15  C   UNL     1       4.590  -3.826  -5.135  0.00  0.00    +0.029 A 
BRANCH  13  16
ATOM     16  N   UNL     1       3.335  -6.468  -7.361  0.00  0.00    -0.358 N 
ATOM     17  H   UNL     1       2.490  -6.788  -7.716  0.00  0.00    +0.142 HD
ATOM     18  H   UNL     1       4.163  -6.909  -7.608  0.00  0.00    +0.142 HD
ENDBRANCH  13  16
ENDBRANCH   8  10
BRANCH   1  20
ATOM     19  C   UNL     1       0.102   1.272   0.328  0.00  0.00    +0.011 C 
ATOM     20  C   UNL     1       0.232  -0.252   0.310  0.00  0.00    -0.035 C 
ATOM     21  C   UNL     1       1.117  -0.702   1.474  0.00  0.00    +0.011 C 
ATOM     22  C   UNL     1      -1.154  -0.884   0.449  0.00  0.00    +0.011 C 
ENDBRANCH   1  20
TORSDOF 3
