REMARK  Name = ZINC59331665
REMARK  11 active torsions:
REMARK  status: ('A' for Active; 'I' for Inactive)
REMARK    1  A    between atoms: C_1  and  C_2
REMARK    2  A    between atoms: C_2  and  C_3
REMARK    3  A    between atoms: C_2  and  C_4
REMARK    4  A    between atoms: C_2  and  C_5
REMARK    5  A    between atoms: C_12  and  N_16
REMARK    6  A    between atoms: C_13  and  C_14
REMARK    7  A    between atoms: N_16  and  C_17
REMARK    8  A    between atoms: C_17  and  N_19
REMARK    9  A    between atoms: C_20  and  C_22
REMARK   10  A    between atoms: C_25  and  N_31
REMARK   11  A    between atoms: C_26  and  N_28
REMARK                            x       y       z     vdW  Elec       q    Type
REMARK                         _______ _______ _______ _____ _____    ______ ____
ROOT
ATOM      1  C   UNL     1       6.538  -0.414  -5.389  0.00  0.00    +0.141 C 
ATOM      2  S   UNL     1       6.945  -0.016  -3.774  0.00  0.00    -0.018 S 
ENDROOT
BRANCH   1   3
ATOM      3  N   UNL     1       7.505  -0.519  -6.321  0.00  0.00    -0.264 N 
ATOM      4  C   UNL     1       8.793  -0.312  -5.982  0.00  0.00    +0.250 C 
ATOM      5  O   UNL     1       9.082  -0.030  -4.836  0.00  0.00    -0.270 OA
ATOM      6  H   UNL     1       7.275  -0.745  -7.236  0.00  0.00    +0.157 HD
BRANCH   4   7
ATOM      7  C   UNL     1       9.852  -0.428  -7.002  0.00  0.00    +0.039 A 
ATOM      8  C   UNL     1       9.520  -0.747  -8.323  0.00  0.00    +0.015 A 
ATOM      9  C   UNL     1      10.501  -0.854  -9.267  0.00  0.00    +0.026 A 
ATOM     10  C   UNL     1      11.833  -0.646  -8.920  0.00  0.00    +0.060 A 
ATOM     11  C   UNL     1      12.172  -0.327  -7.608  0.00  0.00    +0.148 A 
ATOM     12  C   UNL     1      11.188  -0.213  -6.652  0.00  0.00    +0.047 A 
BRANCH  10  13
ATOM     13  N   UNL     1      12.827  -0.757  -9.886  0.00  0.00    -0.328 N 
ATOM     14  C   UNL     1      13.481  -2.047 -10.143  0.00  0.00    +0.105 C 
ATOM     15  C   UNL     1      13.379  -2.362 -11.639  0.00  0.00    +0.019 C 
ATOM     16  C   UNL     1      13.956  -1.195 -12.442  0.00  0.00    +0.003 C 
ATOM     17  C   UNL     1      13.145   0.072 -12.159  0.00  0.00    +0.019 C 
ATOM     18  C   UNL     1      13.240   0.413 -10.674  0.00  0.00    +0.105 C 
ENDBRANCH  10  13
BRANCH  11  19
ATOM     19  N   UNL     1      13.590  -0.107  -7.242  0.00  0.00    +0.058 N 
ATOM     20  O   UNL     1      13.883   0.170  -6.102  0.00  0.00    -0.126 OA
ATOM     21  O   UNL     1      14.453  -0.204  -8.082  0.00  0.00    -0.126 OA
ENDBRANCH  11  19
ENDBRANCH   4   7
ENDBRANCH   1   3
BRANCH   1  22
ATOM     22  N   UNL     1       5.250  -0.621  -5.728  0.00  0.00    -0.290 N 
ATOM     23  H   UNL     1       5.019  -0.846  -6.643  0.00  0.00    +0.154 HD
BRANCH  22  30
ATOM     24  C   UNL     1       0.718  -0.497  -1.257  0.00  0.00    -0.000 C 
ATOM     25  C   UNL     1      -0.017   0.013  -2.499  0.00  0.00    +0.009 C 
ATOM     26  C   UNL     1       0.537  -0.670  -3.751  0.00  0.00    +0.037 C 
ATOM     27  C   UNL     1       2.051  -0.516  -3.760  0.00  0.00    -0.018 A 
ATOM     28  C   UNL     1       2.731  -0.199  -2.636  0.00  0.00    -0.004 A 
ATOM     29  S   UNL     1       4.425  -0.135  -3.141  0.00  0.00    -0.077 S 
ATOM     30  C   UNL     1       4.254  -0.512  -4.768  0.00  0.00    +0.089 A 
ATOM     31  C   UNL     1       2.890  -0.689  -4.933  0.00  0.00    +0.084 A 
ATOM     32  C   UNL     1       2.158   0.038  -1.273  0.00  0.00    +0.047 C 
BRANCH  24  34
ATOM     33  C   UNL     1      -0.019   1.526   0.010  0.00  0.00    +0.011 C 
ATOM     34  C   UNL     1       0.002  -0.004   0.002  0.00  0.00    -0.035 C 
ATOM     35  C   UNL     1       0.742  -0.511   1.242  0.00  0.00    +0.011 C 
ATOM     36  C   UNL     1      -1.433  -0.534   0.013  0.00  0.00    +0.011 C 
ENDBRANCH  24  34
BRANCH  31  37
ATOM     37  C   UNL     1       2.330  -1.028  -6.206  0.00  0.00    +0.102 C 
ATOM     38  N   UNL     1       1.886  -1.297  -7.217  0.00  0.00    -0.191 NA
ENDBRANCH  31  37
ENDBRANCH  22  30
ENDBRANCH   1  22
TORSDOF 8
