REMARK  Name = ZINC04450711
REMARK  3 active torsions:
REMARK  status: ('A' for Active; 'I' for Inactive)
REMARK    1  A    between atoms: C_13  and  C_18
REMARK    2  A    between atoms: C_18  and  N_57
REMARK    3  A    between atoms: N_21  and  C_24
REMARK                            x       y       z     vdW  Elec       q    Type
REMARK                         _______ _______ _______ _____ _____    ______ ____
ROOT
ATOM      1  C   UNL     1      -0.009  -2.700   0.099  0.00  0.00    +0.000 A 
ATOM      2  C   UNL     1      -1.169  -2.002   0.380  0.00  0.00    +0.002 A 
ATOM      3  C   UNL     1      -1.166  -0.623   0.350  0.00  0.00    +0.024 A 
ATOM      4  C   UNL     1       0.002   0.065   0.038  0.00  0.00    +0.040 A 
ATOM      5  C   UNL     1       1.165  -0.635  -0.240  0.00  0.00    -0.026 A 
ATOM      6  C   UNL     1       1.153  -2.020  -0.209  0.00  0.00    +0.005 A 
ATOM      7  C   UNL     1       2.449   0.075  -0.577  0.00  0.00    +0.038 C 
ATOM      8  C   UNL     1       2.165   1.500  -1.050  0.00  0.00    +0.024 C 
ATOM      9  C   UNL     1       1.258   2.192  -0.024  0.00  0.00    +0.114 C 
ATOM     10  N   UNL     1      -0.018   1.465   0.010  0.00  0.00    -0.269 N 
ATOM     11  C   UNL     1      -1.217   2.151   0.019  0.00  0.00    +0.227 A 
ATOM     12  N   UNL     1      -1.225   3.478   0.133  0.00  0.00    -0.201 NA
ATOM     13  C   UNL     1      -2.371   4.135   0.136  0.00  0.00    +0.120 A 
ATOM     14  N   UNL     1      -3.514   3.478   0.039  0.00  0.00    -0.202 NA
ATOM     15  C   UNL     1      -3.514   2.152  -0.069  0.00  0.00    +0.217 A 
ATOM     16  N   UNL     1      -2.364   1.488  -0.079  0.00  0.00    -0.181 NA
ATOM     17  N   UNL     1      -4.708   1.467  -0.172  0.00  0.00    -0.327 N 
ATOM     18  H   UNL     1      -4.707   0.500  -0.251  0.00  0.00    +0.145 HD
ATOM     19  H   UNL     1      -5.548   1.953  -0.165  0.00  0.00    +0.145 HD
ENDROOT
BRANCH  13  20
ATOM     20  C   UNL     1      -2.375   5.637   0.258  0.00  0.00    -0.001 C 
BRANCH  20  26
ATOM     21  C   UNL     1      -3.710   5.613   2.279  0.00  0.00    -0.059 C 
ATOM     22  C   UNL     1      -3.696   5.949   3.772  0.00  0.00    +0.086 C 
ATOM     23  N   UNL     1      -3.463   7.390   3.945  0.00  0.00    -0.331 N 
ATOM     24  C   UNL     1      -2.184   7.790   3.343  0.00  0.00    +0.086 C 
ATOM     25  C   UNL     1      -2.198   7.454   1.850  0.00  0.00    -0.059 C 
ATOM     26  N   UNL     1      -2.410   5.999   1.691  0.00  0.00    +0.386 N 
ATOM     27  H   UNL     1      -1.660   5.497   2.181  0.00  0.00    -0.081 HD
BRANCH  23  28
ATOM     28  C   UNL     1      -3.516   7.748   5.295  0.00  0.00    +0.065 A 
ATOM     29  C   UNL     1      -3.394   9.080   5.668  0.00  0.00    +0.026 A 
ATOM     30  C   UNL     1      -3.450   9.431   7.003  0.00  0.00    +0.002 A 
ATOM     31  C   UNL     1      -3.617   8.457   7.970  0.00  0.00    +0.003 A 
ATOM     32  C   UNL     1      -3.734   7.128   7.604  0.00  0.00    +0.040 A 
ATOM     33  C   UNL     1      -3.684   6.770   6.270  0.00  0.00    +0.144 A 
ATOM     34  F   UNL     1      -3.797   5.472   5.913  0.00  0.00    -0.204 F 
ENDBRANCH  23  28
ENDBRANCH  20  26
ENDBRANCH  13  20
TORSDOF 3
