REMARK  Name = ZINC00958563
REMARK  6 active torsions:
REMARK  status: ('A' for Active; 'I' for Inactive)
REMARK    1  A    between atoms: C_1  and  C_2
REMARK    2  A    between atoms: C_3  and  C_28
REMARK    3  A    between atoms: C_4  and  C_21
REMARK    4  A    between atoms: C_10  and  S_12
REMARK    5  A    between atoms: S_12  and  C_13
REMARK    6  A    between atoms: C_13  and  C_14
REMARK                            x       y       z     vdW  Elec       q    Type
REMARK                         _______ _______ _______ _____ _____    ______ ____
ROOT
ATOM      1  C   UNL     1      -0.405   1.584  -0.301  0.00  0.00    +0.064 C 
ATOM      2  C   UNL     1      -0.231   0.094  -0.153  0.00  0.00    +0.026 C 
ATOM      3  C   UNL     1      -1.341  -0.705  -0.132  0.00  0.00    +0.060 C 
ATOM      4  C   UNL     1      -1.117  -2.199   0.018  0.00  0.00    +0.168 C 
ATOM      5  N   UNL     1       0.280  -2.635   0.128  0.00  0.00    -0.187 N 
ATOM      6  C   UNL     1       1.277  -1.689   0.088  0.00  0.00    +0.217 C 
ATOM      7  N   UNL     1       0.992  -0.402  -0.052  0.00  0.00    -0.330 N 
ATOM      8  N   UNL     1       2.446  -2.333   0.205  0.00  0.00    -0.190 NA
ATOM      9  C   UNL     1       2.244  -3.634   0.317  0.00  0.00    +0.197 C 
ATOM     10  N   UNL     1       0.899  -3.879   0.274  0.00  0.00    -0.118 NA
ATOM     11  H   UNL     1       1.734   0.223  -0.077  0.00  0.00    +0.168 HD
ENDROOT
BRANCH   4  12
ATOM     12  C   UNL     1      -1.847  -2.661   1.254  0.00  0.00    +0.015 A 
ATOM     13  C   UNL     1      -2.233  -1.743   2.212  0.00  0.00    +0.009 A 
ATOM     14  C   UNL     1      -2.902  -2.166   3.345  0.00  0.00    +0.001 A 
ATOM     15  C   UNL     1      -3.187  -3.508   3.521  0.00  0.00    +0.003 A 
ATOM     16  C   UNL     1      -2.802  -4.427   2.564  0.00  0.00    +0.039 A 
ATOM     17  C   UNL     1      -2.136  -4.004   1.426  0.00  0.00    +0.129 A 
ATOM     18  F   UNL     1      -1.764  -4.901   0.487  0.00  0.00    -0.205 F 
ENDBRANCH   4  12
BRANCH   3  19
ATOM     19  C   UNL     1      -2.634  -0.165  -0.246  0.00  0.00    +0.241 C 
ATOM     20  O   UNL     1      -2.791   1.044  -0.257  0.00  0.00    -0.271 OA
ATOM     21  N   UNL     1      -3.700  -0.984  -0.342  0.00  0.00    -0.325 N 
ATOM     22  H   UNL     1      -3.583  -1.944  -0.261  0.00  0.00    +0.145 HD
ATOM     23  H   UNL     1      -4.584  -0.614  -0.492  0.00  0.00    +0.145 HD
ENDBRANCH   3  19
BRANCH   9  24
ATOM     24  S   UNL     1       3.503  -4.854   0.493  0.00  0.00    -0.082 S 
BRANCH  24  25
ATOM     25  C   UNL     1       5.045  -3.900   0.480  0.00  0.00    +0.113 C 
BRANCH  25  26
ATOM     26  C   UNL     1       6.217  -4.836   0.625  0.00  0.00    -0.019 A 
ATOM     27  C   UNL     1       6.692  -5.159   1.882  0.00  0.00    +0.006 A 
ATOM     28  C   UNL     1       7.767  -6.018   2.016  0.00  0.00    +0.000 A 
ATOM     29  C   UNL     1       8.368  -6.554   0.892  0.00  0.00    +0.001 A 
ATOM     30  C   UNL     1       7.893  -6.232  -0.366  0.00  0.00    +0.020 A 
ATOM     31  C   UNL     1       6.814  -5.377  -0.499  0.00  0.00    +0.045 A 
ATOM     32 CL   UNL     1       6.213  -4.977  -2.079  0.00  0.00    -0.083 Cl
ENDBRANCH  25  26
ENDBRANCH  24  25
ENDBRANCH   9  24
TORSDOF 5
