REMARK  Name = ZINC39977011
REMARK  4 active torsions:
REMARK  status: ('A' for Active; 'I' for Inactive)
REMARK    1  A    between atoms: N_7  and  S_8
REMARK    2  A    between atoms: S_8  and  C_11
REMARK    3  A    between atoms: C_20  and  N_25
REMARK    4  A    between atoms: N_25  and  C_26
REMARK                            x       y       z     vdW  Elec       q    Type
REMARK                         _______ _______ _______ _____ _____    ______ ____
ROOT
ATOM      1  C   UNL     1      -0.273   1.097   0.324  0.00  0.00    +0.002 A 
ATOM      2  C   UNL     1       0.836   1.950   0.198  0.00  0.00    +0.002 A 
ATOM      3  C   UNL     1       2.098   1.491   0.051  0.00  0.00    +0.030 A 
ATOM      4  C   UNL     1       2.354   0.097   0.018  0.00  0.00    +0.089 A 
ATOM      5  N   UNL     1       3.586  -0.345  -0.125  0.00  0.00    -0.226 NA
ATOM      6  C   UNL     1       3.863  -1.659  -0.160  0.00  0.00    +0.192 C 
ATOM      7  N   UNL     1       5.088  -2.071  -0.301  0.00  0.00    -0.110 NA
ATOM      8  C   UNL     1       2.730  -2.651  -0.032  0.00  0.00    +0.237 C 
ATOM      9  N   UNL     1       1.367  -2.121   0.126  0.00  0.00    -0.359 N 
ATOM     10  C   UNL     1       1.201  -0.828   0.149  0.00  0.00    +0.063 A 
ATOM     11  C   UNL     1      -0.141  -0.247   0.305  0.00  0.00    +0.027 A 
ATOM     12  H   UNL     1       0.608  -2.720   0.212  0.00  0.00    +0.162 HD
ENDROOT
BRANCH   7  13
ATOM     13  S   UNL     1       6.320  -0.973  -0.440  0.00  0.00    +0.103 S 
ATOM     14  O   UNL     1       6.118  -0.288  -1.669  0.00  0.00    -0.146 OA
ATOM     15  O   UNL     1       6.402  -0.294   0.806  0.00  0.00    -0.146 OA
BRANCH  13  16
ATOM     16  C   UNL     1       7.816  -1.887  -0.614  0.00  0.00    +0.141 A 
ATOM     17  C   UNL     1       8.527  -1.807  -1.763  0.00  0.00    +0.031 A 
ATOM     18  C   UNL     1       9.716  -2.517  -1.935  0.00  0.00    +0.004 A 
ATOM     19  C   UNL     1      10.210  -3.317  -0.961  0.00  0.00    +0.031 A 
ATOM     20  C   UNL     1       9.516  -3.450   0.272  0.00  0.00    +0.102 A 
ATOM     21  C   UNL     1       8.277  -2.703   0.455  0.00  0.00    +0.127 A 
ATOM     22  N   UNL     1       7.717  -2.900   1.650  0.00  0.00    -0.189 NA
ATOM     23  S   UNL     1       8.693  -3.919   2.424  0.00  0.00    +0.117 S 
ATOM     24  N   UNL     1       9.848  -4.184   1.335  0.00  0.00    -0.191 NA
ENDBRANCH  13  16
ENDBRANCH   7  13
BRANCH   8  25
ATOM     25  N   UNL     1       2.743  -3.501  -1.225  0.00  0.00    -0.318 N 
ATOM     26  H   UNL     1       2.870  -3.104  -2.101  0.00  0.00    +0.148 HD
BRANCH  25  27
ATOM     27  C   UNL     1       2.571  -4.882  -1.102  0.00  0.00    +0.030 A 
ATOM     28  C   UNL     1       2.741  -5.706  -2.207  0.00  0.00    +0.024 A 
ATOM     29  C   UNL     1       2.571  -7.071  -2.083  0.00  0.00    +0.023 A 
ATOM     30  C   UNL     1       2.231  -7.619  -0.859  0.00  0.00    +0.059 A 
ATOM     31  C   UNL     1       2.060  -6.800   0.245  0.00  0.00    +0.061 A 
ATOM     32  C   UNL     1       2.236  -5.434   0.128  0.00  0.00    +0.044 A 
ATOM     33 CL   UNL     1       1.633  -7.491   1.780  0.00  0.00    -0.082 Cl
ATOM     34 CL   UNL     1       2.017  -9.335  -0.706  0.00  0.00    -0.082 Cl
ENDBRANCH  25  27
ENDBRANCH   8  25
TORSDOF 4
