REMARK  Name = ZINC09803353
REMARK  11 active torsions:
REMARK  status: ('A' for Active; 'I' for Inactive)
REMARK    1  A    between atoms: C_1  and  C_2
REMARK    2  A    between atoms: C_13  and  C_15
REMARK    3  A    between atoms: C_15  and  O_16
REMARK    4  A    between atoms: O_16  and  C_17
REMARK    5  A    between atoms: C_17  and  C_19
REMARK    6  A    between atoms: C_21  and  O_35
REMARK    7  A    between atoms: C_22  and  O_33
REMARK    8  A    between atoms: C_24  and  N_25
REMARK    9  A    between atoms: C_26  and  C_28
REMARK   10  A    between atoms: O_33  and  C_34
REMARK   11  A    between atoms: O_35  and  C_36
REMARK                            x       y       z     vdW  Elec       q    Type
REMARK                         _______ _______ _______ _____ _____    ______ ____
ROOT
ATOM      1  C   UNL     1       0.961   2.513   1.009  0.00  0.00    +0.084 A 
ATOM      2  C   UNL     1       0.777   3.865   1.321  0.00  0.00    +0.066 A 
ATOM      3  C   UNL     1       1.863   4.650   1.644  0.00  0.00    +0.162 A 
ATOM      4  C   UNL     1       3.147   4.104   1.650  0.00  0.00    +0.163 A 
ATOM      5  C   UNL     1       3.339   2.768   1.337  0.00  0.00    +0.073 A 
ATOM      6  C   UNL     1       2.255   1.966   1.016  0.00  0.00    +0.051 A 
ENDROOT
BRANCH   6   7
ATOM      7  N   UNL     1       2.447   0.623   0.702  0.00  0.00    -0.280 N 
ATOM      8  C   UNL     1       3.427  -0.077   1.308  0.00  0.00    +0.255 C 
ATOM      9  O   UNL     1       4.086   0.439   2.191  0.00  0.00    -0.269 OA
ATOM     10  H   UNL     1       1.876   0.191   0.047  0.00  0.00    +0.155 HD
BRANCH   8  11
ATOM     11  C   UNL     1       3.698  -1.459   0.902  0.00  0.00    +0.074 A 
ATOM     12  C   UNL     1       4.652  -2.341   1.387  0.00  0.00    +0.021 A 
ATOM     13  C   UNL     1       4.688  -3.592   0.826  0.00  0.00    +0.008 A 
ATOM     14  C   UNL     1       3.812  -3.901  -0.166  0.00  0.00    +0.046 A 
ATOM     15  S   UNL     1       2.892  -2.443  -0.348  0.00  0.00    -0.092 S 
ENDBRANCH   8  11
ENDBRANCH   6   7
BRANCH   1  16
ATOM     16  C   UNL     1      -0.195   1.669   0.669  0.00  0.00    +0.342 C 
ATOM     17  O   UNL     1      -0.026   0.512   0.336  0.00  0.00    -0.245 OA
BRANCH  16  18
ATOM     18  O   UNL     1      -1.441   2.180   0.722  0.00  0.00    -0.452 OA
BRANCH  18  19
ATOM     19  C   UNL     1      -2.534   1.292   0.367  0.00  0.00    +0.328 C 
BRANCH  19  31
ATOM     20  C   UNL     1      -3.772  -0.668   0.256  0.00  0.00    +0.028 C 
ATOM     21  C   UNL     1      -5.012   0.033  -0.304  0.00  0.00    +0.079 C 
ATOM     22  C   UNL     1      -6.278  -0.577   0.311  0.00  0.00    +0.027 C 
ATOM     23  C   UNL     1      -7.502   0.089  -0.316  0.00  0.00    +0.039 C 
ATOM     24  C   UNL     1      -7.385   1.589  -0.239  0.00  0.00    -0.026 A 
ATOM     25  C   UNL     1      -8.532   2.357  -0.346  0.00  0.00    +0.005 A 
ATOM     26  C   UNL     1      -8.456   3.735  -0.282  0.00  0.00    +0.000 A 
ATOM     27  C   UNL     1      -7.233   4.356  -0.111  0.00  0.00    +0.002 A 
ATOM     28  C   UNL     1      -6.085   3.597  -0.002  0.00  0.00    +0.024 A 
ATOM     29  C   UNL     1      -6.160   2.209  -0.059  0.00  0.00    +0.040 A 
ATOM     30  N   UNL     1      -4.982   1.458   0.052  0.00  0.00    -0.266 N 
ATOM     31  C   UNL     1      -3.841   2.032   0.483  0.00  0.00    +0.258 C 
ATOM     32  O   UNL     1      -3.867   3.145   0.965  0.00  0.00    -0.272 OA
ENDBRANCH  19  31
ENDBRANCH  18  19
ENDBRANCH  16  18
ENDBRANCH   1  16
BRANCH   4  33
ATOM     33  O   UNL     1       4.213   4.885   1.963  0.00  0.00    -0.491 OA
ATOM     34  C   UNL     1       5.500   4.262   1.951  0.00  0.00    +0.277 C 
ENDBRANCH   4  33
BRANCH   3  35
ATOM     35  O   UNL     1       1.683   5.963   1.953  0.00  0.00    -0.491 OA
ATOM     36  C   UNL     1       0.342   6.458   1.928  0.00  0.00    +0.277 C 
ENDBRANCH   3  35
TORSDOF 8
