REMARK  Name = ZINC09206645
REMARK  11 active torsions:
REMARK  status: ('A' for Active; 'I' for Inactive)
REMARK    1  A    between atoms: C_1  and  C_2
REMARK    2  A    between atoms: C_5  and  C_8
REMARK    3  A    between atoms: C_8  and  O_10
REMARK    4  A    between atoms: O_10  and  C_11
REMARK    5  A    between atoms: C_12  and  C_27
REMARK    6  A    between atoms: N_13  and  C_23
REMARK    7  A    between atoms: C_23  and  C_24
REMARK    8  A    between atoms: C_24  and  N_61
REMARK    9  A    between atoms: C_25  and  N_61
REMARK   10  A    between atoms: C_26  and  N_61
REMARK   11  A    between atoms: C_27  and  C_29
REMARK                            x       y       z     vdW  Elec       q    Type
REMARK                         _______ _______ _______ _____ _____    ______ ____
ROOT
ATOM      1  C   UNL     1       2.119   4.335  -0.852  0.00  0.00    +0.167 C 
ATOM      2  C   UNL     1       2.294   5.329   0.051  0.00  0.00    +0.141 C 
ATOM      3  N   UNL     1       1.236   5.845   0.817  0.00  0.00    -0.197 N 
ATOM      4  S   UNL     1      -0.288   5.821   0.143  0.00  0.00    +0.076 S 
ATOM      5  O   UNL     1      -0.324   6.846  -0.841  0.00  0.00    -0.150 OA
ATOM      6  O   UNL     1      -1.218   5.752   1.215  0.00  0.00    -0.150 OA
ATOM      7  C   UNL     1      -0.369   4.278  -0.713  0.00  0.00    +0.119 A 
ATOM      8  C   UNL     1       0.832   3.687  -1.128  0.00  0.00    +0.046 A 
ATOM      9  C   UNL     1       0.786   2.466  -1.809  0.00  0.00    +0.013 A 
ATOM     10  C   UNL     1      -0.430   1.865  -2.059  0.00  0.00    +0.001 A 
ATOM     11  C   UNL     1      -1.607   2.463  -1.647  0.00  0.00    +0.002 A 
ATOM     12  C   UNL     1      -1.574   3.671  -0.967  0.00  0.00    +0.029 A 
ENDROOT
BRANCH   2  13
ATOM     13  C   UNL     1       3.592   5.869   0.230  0.00  0.00    +0.212 C 
ATOM     14  O   UNL     1       3.757   7.076   0.219  0.00  0.00    -0.285 OA
BRANCH  13  15
ATOM     15  C   UNL     1       4.747   4.966   0.430  0.00  0.00    +0.024 A 
ATOM     16  C   UNL     1       4.545   3.593   0.582  0.00  0.00    +0.012 A 
ATOM     17  C   UNL     1       5.627   2.756   0.761  0.00  0.00    +0.001 A 
ATOM     18  C   UNL     1       6.909   3.277   0.804  0.00  0.00    +0.000 A 
ATOM     19  C   UNL     1       7.115   4.638   0.660  0.00  0.00    +0.001 A 
ATOM     20  C   UNL     1       6.042   5.485   0.473  0.00  0.00    +0.012 A 
ENDBRANCH  13  15
ENDBRANCH   2  13
BRANCH   1  21
ATOM     21  O   UNL     1       3.203   3.911  -1.545  0.00  0.00    -0.420 OA
BRANCH  21  22
ATOM     22  C   UNL     1       3.211   4.146  -2.872  0.00  0.00    +0.345 C 
ATOM     23  O   UNL     1       2.318   4.795  -3.379  0.00  0.00    -0.245 OA
BRANCH  22  28
ATOM     24  C   UNL     1       7.474   2.074  -6.133  0.00  0.00    +0.044 C 
ATOM     25  C   UNL     1       6.357   2.617  -5.279  0.00  0.00    -0.050 A 
ATOM     26  C   UNL     1       5.401   3.445  -5.840  0.00  0.00    +0.004 A 
ATOM     27  C   UNL     1       4.377   3.945  -5.064  0.00  0.00    +0.015 A 
ATOM     28  C   UNL     1       4.305   3.614  -3.709  0.00  0.00    +0.059 A 
ATOM     29  C   UNL     1       5.277   2.782  -3.148  0.00  0.00    +0.015 A 
ATOM     30  C   UNL     1       6.293   2.284  -3.938  0.00  0.00    +0.004 A 
ENDBRANCH  22  28
ENDBRANCH  21  22
ENDBRANCH   1  21
BRANCH   3  31
ATOM     31  C   UNL     1       1.463   6.385   2.160  0.00  0.00    +0.113 C 
BRANCH  31  32
ATOM     32  C   UNL     1       1.479   5.240   3.175  0.00  0.00    -0.059 C 
BRANCH  32  35
ATOM     33  C   UNL     1       1.494   4.751   5.546  0.00  0.00    -0.097 C 
ATOM     34  C   UNL     1       3.050   6.365   4.633  0.00  0.00    -0.097 C 
ATOM     35  N   UNL     1       1.688   5.802   4.525  0.00  0.00    +0.377 N 
ATOM     36  H   UNL     1       1.004   6.551   4.684  0.00  0.00    -0.083 HD
ENDBRANCH  32  35
ENDBRANCH  31  32
ENDBRANCH   3  31
TORSDOF 8
