REMARK  Name = ZINC38979888
REMARK  4 active torsions:
REMARK  status: ('A' for Active; 'I' for Inactive)
REMARK    1  A    between atoms: C_9  and  O_27
REMARK    2  A    between atoms: C_10  and  C_11
REMARK    3  A    between atoms: N_12  and  N_13
REMARK    4  A    between atoms: C_14  and  C_20
REMARK                            x       y       z     vdW  Elec       q    Type
REMARK                         _______ _______ _______ _____ _____    ______ ____
ROOT
ATOM      1  C   UNL     1       4.981   0.090  -0.062  0.00  0.00    +0.142 C 
ATOM      2  N   UNL     1       6.110  -0.556  -0.061  0.00  0.00    -0.183 NA
ENDROOT
BRANCH   1  12
ATOM      3  C   UNL     1      -0.019   1.351  -0.060  0.00  0.00    +0.001 A 
ATOM      4  C   UNL     1       1.164   2.086  -0.066  0.00  0.00    +0.001 A 
ATOM      5  C   UNL     1       2.376   1.461  -0.065  0.00  0.00    +0.009 A 
ATOM      6  C   UNL     1       2.434   0.062  -0.057  0.00  0.00    -0.006 A 
ATOM      7  C   UNL     1       1.233  -0.688  -0.050  0.00  0.00    -0.017 A 
ATOM      8  C   UNL     1       0.001  -0.011  -0.052  0.00  0.00    +0.008 A 
ATOM      9  C   UNL     1       1.293  -2.092  -0.041  0.00  0.00    +0.012 A 
ATOM     10  C   UNL     1       2.490  -2.738  -0.038  0.00  0.00    +0.046 A 
ATOM     11  C   UNL     1       3.698  -2.043  -0.045  0.00  0.00    +0.126 A 
ATOM     12  C   UNL     1       3.711  -0.648  -0.055  0.00  0.00    +0.044 A 
BRANCH  11  13
ATOM     13  O   UNL     1       4.870  -2.729  -0.042  0.00  0.00    -0.506 OA
ATOM     14  H   UNL     1       5.208  -2.934  -0.924  0.00  0.00    +0.292 HD
ENDBRANCH  11  13
ENDBRANCH   1  12
BRANCH   2  15
ATOM     15  N   UNL     1       7.318   0.143  -0.175  0.00  0.00    -0.172 N 
ATOM     16  C   UNL     1       8.675  -0.416  -0.316  0.00  0.00    +0.264 C 
ATOM     17  N   UNL     1       9.540   0.771  -0.392  0.00  0.00    -0.189 NA
ATOM     18  N   UNL     1       8.824   1.773  -0.310  0.00  0.00    -0.219 N 
ATOM     19  C   UNL     1       7.501   1.482  -0.187  0.00  0.00    +0.174 C 
ATOM     20  S   UNL     1       6.250   2.643  -0.059  0.00  0.00    -0.015 S 
ATOM     21  H   UNL     1       9.170   2.679  -0.336  0.00  0.00    +0.176 HD
BRANCH  16  22
ATOM     22  C   UNL     1       9.029  -1.256   0.884  0.00  0.00    -0.002 A 
ATOM     23  C   UNL     1       8.036  -1.926   1.575  0.00  0.00    +0.010 A 
ATOM     24  C   UNL     1       8.359  -2.697   2.675  0.00  0.00    +0.039 A 
ATOM     25  C   UNL     1       9.677  -2.799   3.086  0.00  0.00    +0.123 A 
ATOM     26  C   UNL     1      10.671  -2.128   2.393  0.00  0.00    +0.039 A 
ATOM     27  C   UNL     1      10.346  -1.362   1.289  0.00  0.00    +0.010 A 
ATOM     28  F   UNL     1       9.994  -3.552   4.162  0.00  0.00    -0.205 F 
ENDBRANCH  16  22
ENDBRANCH   2  15
TORSDOF 4
