REMARK  Name = ZINC35347529
REMARK  8 active torsions:
REMARK  status: ('A' for Active; 'I' for Inactive)
REMARK    1  A    between atoms: C_1  and  C_2
REMARK    2  A    between atoms: C_5  and  C_8
REMARK    3  A    between atoms: C_8  and  C_10
REMARK    4  A    between atoms: C_12  and  C_24
REMARK    5  A    between atoms: C_18  and  C_19
REMARK    6  A    between atoms: C_18  and  O_23
REMARK    7  A    between atoms: C_27  and  C_29
REMARK    8  A    between atoms: C_33  and  N_35
REMARK                            x       y       z     vdW  Elec       q    Type
REMARK                         _______ _______ _______ _____ _____    ______ ____
ROOT
ATOM      1  C   UNL     1       0.075  -5.006   1.280  0.00  0.00    +0.147 C 
ATOM      2  C   UNL     1      -1.363  -5.292   1.726  0.00  0.00    +0.156 C 
ATOM      3  N   UNL     1      -2.003  -6.175   0.750  0.00  0.00    -0.289 N 
ATOM      4  C   UNL     1      -1.288  -7.051   0.028  0.00  0.00    +0.302 C 
ATOM      5  O   UNL     1      -1.870  -7.769  -0.763  0.00  0.00    -0.253 OA
ATOM      6  N   UNL     1       0.043  -7.167   0.144  0.00  0.00    -0.264 N 
ATOM      7  C   UNL     1       0.805  -6.339   1.087  0.00  0.00    +0.243 C 
ATOM      8  H   UNL     1      -2.963  -6.126   0.622  0.00  0.00    +0.151 HD
ATOM      9  H   UNL     1       0.514  -7.812  -0.408  0.00  0.00    +0.153 HD
ENDROOT
BRANCH   2  10
ATOM     10  C   UNL     1      -2.130  -3.998   1.816  0.00  0.00    +0.127 A 
ATOM     11  C   UNL     1      -2.381  -3.310   2.947  0.00  0.00    +0.047 A 
ATOM     12  C   UNL     1      -3.122  -2.169   2.580  0.00  0.00    +0.050 A 
ATOM     13  C   UNL     1      -3.284  -2.224   1.232  0.00  0.00    +0.135 A 
ATOM     14  O   UNL     1      -2.672  -3.336   0.781  0.00  0.00    -0.458 OA
BRANCH  13  15
ATOM     15  C   UNL     1      -4.001  -1.233   0.403  0.00  0.00    +0.019 A 
ATOM     16  C   UNL     1      -4.585  -0.112   0.998  0.00  0.00    +0.012 A 
ATOM     17  C   UNL     1      -5.253   0.809   0.219  0.00  0.00    +0.003 A 
ATOM     18  C   UNL     1      -5.347   0.624  -1.149  0.00  0.00    +0.033 A 
ATOM     19  C   UNL     1      -4.772  -0.484  -1.745  0.00  0.00    +0.127 A 
ATOM     20  C   UNL     1      -4.095  -1.409  -0.978  0.00  0.00    +0.044 A 
BRANCH  19  21
ATOM     21  N   UNL     1      -4.878  -0.673  -3.209  0.00  0.00    +0.056 N 
ATOM     22  O   UNL     1      -5.466   0.140  -3.883  0.00  0.00    -0.126 OA
ATOM     23  O   UNL     1      -4.375  -1.641  -3.731  0.00  0.00    -0.126 OA
ENDBRANCH  19  21
ENDBRANCH  13  15
ENDBRANCH   2  10
BRANCH   7  24
ATOM     24  C   UNL     1       0.911  -7.063   2.431  0.00  0.00    +0.436 C 
ATOM     25  F   UNL     1      -0.372  -7.303   2.934  0.00  0.00    -0.166 F 
ATOM     26  F   UNL     1       1.577  -8.280   2.253  0.00  0.00    -0.166 F 
ATOM     27  F   UNL     1       1.625  -6.268   3.334  0.00  0.00    -0.166 F 
ENDBRANCH   7  24
BRANCH   1  28
ATOM     28  C   UNL     1       0.058  -4.245  -0.021  0.00  0.00    +0.173 C 
ATOM     29  O   UNL     1       0.060  -4.846  -1.075  0.00  0.00    -0.292 OA
BRANCH  28  34
ATOM     30  C   UNL     1      -0.018   1.503   0.010  0.00  0.00    +0.044 C 
ATOM     31  C   UNL     1       0.002  -0.004   0.002  0.00  0.00    -0.050 A 
ATOM     32  C   UNL     1       0.006  -0.686  -1.202  0.00  0.00    +0.004 A 
ATOM     33  C   UNL     1       0.024  -2.064  -1.218  0.00  0.00    +0.011 A 
ATOM     34  C   UNL     1       0.039  -2.774  -0.013  0.00  0.00    +0.018 A 
ATOM     35  C   UNL     1       0.036  -2.078   1.200  0.00  0.00    +0.011 A 
ATOM     36  C   UNL     1       0.023  -0.699   1.199  0.00  0.00    +0.004 A 
ENDBRANCH  28  34
ENDBRANCH   1  28
BRANCH   7  37
ATOM     37  O   UNL     1       2.114  -6.097   0.569  0.00  0.00    -0.364 OA
ATOM     38  H   UNL     1       2.634  -6.899   0.422  0.00  0.00    +0.212 HD
ENDBRANCH   7  37
TORSDOF 7
