REMARK  Name = ZINC35788735
REMARK  8 active torsions:
REMARK  status: ('A' for Active; 'I' for Inactive)
REMARK    1  A    between atoms: C_1  and  C_2
REMARK    2  A    between atoms: C_5  and  C_39
REMARK    3  A    between atoms: C_6  and  C_8
REMARK    4  A    between atoms: C_11  and  C_14
REMARK    5  A    between atoms: C_23  and  C_25
REMARK    6  A    between atoms: C_25  and  N_26
REMARK    7  A    between atoms: C_29  and  C_32
REMARK    8  A    between atoms: C_32  and  C_33
REMARK                            x       y       z     vdW  Elec       q    Type
REMARK                         _______ _______ _______ _____ _____    ______ ____
ROOT
ATOM      1  C   UNL     1       0.515  -2.651   2.511  0.00  0.00    +0.069 C 
ATOM      2  N   UNL     1       0.637  -3.920   2.696  0.00  0.00    -0.181 NA
ATOM      3  N   UNL     1       0.874  -4.282   4.021  0.00  0.00    -0.187 N 
ATOM      4  C   UNL     1       0.915  -3.064   4.846  0.00  0.00    +0.137 C 
ATOM      5  C   UNL     1       0.677  -1.930   3.830  0.00  0.00    +0.087 C 
ATOM      6  C   UNL     1       1.038  -5.541   4.472  0.00  0.00    +0.219 C 
ATOM      7  O   UNL     1       1.239  -5.741   5.651  0.00  0.00    -0.276 OA
ENDROOT
BRANCH   4   8
ATOM      8  C   UNL     1       2.264  -2.913   5.501  0.00  0.00    -0.021 A 
ATOM      9  C   UNL     1       3.411  -3.240   4.801  0.00  0.00    +0.009 A 
ATOM     10  C   UNL     1       4.651  -3.103   5.397  0.00  0.00    +0.050 A 
ATOM     11  C   UNL     1       4.747  -2.636   6.699  0.00  0.00    +0.166 A 
ATOM     12  C   UNL     1       3.591  -2.307   7.403  0.00  0.00    +0.167 A 
ATOM     13  C   UNL     1       2.353  -2.442   6.798  0.00  0.00    +0.055 A 
ATOM     14  O   UNL     1       3.948  -1.878   8.649  0.00  0.00    -0.453 OA
ATOM     15  C   UNL     1       5.300  -2.334   8.840  0.00  0.00    +0.466 C 
ATOM     16  O   UNL     1       5.827  -2.413   7.503  0.00  0.00    -0.453 OA
ENDBRANCH   4   8
BRANCH   1  22
ATOM     17  C   UNL     1       0.013   1.496  -0.214  0.00  0.00    +0.044 C 
ATOM     18  C   UNL     1       0.018  -0.007  -0.105  0.00  0.00    -0.050 A 
ATOM     19  C   UNL     1      -0.216  -0.781  -1.228  0.00  0.00    +0.003 A 
ATOM     20  C   UNL     1      -0.213  -2.161  -1.138  0.00  0.00    +0.004 A 
ATOM     21  C   UNL     1       0.023  -2.776   0.074  0.00  0.00    -0.042 A 
ATOM     22  C   UNL     1       0.261  -2.001   1.212  0.00  0.00    +0.001 A 
ATOM     23  C   UNL     1       0.262  -0.608   1.112  0.00  0.00    +0.013 A 
ATOM     24  C   UNL     1       0.025  -4.280   0.171  0.00  0.00    +0.044 C 
ENDBRANCH   1  22
BRANCH   6  25
ATOM     25  C   UNL     1       0.970  -6.700   3.511  0.00  0.00    +0.021 C 
BRANCH  25  26
ATOM     26  N   UNL     1       1.178  -7.956   4.245  0.00  0.00    +0.385 N 
ATOM     27  C   UNL     1       2.537  -7.979   4.799  0.00  0.00    -0.078 C 
ATOM     28  C   UNL     1       2.732  -9.248   5.631  0.00  0.00    -0.015 C 
ATOM     29  C   UNL     1       2.523 -10.474   4.738  0.00  0.00    -0.010 C 
ATOM     30  C   UNL     1       1.130 -10.402   4.107  0.00  0.00    -0.015 C 
ATOM     31  C   UNL     1       0.994  -9.091   3.331  0.00  0.00    -0.078 C 
ATOM     32  H   UNL     1       0.509  -8.020   4.997  0.00  0.00    -0.081 HD
BRANCH  29  33
ATOM     33  C   UNL     1       2.638 -11.746   5.581  0.00  0.00    +0.038 C 
BRANCH  33  34
ATOM     34  C   UNL     1       2.555 -12.953   4.683  0.00  0.00    -0.047 A 
ATOM     35  C   UNL     1       1.326 -13.521   4.401  0.00  0.00    +0.003 A 
ATOM     36  C   UNL     1       1.250 -14.629   3.577  0.00  0.00    +0.000 A 
ATOM     37  C   UNL     1       2.402 -15.167   3.034  0.00  0.00    +0.000 A 
ATOM     38  C   UNL     1       3.630 -14.598   3.315  0.00  0.00    +0.000 A 
ATOM     39  C   UNL     1       3.706 -13.489   4.136  0.00  0.00    +0.003 A 
ENDBRANCH  33  34
ENDBRANCH  29  33
ENDBRANCH  25  26
ENDBRANCH   6  25
TORSDOF 6
