REMARK  Name = ZINC04767388
REMARK  10 active torsions:
REMARK  status: ('A' for Active; 'I' for Inactive)
REMARK    1  A    between atoms: C_1  and  C_2
REMARK    2  A    between atoms: C_7  and  C_21
REMARK    3  A    between atoms: C_9  and  C_13
REMARK    4  A    between atoms: C_10  and  C_12
REMARK    5  A    between atoms: C_13  and  O_15
REMARK    6  A    between atoms: O_15  and  C_16
REMARK    7  A    between atoms: C_25  and  O_27
REMARK    8  A    between atoms: C_30  and  C_32
REMARK    9  A    between atoms: C_32  and  O_34
REMARK   10  A    between atoms: O_34  and  C_35
REMARK                            x       y       z     vdW  Elec       q    Type
REMARK                         _______ _______ _______ _____ _____    ______ ____
ROOT
ATOM      1  C   UNL     1      -0.719   0.907  -0.815  0.00  0.00    +0.009 C 
ATOM      2  C   UNL     1      -0.444  -0.526  -0.357  0.00  0.00    +0.013 C 
ATOM      3  C   UNL     1      -1.730  -1.145   0.195  0.00  0.00    +0.055 C 
ATOM      4  C   UNL     1      -2.201  -0.353   1.389  0.00  0.00    +0.016 C 
ATOM      5  C   UNL     1      -1.321   0.276   2.197  0.00  0.00    +0.025 C 
ATOM      6  C   UNL     1      -1.798   1.056   3.397  0.00  0.00    +0.092 C 
ATOM      7  C   UNL     1      -3.261   1.372   3.286  0.00  0.00    +0.065 C 
ATOM      8  C   UNL     1      -4.057   0.704   2.434  0.00  0.00    +0.016 C 
ATOM      9  N   UNL     1      -3.545  -0.283   1.638  0.00  0.00    -0.321 N 
ATOM     10  C   UNL     1      -5.522   1.044   2.355  0.00  0.00    +0.061 C 
ATOM     11  C   UNL     1       0.061   0.227   1.943  0.00  0.00    +0.176 C 
ATOM     12  O   UNL     1       0.826   0.796   2.695  0.00  0.00    -0.291 OA
ATOM     13  C   UNL     1       0.612  -0.518   0.753  0.00  0.00    +0.171 C 
ATOM     14  H   UNL     1      -4.141  -0.940   1.245  0.00  0.00    +0.152 HD
ENDROOT
BRANCH   6  15
ATOM     15  C   UNL     1      -1.562   0.240   4.642  0.00  0.00    -0.032 A 
ATOM     16  C   UNL     1      -2.158  -1.000   4.779  0.00  0.00    +0.005 A 
ATOM     17  C   UNL     1      -1.943  -1.750   5.920  0.00  0.00    +0.004 A 
ATOM     18  C   UNL     1      -1.133  -1.262   6.927  0.00  0.00    +0.045 A 
ATOM     19  C   UNL     1      -0.534  -0.018   6.792  0.00  0.00    +0.117 A 
ATOM     20  C   UNL     1      -0.746   0.730   5.643  0.00  0.00    +0.050 A 
BRANCH  19  21
ATOM     21  O   UNL     1       0.263   0.465   7.781  0.00  0.00    -0.507 OA
ATOM     22  H   UNL     1       1.196   0.225   7.687  0.00  0.00    +0.292 HD
ENDBRANCH  19  21
ENDBRANCH   6  15
BRANCH   7  23
ATOM     23  C   UNL     1      -3.813   2.393   4.094  0.00  0.00    +0.338 C 
ATOM     24  O   UNL     1      -4.965   2.745   3.927  0.00  0.00    -0.245 OA
BRANCH  23  25
ATOM     25  O   UNL     1      -3.061   2.978   5.051  0.00  0.00    -0.458 OA
BRANCH  25  26
ATOM     26  C   UNL     1      -3.682   4.002   5.829  0.00  0.00    +0.177 C 
ATOM     27  C   UNL     1      -3.410   5.383   5.199  0.00  0.00    +0.044 C 
ATOM     28  C   UNL     1      -3.222   6.324   6.415  0.00  0.00    +0.004 C 
ATOM     29  C   UNL     1      -2.449   5.434   7.420  0.00  0.00    +0.004 C 
ATOM     30  C   UNL     1      -3.072   4.034   7.241  0.00  0.00    +0.044 C 
ENDBRANCH  25  26
ENDBRANCH  23  25
ENDBRANCH   7  23
BRANCH  13  31
ATOM     31  C   UNL     1       1.861   0.165   0.256  0.00  0.00    +0.318 C 
ATOM     32  O   UNL     1       1.993   1.357   0.396  0.00  0.00    -0.250 OA
BRANCH  31  33
ATOM     33  O   UNL     1       2.825  -0.552  -0.341  0.00  0.00    -0.467 OA
ATOM     34  C   UNL     1       3.981   0.160  -0.787  0.00  0.00    +0.280 C 
ENDBRANCH  31  33
ENDBRANCH  13  31
TORSDOF 7
