REMARK  Name = ZINC23227649
REMARK  6 active torsions:
REMARK  status: ('A' for Active; 'I' for Inactive)
REMARK    1  A    between atoms: C_1  and  C_2
REMARK    2  A    between atoms: C_2  and  C_4
REMARK    3  A    between atoms: C_2  and  S_22
REMARK    4  A    between atoms: C_9  and  C_12
REMARK    5  A    between atoms: S_22  and  C_23
REMARK    6  A    between atoms: C_26  and  N_29
REMARK                            x       y       z     vdW  Elec       q    Type
REMARK                         _______ _______ _______ _____ _____    ______ ____
ROOT
ATOM      1  C   UNL     1      -1.734  -0.371  -0.407  0.00  0.00    +0.232 C 
ATOM      2  O   UNL     1      -2.117  -0.621  -1.530  0.00  0.00    -0.274 OA
ATOM      3  N   UNL     1      -2.598  -0.416   0.626  0.00  0.00    -0.264 N 
ATOM      4  C   UNL     1      -3.929  -0.749   0.405  0.00  0.00    +0.165 A 
ATOM      5  N   UNL     1      -4.903  -0.836   1.282  0.00  0.00    -0.225 NA
ATOM      6  C   UNL     1      -6.133  -1.168   0.910  0.00  0.00    +0.082 A 
ATOM      7  C   UNL     1      -6.325  -1.411  -0.421  0.00  0.00    +0.077 A 
ATOM      8  S   UNL     1      -4.679  -1.129  -1.053  0.00  0.00    -0.060 S 
ATOM      9  H   UNL     1      -2.291  -0.216   1.524  0.00  0.00    +0.157 HD
ENDROOT
BRANCH   6  10
ATOM     10  C   UNL     1      -7.243  -1.270   1.889  0.00  0.00    +0.026 A 
ATOM     11  C   UNL     1      -8.527  -1.606   1.623  0.00  0.00    +0.093 A 
ATOM     12  N   UNL     1      -9.258  -1.594   2.780  0.00  0.00    -0.360 N 
ATOM     13  H   UNL     1     -10.203  -1.801   2.842  0.00  0.00    +0.165 HD
ATOM     14  C   UNL     1      -8.454  -1.245   3.843  0.00  0.00    +0.047 A 
ATOM     15  C   UNL     1      -7.159  -1.033   3.339  0.00  0.00    +0.009 A 
ATOM     16  C   UNL     1      -6.126  -0.670   4.202  0.00  0.00    +0.010 A 
ATOM     17  C   UNL     1      -6.376  -0.525   5.538  0.00  0.00    +0.001 A 
ATOM     18  C   UNL     1      -7.652  -0.736   6.042  0.00  0.00    +0.002 A 
ATOM     19  C   UNL     1      -8.688  -1.088   5.205  0.00  0.00    +0.026 A 
ENDBRANCH   6  10
BRANCH   1  21
ATOM     20  C   UNL     1      -0.159   1.509  -0.040  0.00  0.00    +0.029 C 
ATOM     21  C   UNL     1      -0.290  -0.010  -0.166  0.00  0.00    +0.134 C 
BRANCH  21  22
ATOM     22  S   UNL     1       0.718  -0.591  -1.558  0.00  0.00    -0.113 S 
BRANCH  22  23
ATOM     23  C   UNL     1       0.672  -2.346  -1.415  0.00  0.00    +0.009 A 
ATOM     24  C   UNL     1       0.059  -2.940  -0.318  0.00  0.00    +0.017 A 
ATOM     25  C   UNL     1       0.025  -4.316  -0.209  0.00  0.00    +0.034 A 
ATOM     26  C   UNL     1       0.601  -5.103  -1.190  0.00  0.00    +0.126 A 
ATOM     27  C   UNL     1       1.213  -4.516  -2.282  0.00  0.00    +0.034 A 
ATOM     28  C   UNL     1       1.245  -3.141  -2.401  0.00  0.00    +0.017 A 
BRANCH  26  29
ATOM     29  N   UNL     1       0.562  -6.578  -1.069  0.00  0.00    +0.056 N 
ATOM     30  O   UNL     1       0.028  -7.093  -0.115  0.00  0.00    -0.126 OA
ATOM     31  O   UNL     1       1.065  -7.268  -1.926  0.00  0.00    -0.126 OA
ENDBRANCH  26  29
ENDBRANCH  22  23
ENDBRANCH  21  22
ENDBRANCH   1  21
TORSDOF 5
