REMARK  Name = ZINC38001522
REMARK  6 active torsions:
REMARK  status: ('A' for Active; 'I' for Inactive)
REMARK    1  A    between atoms: C_1  and  C_2
REMARK    2  A    between atoms: C_2  and  C_4
REMARK    3  A    between atoms: C_2  and  O_22
REMARK    4  A    between atoms: C_7  and  O_13
REMARK    5  A    between atoms: C_8  and  N_10
REMARK    6  A    between atoms: O_13  and  C_14
REMARK                            x       y       z     vdW  Elec       q    Type
REMARK                         _______ _______ _______ _____ _____    ______ ____
ROOT
ATOM      1  C   UNL     1       1.107   0.318   1.465  0.00  0.00    -0.017 A 
ATOM      2  C   UNL     1       0.454   0.259   2.683  0.00  0.00    +0.010 A 
ATOM      3  C   UNL     1       0.994  -0.472   3.722  0.00  0.00    +0.049 A 
ATOM      4  C   UNL     1       2.193  -1.149   3.544  0.00  0.00    +0.159 A 
ATOM      5  C   UNL     1       2.845  -1.089   2.321  0.00  0.00    +0.168 A 
ATOM      6  C   UNL     1       2.298  -0.360   1.283  0.00  0.00    +0.042 A 
ENDROOT
BRANCH   5   7
ATOM      7  N   UNL     1       4.123  -1.809   2.127  0.00  0.00    +0.060 N 
ATOM      8  O   UNL     1       4.692  -1.756   1.061  0.00  0.00    -0.126 OA
ATOM      9  O   UNL     1       4.599  -2.451   3.034  0.00  0.00    -0.126 OA
ENDBRANCH   5   7
BRANCH   1  11
ATOM     10  C   UNL     1       0.946   2.580   0.461  0.00  0.00    +0.043 C 
ATOM     11  C   UNL     1       0.515   1.117   0.333  0.00  0.00    +0.141 C 
BRANCH  11  12
ATOM     12  O   UNL     1      -0.910   1.034   0.384  0.00  0.00    -0.387 OA
ATOM     13  H   UNL     1      -1.359   1.526  -0.317  0.00  0.00    +0.210 HD
ENDBRANCH  11  12
ENDBRANCH   1  11
BRANCH   4  14
ATOM     14  O   UNL     1       2.726  -1.869   4.565  0.00  0.00    -0.454 OA
BRANCH  14  15
ATOM     15  C   UNL     1       2.048  -1.906   5.742  0.00  0.00    +0.130 A 
ATOM     16  C   UNL     1       1.105  -2.898   5.970  0.00  0.00    +0.048 A 
ATOM     17  C   UNL     1       0.416  -2.934   7.167  0.00  0.00    +0.025 A 
ATOM     18  C   UNL     1       0.666  -1.982   8.139  0.00  0.00    +0.059 A 
ATOM     19  C   UNL     1       1.607  -0.992   7.915  0.00  0.00    +0.063 A 
ATOM     20  C   UNL     1       2.302  -0.956   6.720  0.00  0.00    +0.067 A 
ATOM     21 CL   UNL     1       1.919   0.202   9.136  0.00  0.00    -0.082 Cl
ATOM     22 CL   UNL     1      -0.201  -2.030   9.643  0.00  0.00    -0.082 Cl
ENDBRANCH  14  15
ENDBRANCH   4  14
TORSDOF 5
