REMARK  Name = ZINC11814445
REMARK  9 active torsions:
REMARK  status: ('A' for Active; 'I' for Inactive)
REMARK    1  A    between atoms: C_1  and  O_2
REMARK    2  A    between atoms: O_2  and  C_3
REMARK    3  A    between atoms: C_3  and  C_5
REMARK    4  A    between atoms: C_8  and  N_22
REMARK    5  A    between atoms: C_11  and  C_12
REMARK    6  A    between atoms: C_11  and  N_60
REMARK    7  A    between atoms: C_15  and  C_18
REMARK    8  A    between atoms: C_23  and  C_25
REMARK    9  A    between atoms: C_30  and  C_31
REMARK                            x       y       z     vdW  Elec       q    Type
REMARK                         _______ _______ _______ _____ _____    ______ ____
ROOT
ATOM      1  C   UNL     1       0.576   2.114  -0.307  0.00  0.00    +0.045 C 
ATOM      2  C   UNL     1       2.118   2.180  -0.172  0.00  0.00    +0.016 C 
ATOM      3  C   UNL     1       2.431   1.005   0.783  0.00  0.00    +0.056 C 
ATOM      4  C   UNL     1       1.222   0.059   0.667  0.00  0.00    -0.055 C 
ATOM      5  N   UNL     1       0.322   0.669  -0.319  0.00  0.00    +0.392 N 
ATOM      6  H   UNL     1       0.520   0.290  -1.252  0.00  0.00    -0.080 HD
ENDROOT
BRANCH   3   7
ATOM      7  N   UNL     1       2.567   1.491   2.159  0.00  0.00    -0.310 N 
ATOM      8  C   UNL     1       3.257   0.768   3.063  0.00  0.00    +0.245 C 
ATOM      9  O   UNL     1       3.767  -0.286   2.738  0.00  0.00    -0.270 OA
ATOM     10  H   UNL     1       2.160   2.332   2.418  0.00  0.00    +0.149 HD
BRANCH   8  11
ATOM     11  C   UNL     1       3.394   1.258   4.449  0.00  0.00    +0.044 A 
ATOM     12  C   UNL     1       2.699   2.394   4.864  0.00  0.00    +0.013 A 
ATOM     13  C   UNL     1       2.826   2.844   6.162  0.00  0.00    +0.001 A 
ATOM     14  C   UNL     1       3.649   2.179   7.057  0.00  0.00    +0.001 A 
ATOM     15  C   UNL     1       4.348   1.056   6.662  0.00  0.00    +0.009 A 
ATOM     16  C   UNL     1       4.229   0.584   5.358  0.00  0.00    -0.006 A 
BRANCH  16  17
ATOM     17  C   UNL     1       4.977  -0.622   4.931  0.00  0.00    -0.017 A 
ATOM     18  C   UNL     1       4.799  -1.831   5.602  0.00  0.00    +0.008 A 
ATOM     19  C   UNL     1       5.495  -2.951   5.196  0.00  0.00    +0.001 A 
ATOM     20  C   UNL     1       6.376  -2.874   4.132  0.00  0.00    +0.000 A 
ATOM     21  C   UNL     1       6.561  -1.676   3.466  0.00  0.00    +0.001 A 
ATOM     22  C   UNL     1       5.866  -0.550   3.859  0.00  0.00    +0.008 A 
ENDBRANCH  16  17
ENDBRANCH   8  11
ENDBRANCH   3   7
BRANCH   1  23
ATOM     23  C   UNL     1       0.127   2.754  -1.596  0.00  0.00    +0.293 C 
ATOM     24  O   UNL     1      -0.379   2.079  -2.461  0.00  0.00    -0.253 OA
BRANCH  23  26
ATOM     25  C   UNL     1      -0.164   4.621  -3.049  0.00  0.00    +0.280 C 
ATOM     26  O   UNL     1       0.291   4.073  -1.783  0.00  0.00    -0.469 OA
ENDBRANCH  23  26
ENDBRANCH   1  23
BRANCH   5  27
ATOM     27  C   UNL     1      -1.101   0.383   0.034  0.00  0.00    -0.042 C 
BRANCH  27  28
ATOM     28  C   UNL     1      -1.412  -1.069  -0.227  0.00  0.00    -0.064 A 
ATOM     29  C   UNL     1      -1.897  -1.461  -1.461  0.00  0.00    +0.002 A 
ATOM     30  C   UNL     1      -2.177  -2.793  -1.702  0.00  0.00    +0.012 A 
ATOM     31  C   UNL     1      -1.983  -3.731  -0.705  0.00  0.00    +0.055 A 
ATOM     32  C   UNL     1      -1.503  -3.338   0.530  0.00  0.00    +0.012 A 
ATOM     33  C   UNL     1      -1.218  -2.007   0.769  0.00  0.00    +0.002 A 
BRANCH  31  34
ATOM     34  C   UNL     1      -2.294  -5.183  -0.966  0.00  0.00    +0.417 C 
ATOM     35  F   UNL     1      -3.627  -5.442  -0.627  0.00  0.00    -0.166 F 
ATOM     36  F   UNL     1      -2.094  -5.466  -2.321  0.00  0.00    -0.166 F 
ATOM     37  F   UNL     1      -1.451  -5.987  -0.191  0.00  0.00    -0.166 F 
ENDBRANCH  31  34
ENDBRANCH  27  28
ENDBRANCH   5  27
TORSDOF 8
