REMARK  Name = ZINC15944143
REMARK  14 active torsions:
REMARK  status: ('A' for Active; 'I' for Inactive)
REMARK    1  A    between atoms: C_1  and  C_2
REMARK    2  A    between atoms: C_2  and  N_3
REMARK    3  A    between atoms: C_6  and  C_20
REMARK    4  A    between atoms: N_22  and  C_23
REMARK    5  A    between atoms: C_23  and  C_24
REMARK    6  A    between atoms: C_24  and  N_25
REMARK    7  A    between atoms: N_25  and  C_26
REMARK    8  A    between atoms: N_25  and  C_30
REMARK    9  A    between atoms: C_26  and  C_27
REMARK   10  A    between atoms: C_27  and  C_28
REMARK   11  A    between atoms: C_27  and  C_29
REMARK   12  A    between atoms: C_30  and  C_31
REMARK   13  A    between atoms: C_31  and  C_32
REMARK   14  A    between atoms: C_31  and  C_33
REMARK                            x       y       z     vdW  Elec       q    Type
REMARK                         _______ _______ _______ _____ _____    ______ ____
ROOT
ATOM      1  N   UNL     1      -2.889   4.791  -1.061  0.00  0.00    -0.267 N 
ATOM      2  C   UNL     1      -3.167   3.966   0.014  0.00  0.00    +0.053 A 
ATOM      3  C   UNL     1      -3.271   4.540   1.281  0.00  0.00    +0.037 A 
ATOM      4  C   UNL     1      -3.545   3.746   2.390  0.00  0.00    +0.039 A 
ATOM      5  C   UNL     1      -3.716   2.369   2.233  0.00  0.00    +0.014 A 
ATOM      6  C   UNL     1      -3.613   1.807   0.978  0.00  0.00    +0.020 A 
ATOM      7  C   UNL     1      -3.341   2.598  -0.125  0.00  0.00    +0.065 A 
ATOM      8  S   UNL     1      -3.224   1.844  -1.714  0.00  0.00    +0.088 S 
ATOM      9  O   UNL     1      -2.026   2.379  -2.261  0.00  0.00    -0.247 OA
ATOM     10  C   UNL     1      -4.502   2.626  -2.642  0.00  0.00    +0.056 A 
ATOM     11  C   UNL     1      -5.517   1.866  -3.186  0.00  0.00    +0.018 A 
ATOM     12  C   UNL     1      -6.523   2.470  -3.918  0.00  0.00    +0.001 A 
ATOM     13  C   UNL     1      -6.514   3.841  -4.107  0.00  0.00    +0.001 A 
ATOM     14  C   UNL     1      -5.506   4.609  -3.567  0.00  0.00    +0.014 A 
ATOM     15  C   UNL     1      -4.483   4.007  -2.823  0.00  0.00    +0.053 A 
ATOM     16  C   UNL     1      -3.428   4.847  -2.250  0.00  0.00    +0.252 C 
ATOM     17  O   UNL     1      -2.990   5.712  -2.984  0.00  0.00    -0.270 OA
ENDROOT
BRANCH   4  18
ATOM     18  C   UNL     1      -3.656   4.358   3.731  0.00  0.00    +0.244 C 
ATOM     19  O   UNL     1      -3.507   5.557   3.866  0.00  0.00    -0.270 OA
ATOM     20  N   UNL     1      -3.922   3.588   4.804  0.00  0.00    -0.313 N 
ATOM     21  H   UNL     1      -4.040   2.631   4.697  0.00  0.00    +0.149 HD
BRANCH  20  22
ATOM     22  C   UNL     1      -4.031   4.195   6.133  0.00  0.00    +0.086 C 
BRANCH  22  23
ATOM     23  C   UNL     1      -4.335   3.109   7.167  0.00  0.00    -0.060 C 
BRANCH  23  24
ATOM     24  N   UNL     1      -4.569   3.731   8.477  0.00  0.00    +0.381 N 
ATOM     25  H   UNL     1      -5.261   4.460   8.384  0.00  0.00    -0.082 HD
BRANCH  24  26
ATOM     26  C   UNL     1      -5.051   2.716   9.422  0.00  0.00    -0.076 C 
BRANCH  26  27
ATOM     27  C   UNL     1      -3.939   1.700   9.691  0.00  0.00    -0.034 C 
ATOM     28  C   UNL     1      -4.431   0.659  10.698  0.00  0.00    +0.005 C 
ATOM     29  C   UNL     1      -3.557   1.004   8.383  0.00  0.00    +0.005 C 
ENDBRANCH  26  27
ENDBRANCH  24  26
BRANCH  24  30
ATOM     30  C   UNL     1      -3.314   4.308   8.976  0.00  0.00    -0.076 C 
BRANCH  30  31
ATOM     31  C   UNL     1      -3.607   5.201  10.183  0.00  0.00    -0.034 C 
ATOM     32  C   UNL     1      -3.623   4.350  11.455  0.00  0.00    +0.005 C 
ATOM     33  C   UNL     1      -2.522   6.273  10.300  0.00  0.00    +0.005 C 
ENDBRANCH  30  31
ENDBRANCH  24  30
ENDBRANCH  23  24
ENDBRANCH  22  23
ENDBRANCH  20  22
ENDBRANCH   4  18
BRANCH   1  35
ATOM     34  C   UNL     1      -0.497   5.207  -1.354  0.00  0.00    +0.025 C 
ATOM     35  C   UNL     1      -1.821   5.765  -0.826  0.00  0.00    +0.110 C 
ENDBRANCH   1  35
TORSDOF 9
