REMARK  Name = ZINC22823281
REMARK  13 active torsions:
REMARK  status: ('A' for Active; 'I' for Inactive)
REMARK    1  A    between atoms: C_1  and  C_2
REMARK    2  A    between atoms: C_5  and  C_35
REMARK    3  A    between atoms: C_6  and  N_8
REMARK    4  A    between atoms: N_8  and  C_9
REMARK    5  A    between atoms: C_9  and  N_11
REMARK    6  A    between atoms: N_11  and  N_12
REMARK    7  A    between atoms: C_13  and  C_15
REMARK    8  A    between atoms: C_15  and  S_16
REMARK    9  A    between atoms: S_16  and  C_17
REMARK   10  A    between atoms: C_20  and  C_29
REMARK   11  A    between atoms: N_21  and  C_22
REMARK   12  A    between atoms: C_22  and  C_23
REMARK   13  A    between atoms: N_32  and  C_34
REMARK                            x       y       z     vdW  Elec       q    Type
REMARK                         _______ _______ _______ _____ _____    ______ ____
ROOT
ATOM      1  C   UNL     1      -6.240  -1.055   2.032  0.00  0.00    +0.174 C 
ENDROOT
BRANCH   1   3
ATOM      2  N   UNL     1      -6.840  -2.123   4.181  0.00  0.00    -0.234 N 
ATOM      3  C   UNL     1      -5.888  -1.839   3.270  0.00  0.00    +0.239 C 
ATOM      4  O   UNL     1      -4.749  -2.216   3.446  0.00  0.00    -0.273 OA
ATOM      5  H   UNL     1      -7.874  -1.781   4.021  0.00  0.00    +0.173 HD
BRANCH   2   6
ATOM      6  N   UNL     1      -6.514  -2.852   5.332  0.00  0.00    -0.246 N 
ATOM      7  H   UNL     1      -5.480  -3.193   5.492  0.00  0.00    +0.172 HD
BRANCH   6   8
ATOM      8  C   UNL     1      -7.466  -3.135   6.243  0.00  0.00    +0.151 C 
ATOM      9  S   UNL     1      -7.067  -4.027   7.649  0.00  0.00    -0.017 S 
BRANCH   8  10
ATOM     10  N   UNL     1      -8.732  -2.717   6.047  0.00  0.00    -0.296 N 
ATOM     11  H   UNL     1      -8.970  -2.068   5.191  0.00  0.00    +0.154 HD
BRANCH  10  17
ATOM     12  C   UNL     1     -10.910  -6.241   8.694  0.00  0.00    +0.044 C 
ATOM     13  C   UNL     1     -10.822  -4.809   8.231  0.00  0.00    -0.049 A 
ATOM     14  C   UNL     1     -11.741  -3.880   8.683  0.00  0.00    +0.004 A 
ATOM     15  C   UNL     1     -11.664  -2.565   8.260  0.00  0.00    +0.005 A 
ATOM     16  C   UNL     1     -10.664  -2.175   7.391  0.00  0.00    -0.029 A 
ATOM     17  C   UNL     1      -9.742  -3.107   6.932  0.00  0.00    +0.036 A 
ATOM     18  C   UNL     1      -9.823  -4.427   7.358  0.00  0.00    +0.027 A 
ATOM     19  C   UNL     1     -10.576  -0.741   6.937  0.00  0.00    +0.045 C 
ENDBRANCH  10  17
ENDBRANCH   8  10
ENDBRANCH   6   8
ENDBRANCH   2   6
ENDBRANCH   1   3
BRANCH   1  20
ATOM     20  S   UNL     1      -4.759  -0.839   1.014  0.00  0.00    -0.077 S 
BRANCH  20  21
ATOM     21  C   UNL     1      -5.439   0.082  -0.325  0.00  0.00    +0.192 A 
ATOM     22  N   UNL     1      -6.691   0.462  -0.453  0.00  0.00    -0.122 NA
ATOM     23  N   UNL     1      -6.844   1.111  -1.552  0.00  0.00    -0.127 NA
ATOM     24  C   UNL     1      -5.700   1.191  -2.189  0.00  0.00    +0.185 A 
ATOM     25  N   UNL     1      -4.764   0.538  -1.421  0.00  0.00    -0.298 N 
BRANCH  24  26
ATOM     26  C   UNL     1      -5.462   1.857  -3.488  0.00  0.00    +0.130 A 
ATOM     27  C   UNL     1      -6.428   2.524  -4.268  0.00  0.00    +0.052 A 
ATOM     28  C   UNL     1      -5.814   2.993  -5.375  0.00  0.00    +0.108 A 
ATOM     29  N   UNL     1      -4.511   2.644  -5.311  0.00  0.00    -0.274 N 
ATOM     30  N   UNL     1      -4.307   1.936  -4.119  0.00  0.00    -0.168 NA
ATOM     31  C   UNL     1      -3.487   2.956  -6.311  0.00  0.00    +0.172 C 
ENDBRANCH  24  26
BRANCH  25  32
ATOM     32  C   UNL     1      -3.340   0.362  -1.720  0.00  0.00    +0.157 C 
BRANCH  32  33
ATOM     33  C   UNL     1      -2.548   1.534  -1.137  0.00  0.00    +0.138 C 
ATOM     34  C   UNL     1      -1.068   1.424  -1.553  0.00  0.00    +0.035 C 
ATOM     35  C   UNL     1      -0.300   1.371  -0.210  0.00  0.00    +0.031 C 
ATOM     36  C   UNL     1      -1.324   1.990   0.775  0.00  0.00    +0.160 C 
ATOM     37  O   UNL     1      -2.593   1.492   0.299  0.00  0.00    -0.375 OA
ENDBRANCH  32  33
ENDBRANCH  25  32
ENDBRANCH  20  21
ENDBRANCH   1  20
TORSDOF 10
