REMARK  Name = ZINC00847595
REMARK  12 active torsions:
REMARK  status: ('A' for Active; 'I' for Inactive)
REMARK    1  A    between atoms: C_1  and  C_2
REMARK    2  A    between atoms: C_2  and  O_3
REMARK    3  A    between atoms: O_3  and  C_4
REMARK    4  A    between atoms: C_4  and  C_6
REMARK    5  A    between atoms: C_7  and  C_36
REMARK    6  A    between atoms: C_11  and  C_13
REMARK    7  A    between atoms: C_16  and  O_21
REMARK    8  A    between atoms: C_17  and  O_19
REMARK    9  A    between atoms: O_19  and  C_20
REMARK   10  A    between atoms: C_25  and  C_28
REMARK   11  A    between atoms: C_31  and  O_34
REMARK   12  A    between atoms: O_34  and  C_35
REMARK                            x       y       z     vdW  Elec       q    Type
REMARK                         _______ _______ _______ _____ _____    ______ ____
ROOT
ATOM      1  C   UNL     1       2.453   0.271   1.201  0.00  0.00    +0.065 C 
ATOM      2  C   UNL     1       2.274  -1.061   1.215  0.00  0.00    +0.016 C 
ATOM      3  N   UNL     1       2.108  -1.750   0.046  0.00  0.00    -0.321 N 
ATOM      4  C   UNL     1       2.506  -1.207  -1.146  0.00  0.00    +0.016 C 
ATOM      5  C   UNL     1       2.691   0.124  -1.263  0.00  0.00    +0.024 C 
ATOM      6  C   UNL     1       2.467   1.041  -0.087  0.00  0.00    +0.092 C 
ATOM      7  C   UNL     1       3.096   0.694  -2.483  0.00  0.00    +0.162 C 
ATOM      8  O   UNL     1       3.268   1.895  -2.552  0.00  0.00    -0.292 OA
ATOM      9  C   UNL     1       3.320  -0.156  -3.703  0.00  0.00    +0.088 C 
ATOM     10  C   UNL     1       2.422  -1.395  -3.620  0.00  0.00    +0.032 C 
ATOM     11  C   UNL     1       2.734  -2.130  -2.317  0.00  0.00    +0.059 C 
ATOM     12  C   UNL     1       2.256  -1.800   2.528  0.00  0.00    +0.061 C 
ATOM     13  H   UNL     1       1.651  -2.751   0.058  0.00  0.00    +0.152 HD
ENDROOT
BRANCH   6  14
ATOM     14  C   UNL     1       1.147   1.748  -0.255  0.00  0.00    -0.032 A 
ATOM     15  C   UNL     1      -0.024   1.015  -0.325  0.00  0.00    +0.008 A 
ATOM     16  C   UNL     1      -1.237   1.658  -0.485  0.00  0.00    +0.049 A 
ATOM     17  C   UNL     1      -1.283   3.041  -0.564  0.00  0.00    +0.158 A 
ATOM     18  C   UNL     1      -0.105   3.778  -0.493  0.00  0.00    +0.162 A 
ATOM     19  C   UNL     1       1.109   3.127  -0.339  0.00  0.00    +0.054 A 
BRANCH  18  20
ATOM     20  O   UNL     1      -0.144   5.135  -0.577  0.00  0.00    -0.491 OA
ATOM     21  C   UNL     1       1.104   5.827  -0.497  0.00  0.00    +0.277 C 
ENDBRANCH  18  20
BRANCH  17  22
ATOM     22  O   UNL     1      -2.476   3.676  -0.716  0.00  0.00    -0.503 OA
ATOM     23  H   UNL     1      -2.511   4.773  -0.778  0.00  0.00    +0.292 HD
ENDBRANCH  17  22
ENDBRANCH   6  14
BRANCH  10  24
ATOM     24  C   UNL     1       2.699  -2.301  -4.791  0.00  0.00    -0.043 A 
ATOM     25  C   UNL     1       3.968  -2.817  -4.980  0.00  0.00    +0.007 A 
ATOM     26  C   UNL     1       4.223  -3.652  -6.050  0.00  0.00    +0.046 A 
ATOM     27  C   UNL     1       3.208  -3.965  -6.942  0.00  0.00    +0.120 A 
ATOM     28  C   UNL     1       1.937  -3.441  -6.754  0.00  0.00    +0.046 A 
ATOM     29  C   UNL     1       1.685  -2.611  -5.679  0.00  0.00    +0.007 A 
BRANCH  27  30
ATOM     30  O   UNL     1       3.457  -4.782  -7.999  0.00  0.00    -0.495 OA
ATOM     31  C   UNL     1       4.789  -5.285  -8.130  0.00  0.00    +0.277 C 
ENDBRANCH  27  30
ENDBRANCH  10  24
BRANCH   1  32
ATOM     32  C   UNL     1       2.631   0.960   2.423  0.00  0.00    +0.338 C 
ATOM     33  O   UNL     1       3.734   1.367   2.737  0.00  0.00    -0.245 OA
BRANCH  32  34
ATOM     34  O   UNL     1       1.578   1.166   3.241  0.00  0.00    -0.462 OA
BRANCH  34  36
ATOM     35  C   UNL     1       0.526   2.005   5.249  0.00  0.00    +0.048 C 
ATOM     36  C   UNL     1       1.830   1.869   4.460  0.00  0.00    +0.229 C 
ENDBRANCH  34  36
ENDBRANCH  32  34
ENDBRANCH   1  32
TORSDOF 8
