REMARK  Name = ZINC62933018
REMARK  8 active torsions:
REMARK  status: ('A' for Active; 'I' for Inactive)
REMARK    1  A    between atoms: C_1  and  C_2
REMARK    2  A    between atoms: C_2  and  C_3
REMARK    3  A    between atoms: C_3  and  C_19
REMARK    4  A    between atoms: N_10  and  C_11
REMARK    5  A    between atoms: C_11  and  C_13
REMARK    6  A    between atoms: C_11  and  C_14
REMARK    7  A    between atoms: N_16  and  C_17
REMARK    8  A    between atoms: N_16  and  C_18
REMARK                            x       y       z     vdW  Elec       q    Type
REMARK                         _______ _______ _______ _____ _____    ______ ____
ROOT
ATOM      1  C   UNL     1      -1.433  -0.534   0.013  0.00  0.00    +0.089 C 
ATOM      2  C   UNL     1      -1.435  -2.078   0.079  0.00  0.00    +0.039 C 
ATOM      3  C   UNL     1      -1.633  -2.358   1.590  0.00  0.00    +0.110 C 
ATOM      4  N   UNL     1      -2.576  -1.297   2.011  0.00  0.00    -0.285 N 
ATOM      5  C   UNL     1      -2.162  -0.078   1.291  0.00  0.00    +0.127 C 
ATOM      6  C   UNL     1      -3.603  -1.419   2.875  0.00  0.00    +0.303 C 
ATOM      7  O   UNL     1      -4.301  -0.457   3.131  0.00  0.00    -0.253 OA
ATOM      8  N   UNL     1      -3.856  -2.609   3.456  0.00  0.00    -0.288 N 
ATOM      9  H   UNL     1      -3.300  -3.377   3.252  0.00  0.00    +0.151 HD
ENDROOT
BRANCH   1  10
ATOM     10  C   UNL     1      -2.175  -0.059  -1.210  0.00  0.00    +0.364 C 
ATOM     11  O   UNL     1      -1.607   0.636  -2.036  0.00  0.00    -0.246 OA
ATOM     12  O   UNL     1      -3.343  -0.368  -1.373  0.00  0.00    -0.246 OA
ENDBRANCH   1  10
BRANCH   1  14
ATOM     13  C   UNL     1      -0.019   1.526   0.010  0.00  0.00    +0.005 C 
ATOM     14  C   UNL     1       0.002  -0.004   0.002  0.00  0.00    +0.016 C 
ENDBRANCH   1  14
BRANCH   8  15
ATOM     15  C   UNL     1      -4.973  -2.742   4.396  0.00  0.00    +0.157 C 
ATOM     16  C   UNL     1      -6.263  -3.012   3.619  0.00  0.00    +0.038 C 
BRANCH  15  17
ATOM     17  C   UNL     1      -4.703  -3.888   5.337  0.00  0.00    +0.235 C 
ATOM     18  O   UNL     1      -3.680  -4.530   5.232  0.00  0.00    -0.274 OA
ATOM     19  N   UNL     1      -5.600  -4.199   6.293  0.00  0.00    -0.306 N 
ATOM     20  C   UNL     1      -5.338  -5.314   7.208  0.00  0.00    +0.131 C 
ATOM     21  C   UNL     1      -6.836  -3.424   6.419  0.00  0.00    +0.131 C 
ENDBRANCH  15  17
ENDBRANCH   8  15
TORSDOF 4
