REMARK  Name = ZINC20610398
REMARK  7 active torsions:
REMARK  status: ('A' for Active; 'I' for Inactive)
REMARK    1  A    between atoms: C_1  and  C_2
REMARK    2  A    between atoms: C_3  and  C_32
REMARK    3  A    between atoms: C_12  and  C_13
REMARK    4  A    between atoms: N_16  and  C_18
REMARK    5  A    between atoms: C_18  and  C_19
REMARK    6  A    between atoms: C_19  and  C_20
REMARK    7  A    between atoms: C_19  and  C_26
REMARK                            x       y       z     vdW  Elec       q    Type
REMARK                         _______ _______ _______ _____ _____    ______ ____
ROOT
ATOM      1  C   UNL     1       6.469   3.589   1.088  0.00  0.00    +0.045 C 
ATOM      2  C   UNL     1       5.239   4.420   1.348  0.00  0.00    -0.030 A 
ATOM      3  C   UNL     1       5.319   5.769   1.492  0.00  0.00    +0.037 A 
ATOM      4  C   UNL     1       4.149   6.514   1.735  0.00  0.00    +0.340 A 
ATOM      5  O   UNL     1       4.242   7.722   1.860  0.00  0.00    -0.245 OA
ATOM      6  O   UNL     1       2.939   5.953   1.833  0.00  0.00    -0.422 OA
ATOM      7  C   UNL     1       2.797   4.620   1.699  0.00  0.00    +0.146 A 
ATOM      8  C   UNL     1       3.915   3.801   1.455  0.00  0.00    +0.022 A 
ATOM      9  C   UNL     1       3.756   2.419   1.317  0.00  0.00    +0.020 A 
ATOM     10  C   UNL     1       2.513   1.860   1.419  0.00  0.00    +0.009 A 
ATOM     11  C   UNL     1       1.401   2.662   1.662  0.00  0.00    +0.133 A 
ATOM     12  C   UNL     1       1.543   4.035   1.800  0.00  0.00    +0.034 A 
ATOM     13  C   UNL     1       0.332   4.894   2.061  0.00  0.00    +0.051 C 
ATOM     14  O   UNL     1       0.161   2.116   1.768  0.00  0.00    -0.476 OA
ATOM     15  C   UNL     1      -0.010   0.786   1.270  0.00  0.00    +0.318 C 
ATOM     16  N   UNL     1       1.068  -0.059   1.809  0.00  0.00    -0.265 NA
ATOM     17  C   UNL     1       2.365   0.367   1.265  0.00  0.00    +0.126 C 
ATOM     18  C   UNL     1       6.653   6.464   1.393  0.00  0.00    +0.051 C 
ENDROOT
BRANCH  16  19
ATOM     19  C   UNL     1       0.817  -1.478   1.523  0.00  0.00    +0.100 C 
BRANCH  19  20
ATOM     20  C   UNL     1       1.715  -2.343   2.409  0.00  0.00    +0.063 C 
BRANCH  20  21
ATOM     21  C   UNL     1       1.364  -2.114   3.857  0.00  0.00    -0.039 A 
ATOM     22  C   UNL     1       2.354  -1.793   4.766  0.00  0.00    +0.004 A 
ATOM     23  C   UNL     1       2.031  -1.577   6.093  0.00  0.00    +0.000 A 
ATOM     24  C   UNL     1       0.719  -1.692   6.512  0.00  0.00    +0.000 A 
ATOM     25  C   UNL     1      -0.271  -2.018   5.604  0.00  0.00    +0.000 A 
ATOM     26  C   UNL     1       0.052  -2.228   4.276  0.00  0.00    +0.004 A 
ENDBRANCH  20  21
BRANCH  20  27
ATOM     27  C   UNL     1       1.509  -3.796   2.067  0.00  0.00    -0.039 A 
ATOM     28  C   UNL     1       0.233  -4.327   2.046  0.00  0.00    +0.004 A 
ATOM     29  C   UNL     1       0.043  -5.658   1.726  0.00  0.00    +0.000 A 
ATOM     30  C   UNL     1       1.131  -6.462   1.439  0.00  0.00    +0.000 A 
ATOM     31  C   UNL     1       2.408  -5.933   1.466  0.00  0.00    +0.000 A 
ATOM     32  C   UNL     1       2.597  -4.600   1.780  0.00  0.00    +0.004 A 
ENDBRANCH  20  27
ENDBRANCH  19  20
ENDBRANCH  16  19
TORSDOF 4
