REMARK  Name = ZINC56595904
REMARK  9 active torsions:
REMARK  status: ('A' for Active; 'I' for Inactive)
REMARK    1  A    between atoms: C_1  and  C_2
REMARK    2  A    between atoms: C_5  and  C_30
REMARK    3  A    between atoms: N_8  and  C_10
REMARK    4  A    between atoms: C_10  and  C_11
REMARK    5  A    between atoms: C_11  and  C_13
REMARK    6  A    between atoms: C_11  and  N_14
REMARK    7  A    between atoms: N_17  and  C_18
REMARK    8  A    between atoms: C_21  and  C_24
REMARK    9  A    between atoms: N_26  and  C_27
REMARK                            x       y       z     vdW  Elec       q    Type
REMARK                         _______ _______ _______ _____ _____    ______ ____
ROOT
ATOM      1  N   UNL     1       3.514  -2.498   0.953  0.00  0.00    -0.298 N 
ATOM      2  C   UNL     1       4.538  -1.850   0.364  0.00  0.00    +0.304 C 
ATOM      3  O   UNL     1       5.031  -0.877   0.900  0.00  0.00    -0.253 OA
ATOM      4  N   UNL     1       5.016  -2.281  -0.821  0.00  0.00    -0.269 N 
ATOM      5  H   UNL     1       3.120  -3.275   0.525  0.00  0.00    +0.150 HD
ATOM      6  H   UNL     1       4.668  -3.095  -1.217  0.00  0.00    +0.156 HD
ENDROOT
BRANCH   4   7
ATOM      7  C   UNL     1       6.010  -1.556  -1.477  0.00  0.00    +0.035 A 
ATOM      8  C   UNL     1       6.997  -0.908  -0.741  0.00  0.00    +0.024 A 
ATOM      9  C   UNL     1       7.980  -0.192  -1.385  0.00  0.00    +0.015 A 
ATOM     10  C   UNL     1       7.986  -0.116  -2.780  0.00  0.00    +0.037 A 
ATOM     11  C   UNL     1       6.993  -0.768  -3.517  0.00  0.00    +0.015 A 
ATOM     12  C   UNL     1       6.016  -1.487  -2.866  0.00  0.00    +0.024 A 
BRANCH  10  13
ATOM     13  C   UNL     1       9.038   0.652  -3.475  0.00  0.00    +0.244 C 
ATOM     14  O   UNL     1       9.901   1.219  -2.833  0.00  0.00    -0.270 OA
ATOM     15  N   UNL     1       9.042   0.724  -4.821  0.00  0.00    -0.308 N 
ATOM     16  H   UNL     1       8.354   0.272  -5.333  0.00  0.00    +0.149 HD
BRANCH  15  17
ATOM     17  C   UNL     1      10.087   1.486  -5.510  0.00  0.00    +0.073 C 
ATOM     18  C   UNL     1       9.655   2.387  -6.669  0.00  0.00    +0.024 C 
ATOM     19  C   UNL     1      10.416   1.090  -6.951  0.00  0.00    +0.024 C 
ENDBRANCH  15  17
ENDBRANCH  10  13
ENDBRANCH   4   7
BRANCH   1  20
ATOM     20  C   UNL     1       2.995  -2.030   2.240  0.00  0.00    +0.055 C 
ATOM     21  C   UNL     1       3.832  -2.625   3.375  0.00  0.00    +0.026 C 
BRANCH  20  22
ATOM     22  C   UNL     1       1.538  -2.473   2.395  0.00  0.00    -0.057 C 
BRANCH  22  28
ATOM     23  C   UNL     1      -0.045   1.493   0.001  0.00  0.00    +0.005 C 
ATOM     24  C   UNL     1      -0.013  -0.037  -0.002  0.00  0.00    -0.031 C 
ATOM     25  C   UNL     1      -1.446  -0.578   0.015  0.00  0.00    +0.003 C 
ATOM     26  C   UNL     1      -1.402  -2.107   0.092  0.00  0.00    -0.031 C 
ATOM     27  C   UNL     1      -0.609  -2.528   1.331  0.00  0.00    -0.076 C 
ATOM     28  N   UNL     1       0.759  -2.002   1.242  0.00  0.00    +0.381 N 
ATOM     29  C   UNL     1       0.730  -0.534   1.240  0.00  0.00    -0.076 C 
ATOM     30  C   UNL     1      -0.725  -2.662  -1.163  0.00  0.00    +0.005 C 
ATOM     31  H   UNL     1       1.189  -2.329   0.391  0.00  0.00    -0.082 HD
ENDBRANCH  22  28
ENDBRANCH  20  22
ENDBRANCH   1  20
TORSDOF 6
