REMARK  Name = ZINC09812983
REMARK  6 active torsions:
REMARK  status: ('A' for Active; 'I' for Inactive)
REMARK    1  A    between atoms: C_4  and  S_26
REMARK    2  A    between atoms: C_5  and  C_7
REMARK    3  A    between atoms: C_7  and  O_9
REMARK    4  A    between atoms: O_9  and  C_10
REMARK    5  A    between atoms: C_10  and  C_11
REMARK    6  A    between atoms: S_26  and  C_27
REMARK                            x       y       z     vdW  Elec       q    Type
REMARK                         _______ _______ _______ _____ _____    ______ ____
ROOT
ATOM      1  O   UNL     1      -1.913   8.159  -4.780  0.00  0.00    -0.453 OA
ENDROOT
BRANCH   1   2
ATOM      2  C   UNL     1      -2.228   9.149  -5.638  0.00  0.00    +0.341 C 
ATOM      3  O   UNL     1      -2.585   8.882  -6.769  0.00  0.00    -0.245 OA
BRANCH   2   8
ATOM      4  C   UNL     1      -1.651  12.183  -3.510  0.00  0.00    +0.001 A 
ATOM      5  C   UNL     1      -1.975  13.202  -4.392  0.00  0.00    +0.001 A 
ATOM      6  C   UNL     1      -2.381  12.912  -5.677  0.00  0.00    +0.015 A 
ATOM      7  C   UNL     1      -2.463  11.589  -6.100  0.00  0.00    +0.022 A 
ATOM      8  C   UNL     1      -2.141  10.554  -5.207  0.00  0.00    +0.072 A 
ATOM      9  C   UNL     1      -1.731  10.867  -3.907  0.00  0.00    +0.016 A 
BRANCH   7  10
ATOM     10  S   UNL     1      -2.974  11.214  -7.744  0.00  0.00    -0.119 S 
BRANCH  10  11
ATOM     11  C   UNL     1      -3.424  12.871  -8.319  0.00  0.00    +0.074 C 
ATOM     12  C   UNL     1      -3.681  12.843  -9.834  0.00  0.00    +0.039 C 
ATOM     13  C   UNL     1      -4.369  14.156 -10.278  0.00  0.00    +0.167 C 
ATOM     14  S   UNL     1      -5.279  14.666  -8.763  0.00  0.00    -0.030 S 
ATOM     15  O   UNL     1      -4.761  15.910  -8.309  0.00  0.00    -0.174 OA
ATOM     16  O   UNL     1      -6.674  14.533  -8.995  0.00  0.00    -0.174 OA
ATOM     17  C   UNL     1      -4.731  13.334  -7.614  0.00  0.00    +0.180 C 
ENDBRANCH  10  11
ENDBRANCH   7  10
ENDBRANCH   2   8
ENDBRANCH   1   2
BRANCH   1  18
ATOM     18  C   UNL     1      -2.022   6.798  -5.274  0.00  0.00    +0.306 C 
BRANCH  18  19
ATOM     19  C   UNL     1      -1.632   5.835  -4.182  0.00  0.00    +0.150 A 
ATOM     20  N   UNL     1      -1.261   6.345  -2.980  0.00  0.00    -0.335 N 
ATOM     21  H   UNL     1      -1.250   7.433  -2.824  0.00  0.00    +0.168 HD
ATOM     22  C   UNL     1      -0.915   5.455  -2.015  0.00  0.00    +0.092 A 
ATOM     23  C   UNL     1      -0.928   4.063  -2.217  0.00  0.00    +0.075 A 
ATOM     24  C   UNL     1      -0.530   3.246  -1.086  0.00  0.00    -0.023 A 
ATOM     25  C   UNL     1      -0.188   3.905   0.046  0.00  0.00    -0.004 A 
ATOM     26  S   UNL     1      -0.380   5.626  -0.345  0.00  0.00    -0.075 S 
ATOM     27  C   UNL     1       0.256   3.307   1.345  0.00  0.00    +0.043 C 
ATOM     28  C   UNL     1      -0.086   1.810   1.333  0.00  0.00    +0.005 C 
ATOM     29  C   UNL     1       0.390   1.211   0.006  0.00  0.00    +0.005 C 
ATOM     30  C   UNL     1      -0.488   1.721  -1.137  0.00  0.00    +0.037 C 
ATOM     31  C   UNL     1      -1.346   3.594  -3.560  0.00  0.00    +0.282 A 
ATOM     32  O   UNL     1      -1.395   2.408  -3.847  0.00  0.00    -0.265 OA
ATOM     33  N   UNL     1      -1.669   4.561  -4.445  0.00  0.00    -0.192 NA
ENDBRANCH  18  19
ENDBRANCH   1  18
TORSDOF 6
