REMARK  Name = ZINC16719459
REMARK  11 active torsions:
REMARK  status: ('A' for Active; 'I' for Inactive)
REMARK    1  A    between atoms: C_1  and  C_2
REMARK    2  A    between atoms: C_2  and  C_4
REMARK    3  A    between atoms: C_2  and  S_19
REMARK    4  A    between atoms: C_16  and  C_17
REMARK    5  A    between atoms: C_16  and  C_18
REMARK    6  A    between atoms: S_19  and  C_20
REMARK    7  A    between atoms: C_23  and  C_29
REMARK    8  A    between atoms: N_24  and  C_25
REMARK    9  A    between atoms: C_25  and  C_26
REMARK   10  A    between atoms: C_26  and  C_27
REMARK   11  A    between atoms: C_26  and  C_28
REMARK                            x       y       z     vdW  Elec       q    Type
REMARK                         _______ _______ _______ _____ _____    ______ ____
ROOT
ATOM      1  C   UNL     1       0.246  -0.192  -0.901  0.00  0.00    +0.029 C 
ATOM      2  C   UNL     1       0.140  -1.526  -1.641  0.00  0.00    +0.137 C 
ENDROOT
BRANCH   2   3
ATOM      3  C   UNL     1      -1.311  -1.908  -1.784  0.00  0.00    +0.234 C 
ATOM      4  O   UNL     1      -1.901  -2.408  -0.849  0.00  0.00    -0.274 OA
ATOM      5  N   UNL     1      -1.953  -1.694  -2.949  0.00  0.00    -0.255 N 
ATOM      6  C   UNL     1      -1.283  -1.150  -4.056  0.00  0.00    +0.059 A 
ATOM      7  C   UNL     1      -0.212  -0.291  -3.891  0.00  0.00    +0.025 A 
ATOM      8  C   UNL     1       0.426   0.232  -5.002  0.00  0.00    +0.002 A 
ATOM      9  C   UNL     1      -0.005  -0.103  -6.273  0.00  0.00    +0.002 A 
ATOM     10  C   UNL     1      -1.075  -0.962  -6.444  0.00  0.00    +0.025 A 
ATOM     11  C   UNL     1      -1.718  -1.492  -5.338  0.00  0.00    +0.055 A 
ATOM     12  N   UNL     1      -2.795  -2.373  -5.489  0.00  0.00    -0.282 N 
ATOM     13  C   UNL     1      -3.592  -2.671  -4.446  0.00  0.00    +0.241 C 
ATOM     14  O   UNL     1      -4.492  -3.471  -4.589  0.00  0.00    -0.273 OA
ATOM     15  C   UNL     1      -3.377  -2.028  -3.103  0.00  0.00    +0.113 C 
ATOM     16  C   UNL     1      -3.798  -2.999  -1.998  0.00  0.00    +0.042 C 
ATOM     17  C   UNL     1      -4.215  -0.751  -3.012  0.00  0.00    +0.042 C 
ATOM     18  H   UNL     1      -2.969  -2.773  -6.355  0.00  0.00    +0.155 HD
ENDBRANCH   2   3
BRANCH   2  19
ATOM     19  S   UNL     1       1.013  -2.809  -0.703  0.00  0.00    -0.073 S 
BRANCH  19  20
ATOM     20  C   UNL     1       2.699  -2.299  -0.751  0.00  0.00    +0.193 A 
ATOM     21  N   UNL     1       3.171  -1.223  -1.338  0.00  0.00    -0.122 NA
ATOM     22  N   UNL     1       4.445  -1.155  -1.178  0.00  0.00    -0.128 NA
ATOM     23  C   UNL     1       4.864  -2.184  -0.479  0.00  0.00    +0.168 A 
ATOM     24  N   UNL     1       3.758  -2.946  -0.179  0.00  0.00    -0.302 N 
BRANCH  23  25
ATOM     25  C   UNL     1       6.260  -2.468  -0.084  0.00  0.00    +0.054 A 
ATOM     26  C   UNL     1       6.541  -3.518   0.791  0.00  0.00    +0.014 A 
ATOM     27  C   UNL     1       7.845  -3.778   1.156  0.00  0.00    +0.001 A 
ATOM     28  C   UNL     1       8.876  -3.001   0.657  0.00  0.00    +0.003 A 
ATOM     29  C   UNL     1       8.606  -1.958  -0.210  0.00  0.00    +0.039 A 
ATOM     30  C   UNL     1       7.304  -1.690  -0.589  0.00  0.00    +0.134 A 
ATOM     31  F   UNL     1       7.042  -0.675  -1.442  0.00  0.00    -0.205 F 
ENDBRANCH  23  25
BRANCH  24  32
ATOM     32  C   UNL     1       3.723  -4.191   0.591  0.00  0.00    +0.129 C 
BRANCH  32  33
ATOM     33  C   UNL     1       3.646  -3.866   2.084  0.00  0.00    +0.003 C 
ATOM     34  C   UNL     1       2.301  -3.205   2.393  0.00  0.00    +0.009 C 
ATOM     35  C   UNL     1       3.777  -5.157   2.895  0.00  0.00    +0.009 C 
ENDBRANCH  32  33
ENDBRANCH  24  32
ENDBRANCH  19  20
ENDBRANCH   2  19
TORSDOF 6
