REMARK  Name = ZINC28295089
REMARK  4 active torsions:
REMARK  status: ('A' for Active; 'I' for Inactive)
REMARK    1  A    between atoms: C_4  and  O_30
REMARK    2  A    between atoms: C_5  and  C_7
REMARK    3  A    between atoms: N_23  and  C_26
REMARK    4  A    between atoms: C_26  and  C_27
REMARK                            x       y       z     vdW  Elec       q    Type
REMARK                         _______ _______ _______ _____ _____    ______ ____
ROOT
ATOM      1  C   UNL     1       1.227  -2.187  -0.022  0.00  0.00    +0.075 C 
ATOM      2  C   UNL     1       0.716  -2.666   1.288  0.00  0.00    +0.033 A 
ATOM      3  C   UNL     1      -0.196  -3.623   1.537  0.00  0.00    +0.088 A 
ATOM      4  N   UNL     1      -0.436  -3.862   2.872  0.00  0.00    -0.311 N 
ATOM      5  H   UNL     1      -1.066  -4.551   3.135  0.00  0.00    +0.170 HD
ATOM      6  C   UNL     1       0.204  -3.142   3.811  0.00  0.00    +0.289 A 
ATOM      7  O   UNL     1       0.104  -3.221   5.023  0.00  0.00    -0.260 OA
ATOM      8  S   UNL     1       1.175  -2.107   2.910  0.00  0.00    -0.030 S 
ATOM      9  S   UNL     1      -1.025  -4.471   0.218  0.00  0.00    -0.093 S 
ATOM     10  C   UNL     1       0.002  -4.112  -1.243  0.00  0.00    +0.152 C 
ATOM     11  C   UNL     1       0.474  -2.654  -1.209  0.00  0.00    +0.110 C 
ATOM     12  C   UNL     1      -0.728  -1.885  -1.663  0.00  0.00    +0.228 C 
ATOM     13  O   UNL     1      -1.008  -0.738  -1.387  0.00  0.00    -0.275 OA
ATOM     14  N   UNL     1      -1.437  -2.733  -2.445  0.00  0.00    -0.230 N 
ATOM     15  C   UNL     1      -0.986  -4.005  -2.419  0.00  0.00    +0.236 C 
ATOM     16  O   UNL     1      -1.304  -4.899  -3.173  0.00  0.00    -0.274 OA
ENDROOT
BRANCH   1  21
ATOM     17  C   UNL     1       0.159   1.377   0.623  0.00  0.00    +0.001 A 
ATOM     18  C   UNL     1       1.170   2.088   0.003  0.00  0.00    +0.004 A 
ATOM     19  C   UNL     1       2.200   1.419  -0.627  0.00  0.00    +0.046 A 
ATOM     20  C   UNL     1       2.222   0.031  -0.637  0.00  0.00    +0.121 A 
ATOM     21  C   UNL     1       1.207  -0.680  -0.013  0.00  0.00    +0.003 A 
ATOM     22  C   UNL     1       0.178  -0.005   0.615  0.00  0.00    +0.008 A 
BRANCH  20  23
ATOM     23  O   UNL     1       3.235  -0.630  -1.256  0.00  0.00    -0.506 OA
ATOM     24  H   UNL     1       3.990  -0.819  -0.683  0.00  0.00    +0.292 HD
ENDBRANCH  20  23
ENDBRANCH   1  21
BRANCH  14  25
ATOM     25  C   UNL     1      -2.582  -2.306  -3.252  0.00  0.00    +0.241 C 
BRANCH  25  26
ATOM     26  C   UNL     1      -2.105  -1.884  -4.618  0.00  0.00    +0.373 C 
ATOM     27  O   UNL     1      -0.917  -1.935  -4.891  0.00  0.00    -0.245 OA
ATOM     28  O   UNL     1      -2.905  -1.492  -5.450  0.00  0.00    -0.245 OA
ENDBRANCH  25  26
ENDBRANCH  14  25
TORSDOF 4
