REMARK  Name = ZINC67449747
REMARK  8 active torsions:
REMARK  status: ('A' for Active; 'I' for Inactive)
REMARK    1  A    between atoms: C_1  and  C_2
REMARK    2  A    between atoms: C_2  and  C_4
REMARK    3  A    between atoms: C_2  and  N_16
REMARK    4  A    between atoms: C_8  and  N_10
REMARK    5  A    between atoms: N_16  and  C_17
REMARK    6  A    between atoms: C_17  and  C_18
REMARK    7  A    between atoms: C_23  and  O_24
REMARK    8  A    between atoms: O_24  and  C_25
REMARK                            x       y       z     vdW  Elec       q    Type
REMARK                         _______ _______ _______ _____ _____    ______ ____
ROOT
ATOM      1  C   UNL     1      -0.019   1.526   0.010  0.00  0.00    -0.009 C 
ATOM      2  C   UNL     1       0.002  -0.004   0.002  0.00  0.00    -0.044 C 
ENDROOT
BRANCH   2   3
ATOM      3  C   UNL     1       0.707  -0.490  -1.238  0.00  0.00    -0.060 A 
ATOM      4  C   UNL     1       0.037  -0.521  -2.447  0.00  0.00    +0.002 A 
ATOM      5  C   UNL     1       0.680  -0.967  -3.587  0.00  0.00    +0.002 A 
ATOM      6  C   UNL     1       1.996  -1.382  -3.521  0.00  0.00    +0.023 A 
ATOM      7  C   UNL     1       2.672  -1.351  -2.309  0.00  0.00    +0.040 A 
ATOM      8  C   UNL     1       2.025  -0.898  -1.167  0.00  0.00    +0.025 A 
BRANCH   7   9
ATOM      9  N   UNL     1       4.006  -1.771  -2.239  0.00  0.00    -0.234 N 
ATOM     10  C   UNL     1       4.823  -2.264  -3.365  0.00  0.00    +0.158 C 
ATOM     11  C   UNL     1       6.255  -2.203  -2.781  0.00  0.00    +0.253 C 
ATOM     12  O   UNL     1       6.005  -2.282  -1.365  0.00  0.00    -0.448 OA
ATOM     13  C   UNL     1       4.774  -1.793  -1.134  0.00  0.00    +0.407 C 
ATOM     14  O   UNL     1       4.395  -1.414  -0.043  0.00  0.00    -0.226 OA
ENDBRANCH   7   9
ENDBRANCH   2   3
BRANCH   2  15
ATOM     15  N   UNL     1      -1.376  -0.512   0.012  0.00  0.00    +0.386 N 
ATOM     16  H   UNL     1      -1.888  -0.113  -0.760  0.00  0.00    -0.085 HD
ATOM     17  H   UNL     1      -1.364  -1.518  -0.076  0.00  0.00    -0.085 HD
BRANCH  15  18
ATOM     18  C   UNL     1      -2.026  -0.140   1.276  0.00  0.00    -0.042 C 
BRANCH  18  19
ATOM     19  C   UNL     1      -3.440  -0.661   1.287  0.00  0.00    -0.020 A 
ATOM     20  C   UNL     1      -4.491   0.184   0.986  0.00  0.00    +0.025 A 
ATOM     21  C   UNL     1      -5.789  -0.293   0.996  0.00  0.00    +0.043 A 
ATOM     22  C   UNL     1      -6.038  -1.619   1.307  0.00  0.00    +0.043 A 
ATOM     23  C   UNL     1      -4.990  -2.468   1.608  0.00  0.00    +0.084 A 
ATOM     24  C   UNL     1      -3.686  -1.991   1.593  0.00  0.00    +0.140 A 
ATOM     25 CL   UNL     1      -5.303  -4.130   1.999  0.00  0.00    -0.080 Cl
ATOM     26 CL   UNL     1      -7.107   0.771   0.618  0.00  0.00    -0.083 Cl
BRANCH  24  27
ATOM     27  O   UNL     1      -2.653  -2.825   1.883  0.00  0.00    -0.493 OA
ATOM     28  C   UNL     1      -2.262  -2.921   3.254  0.00  0.00    +0.277 C 
ENDBRANCH  24  27
ENDBRANCH  18  19
ENDBRANCH  15  18
ENDBRANCH   2  15
TORSDOF 6
