REMARK  Name = ZINC10814019
REMARK  4 active torsions:
REMARK  status: ('A' for Active; 'I' for Inactive)
REMARK    1  A    between atoms: C_8  and  C_10
REMARK    2  A    between atoms: C_16  and  C_18
REMARK    3  A    between atoms: N_24  and  S_25
REMARK    4  A    between atoms: S_25  and  C_28
REMARK                            x       y       z     vdW  Elec       q    Type
REMARK                         _______ _______ _______ _____ _____    ______ ____
ROOT
ATOM      1  C   UNL     1       3.100   7.227  -2.265  0.00  0.00    +0.115 A 
ATOM      2  C   UNL     1       3.794   6.828  -1.154  0.00  0.00    +0.080 A 
ATOM      3  S   UNL     1       3.773   8.333  -0.189  0.00  0.00    -0.060 S 
ATOM      4  C   UNL     1       2.851   9.332  -1.349  0.00  0.00    +0.165 A 
ATOM      5  N   UNL     1       2.649   8.478  -2.334  0.00  0.00    -0.221 NA
ATOM      6  N   UNL     1       2.457  10.660  -1.244  0.00  0.00    -0.263 N 
ATOM      7  C   UNL     1       2.771  11.371  -0.143  0.00  0.00    +0.238 C 
ATOM      8  O   UNL     1       3.398  10.852   0.756  0.00  0.00    -0.274 OA
ATOM      9  H   UNL     1       1.955  11.075  -1.963  0.00  0.00    +0.157 HD
ENDROOT
BRANCH   1  17
ATOM     10  C   UNL     1       1.872   3.739  -7.051  0.00  0.00    +0.001 A 
ATOM     11  C   UNL     1       2.561   2.797  -6.301  0.00  0.00    +0.004 A 
ATOM     12  C   UNL     1       3.075   3.122  -5.063  0.00  0.00    +0.047 A 
ATOM     13  C   UNL     1       2.899   4.402  -4.555  0.00  0.00    +0.136 A 
ATOM     14  C   UNL     1       2.195   5.351  -5.318  0.00  0.00    +0.021 A 
ATOM     15  C   UNL     1       1.682   5.004  -6.568  0.00  0.00    +0.011 A 
ATOM     16  C   UNL     1       2.186   6.577  -4.515  0.00  0.00    +0.060 A 
ATOM     17  C   UNL     1       2.859   6.283  -3.375  0.00  0.00    +0.155 A 
ATOM     18  O   UNL     1       3.275   5.002  -3.407  0.00  0.00    -0.453 OA
ENDBRANCH   1  17
BRANCH   7  19
ATOM     19  C   UNL     1       2.343  12.812  -0.029  0.00  0.00    +0.166 C 
ATOM     20  C   UNL     1       1.394  12.973   1.163  0.00  0.00    +0.030 C 
ATOM     21  C   UNL     1       1.077  14.457   1.360  0.00  0.00    +0.003 C 
ATOM     22  C   UNL     1       2.367  15.224   1.659  0.00  0.00    +0.017 C 
ATOM     23  C   UNL     1       3.324  15.088   0.470  0.00  0.00    +0.110 C 
ATOM     24  N   UNL     1       3.523  13.661   0.184  0.00  0.00    -0.164 NA
BRANCH  24  25
ATOM     25  S   UNL     1       5.048  13.021   0.103  0.00  0.00    +0.068 S 
ATOM     26  O   UNL     1       4.954  11.846  -0.690  0.00  0.00    -0.152 OA
ATOM     27  O   UNL     1       5.921  14.094  -0.224  0.00  0.00    -0.152 OA
BRANCH  25  28
ATOM     28  C   UNL     1       5.481  12.498   1.729  0.00  0.00    +0.144 A 
ATOM     29  C   UNL     1       5.419  11.258   2.271  0.00  0.00    +0.038 A 
ATOM     30  C   UNL     1       5.816  11.079   3.584  0.00  0.00    +0.030 A 
ATOM     31  C   UNL     1       6.255  12.151   4.290  0.00  0.00    +0.080 A 
ATOM     32  S   UNL     1       6.122  13.464   3.087  0.00  0.00    -0.057 S 
ATOM     33 CL   UNL     1       6.810  12.225   5.933  0.00  0.00    -0.076 Cl
ENDBRANCH  25  28
ENDBRANCH  24  25
ENDBRANCH   7  19
TORSDOF 4
