REMARK  Name = ZINC16531259
REMARK  12 active torsions:
REMARK  status: ('A' for Active; 'I' for Inactive)
REMARK    1  A    between atoms: C_1  and  C_2
REMARK    2  A    between atoms: C_2  and  C_3
REMARK    3  A    between atoms: C_3  and  C_4
REMARK    4  A    between atoms: C_4  and  N_5
REMARK    5  A    between atoms: N_5  and  C_6
REMARK    6  A    between atoms: N_5  and  C_12
REMARK    7  A    between atoms: C_6  and  C_7
REMARK    8  A    between atoms: C_15  and  N_25
REMARK    9  A    between atoms: C_17  and  C_18
REMARK   10  A    between atoms: N_28  and  C_29
REMARK   11  A    between atoms: C_32  and  C_36
REMARK   12  A    between atoms: C_34  and  C_35
REMARK                            x       y       z     vdW  Elec       q    Type
REMARK                         _______ _______ _______ _____ _____    ______ ____
ROOT
ATOM      1  C   UNL     1       3.530  -4.912  -0.331  0.00  0.00    +0.042 A 
ATOM      2  C   UNL     1       2.470  -4.022  -0.447  0.00  0.00    +0.026 A 
ATOM      3  C   UNL     1       2.587  -2.737   0.041  0.00  0.00    +0.025 A 
ATOM      4  C   UNL     1       3.770  -2.319   0.642  0.00  0.00    +0.036 A 
ATOM      5  C   UNL     1       4.835  -3.193   0.766  0.00  0.00    +0.038 A 
ATOM      6  C   UNL     1       4.723  -4.498   0.280  0.00  0.00    +0.060 A 
ENDROOT
BRANCH   6   7
ATOM      7  C   UNL     1       5.854  -5.435   0.407  0.00  0.00    +0.248 C 
ATOM      8  O   UNL     1       6.167  -6.143  -0.531  0.00  0.00    -0.270 OA
ATOM      9  N   UNL     1       6.543  -5.508   1.564  0.00  0.00    -0.297 N 
ATOM     10  C   UNL     1       6.208  -4.797   2.806  0.00  0.00    +0.108 C 
ATOM     11  C   UNL     1       7.284  -5.165   3.849  0.00  0.00    +0.020 C 
ATOM     12  C   UNL     1       8.482  -5.607   2.968  0.00  0.00    +0.020 C 
ATOM     13  C   UNL     1       7.760  -6.309   1.790  0.00  0.00    +0.108 C 
ENDBRANCH   6   7
BRANCH   4  14
ATOM     14  N   UNL     1       3.880  -1.009   1.130  0.00  0.00    -0.269 N 
ATOM     15  C   UNL     1       3.292   0.008   0.470  0.00  0.00    +0.308 C 
ATOM     16  O   UNL     1       2.608  -0.218  -0.509  0.00  0.00    -0.252 OA
ATOM     17  N   UNL     1       3.463   1.276   0.894  0.00  0.00    -0.269 N 
ATOM     18  H   UNL     1       4.380  -0.835   1.943  0.00  0.00    +0.156 HD
ATOM     19  H   UNL     1       4.053   1.461   1.642  0.00  0.00    +0.156 HD
BRANCH  17  20
ATOM     20  C   UNL     1       2.791   2.324   0.257  0.00  0.00    +0.038 A 
ATOM     21  C   UNL     1       2.501   2.242  -1.099  0.00  0.00    +0.024 A 
ATOM     22  C   UNL     1       1.842   3.280  -1.727  0.00  0.00    +0.005 A 
ATOM     23  C   UNL     1       1.462   4.397  -1.005  0.00  0.00    -0.050 A 
ATOM     24  C   UNL     1       1.749   4.482   0.345  0.00  0.00    +0.008 A 
ATOM     25  C   UNL     1       2.413   3.449   0.978  0.00  0.00    -0.029 A 
ATOM     26  C   UNL     1       2.725   3.542   2.449  0.00  0.00    +0.045 C 
ATOM     27  C   UNL     1       0.738   5.527  -1.692  0.00  0.00    +0.044 C 
ENDBRANCH  17  20
ENDBRANCH   4  14
BRANCH   1  28
ATOM     28  N   UNL     1       3.409  -6.209  -0.818  0.00  0.00    -0.322 N 
BRANCH  28  29
ATOM     29  C   UNL     1       3.138  -6.205  -2.262  0.00  0.00    +0.105 C 
BRANCH  29  30
ATOM     30  C   UNL     1       4.426  -5.880  -3.022  0.00  0.00    +0.019 C 
BRANCH  30  32
ATOM     31  C   UNL     1       5.409  -5.437  -5.276  0.00  0.00    +0.004 C 
ATOM     32  C   UNL     1       4.121  -5.762  -4.516  0.00  0.00    -0.002 C 
ENDBRANCH  30  32
ENDBRANCH  29  30
ENDBRANCH  28  29
BRANCH  28  33
ATOM     33  C   UNL     1       2.371  -6.950  -0.090  0.00  0.00    +0.179 C 
BRANCH  33  34
ATOM     34  C   UNL     1       2.538  -8.427  -0.341  0.00  0.00    +0.122 A 
ATOM     35  C   UNL     1       3.229  -9.283   0.433  0.00  0.00    +0.046 A 
ATOM     36  C   UNL     1       3.124 -10.557  -0.171  0.00  0.00    +0.041 A 
ATOM     37  C   UNL     1       2.375 -10.403  -1.278  0.00  0.00    +0.195 A 
ATOM     38  O   UNL     1       2.018  -9.112  -1.373  0.00  0.00    -0.466 OA
ENDBRANCH  33  34
ENDBRANCH  28  33
ENDBRANCH   1  28
TORSDOF 9
