REMARK  Name = ZINC40085660
REMARK  17 active torsions:
REMARK  status: ('A' for Active; 'I' for Inactive)
REMARK    1  A    between atoms: C_1  and  C_2
REMARK    2  A    between atoms: C_2  and  C_3
REMARK    3  A    between atoms: C_3  and  O_4
REMARK    4  A    between atoms: O_4  and  C_5
REMARK    5  A    between atoms: C_10  and  C_11
REMARK    6  A    between atoms: C_13  and  C_25
REMARK    7  A    between atoms: N_17  and  C_18
REMARK    8  A    between atoms: C_18  and  C_19
REMARK    9  A    between atoms: C_19  and  O_20
REMARK   10  A    between atoms: O_20  and  C_21
REMARK   11  A    between atoms: C_21  and  C_22
REMARK   12  A    between atoms: C_22  and  O_23
REMARK   13  A    between atoms: C_25  and  C_27
REMARK   14  A    between atoms: C_30  and  O_34
REMARK   15  A    between atoms: C_31  and  C_33
REMARK   16  A    between atoms: O_34  and  C_35
REMARK   17  A    between atoms: C_35  and  C_36
REMARK                            x       y       z     vdW  Elec       q    Type
REMARK                         _______ _______ _______ _____ _____    ______ ____
ROOT
ATOM      1  C   UNL     1       1.391  -4.393   1.499  0.00  0.00    +0.148 C 
ATOM      2  C   UNL     1       2.068  -4.847   0.226  0.00  0.00    +0.076 C 
ATOM      3  C   UNL     1       1.907  -6.188   0.156  0.00  0.00    +0.249 C 
ATOM      4  C   UNL     1       1.147  -6.649   1.336  0.00  0.00    +0.288 C 
ATOM      5  O   UNL     1       0.842  -7.804   1.562  0.00  0.00    -0.266 OA
ATOM      6  N   UNL     1       0.843  -5.601   2.125  0.00  0.00    -0.281 N 
ATOM      7  O   UNL     1       2.368  -6.982  -0.839  0.00  0.00    -0.282 OA
ENDROOT
BRANCH   1  13
ATOM      8  C   UNL     1       2.641  -2.382   2.326  0.00  0.00    +0.126 A 
ATOM      9  C   UNL     1       3.563  -1.788   3.175  0.00  0.00    +0.046 A 
ATOM     10  C   UNL     1       4.237  -2.554   4.106  0.00  0.00    +0.004 A 
ATOM     11  C   UNL     1       3.995  -3.912   4.191  0.00  0.00    +0.001 A 
ATOM     12  C   UNL     1       3.077  -4.508   3.346  0.00  0.00    +0.009 A 
ATOM     13  C   UNL     1       2.396  -3.745   2.417  0.00  0.00    +0.019 A 
BRANCH   8  14
ATOM     14  O   UNL     1       1.976  -1.631   1.409  0.00  0.00    -0.492 OA
BRANCH  14  15
ATOM     15  C   UNL     1       2.186  -0.218   1.454  0.00  0.00    +0.229 C 
BRANCH  15  17
ATOM     16  C   UNL     1       1.558   1.968   0.420  0.00  0.00    +0.007 C 
ATOM     17  C   UNL     1       1.268   0.466   0.439  0.00  0.00    +0.038 C 
ENDBRANCH  15  17
ENDBRANCH  14  15
ENDBRANCH   8  14
ENDBRANCH   1  13
BRANCH   2  18
ATOM     18  C   UNL     1       2.764  -3.997  -0.745  0.00  0.00    +0.195 C 
ATOM     19  O   UNL     1       3.967  -4.103  -0.894  0.00  0.00    -0.287 OA
BRANCH  18  20
ATOM     20  C   UNL     1       2.005  -3.013  -1.542  0.00  0.00    +0.023 A 
ATOM     21  C   UNL     1       0.616  -2.921  -1.405  0.00  0.00    +0.015 A 
ATOM     22  C   UNL     1      -0.087  -2.002  -2.150  0.00  0.00    +0.046 A 
ATOM     23  C   UNL     1       0.581  -1.165  -3.037  0.00  0.00    +0.123 A 
ATOM     24  C   UNL     1       1.961  -1.254  -3.177  0.00  0.00    -0.008 A 
ATOM     25  C   UNL     1       2.673  -2.166  -2.431  0.00  0.00    +0.018 A 
ATOM     26  C   UNL     1       2.680  -0.345  -4.141  0.00  0.00    +0.047 C 
BRANCH  23  27
ATOM     27  O   UNL     1      -0.117  -0.261  -3.770  0.00  0.00    -0.492 OA
BRANCH  27  28
ATOM     28  C   UNL     1      -1.515  -0.147  -3.500  0.00  0.00    +0.225 C 
ATOM     29  C   UNL     1      -2.144   0.849  -4.476  0.00  0.00    +0.048 C 
ENDBRANCH  27  28
ENDBRANCH  23  27
ENDBRANCH  18  20
ENDBRANCH   2  18
BRANCH   6  30
ATOM     30  C   UNL     1       0.096  -5.657   3.385  0.00  0.00    +0.137 C 
BRANCH  30  31
ATOM     31  C   UNL     1      -1.398  -5.490   3.101  0.00  0.00    +0.179 C 
BRANCH  31  32
ATOM     32  O   UNL     1      -1.864  -6.603   2.336  0.00  0.00    -0.376 OA
BRANCH  32  33
ATOM     33  C   UNL     1      -3.255  -6.545   2.014  0.00  0.00    +0.187 C 
BRANCH  33  34
ATOM     34  C   UNL     1      -3.642  -7.780   1.199  0.00  0.00    +0.184 C 
BRANCH  34  35
ATOM     35  O   UNL     1      -3.489  -8.950   2.005  0.00  0.00    -0.393 OA
ATOM     36  H   UNL     1      -3.717  -9.773   1.551  0.00  0.00    +0.209 HD
ENDBRANCH  34  35
ENDBRANCH  33  34
ENDBRANCH  32  33
ENDBRANCH  31  32
ENDBRANCH  30  31
ENDBRANCH   6  30
TORSDOF 14
