REMARK  Name = ZINC55559321
REMARK  10 active torsions:
REMARK  status: ('A' for Active; 'I' for Inactive)
REMARK    1  A    between atoms: C_1  and  C_2
REMARK    2  A    between atoms: C_4  and  N_23
REMARK    3  A    between atoms: C_6  and  C_22
REMARK    4  A    between atoms: C_7  and  S_8
REMARK    5  A    between atoms: S_8  and  N_11
REMARK    6  A    between atoms: N_11  and  N_12
REMARK    7  A    between atoms: C_13  and  C_15
REMARK    8  A    between atoms: C_17  and  C_21
REMARK    9  A    between atoms: C_19  and  C_20
REMARK   10  A    between atoms: C_24  and  C_26
REMARK                            x       y       z     vdW  Elec       q    Type
REMARK                         _______ _______ _______ _____ _____    ______ ____
ROOT
ATOM      1  S   UNL     1       0.003   0.185   2.719  0.00  0.00    +0.074 S 
ATOM      2  O   UNL     1       0.748  -0.599   3.641  0.00  0.00    -0.152 OA
ATOM      3  O   UNL     1       0.343   1.530   2.414  0.00  0.00    -0.152 OA
ENDROOT
BRANCH   1  10
ATOM      4  C   UNL     1      -0.401   1.478   0.017  0.00  0.00    +0.046 C 
ATOM      5  C   UNL     1      -0.186  -0.014   0.004  0.00  0.00    -0.022 A 
ATOM      6  C   UNL     1      -0.178  -0.699  -1.195  0.00  0.00    +0.028 A 
ATOM      7  C   UNL     1       0.019  -2.074  -1.206  0.00  0.00    +0.034 A 
ATOM      8  C   UNL     1       0.208  -2.755  -0.011  0.00  0.00    +0.028 A 
ATOM      9  C   UNL     1       0.198  -2.064   1.185  0.00  0.00    -0.022 A 
ATOM     10  C   UNL     1       0.007  -0.694   1.192  0.00  0.00    +0.113 A 
ATOM     11  C   UNL     1       0.402  -2.802   2.483  0.00  0.00    +0.046 C 
BRANCH   7  12
ATOM     12  N   UNL     1       0.028  -2.771  -2.419  0.00  0.00    -0.286 N 
ATOM     13  C   UNL     1       0.507  -2.181  -3.532  0.00  0.00    +0.214 C 
ATOM     14  O   UNL     1       1.019  -1.084  -3.465  0.00  0.00    -0.276 OA
ATOM     15  C   UNL     1       0.408  -2.886  -4.861  0.00  0.00    +0.109 C 
ATOM     16  H   UNL     1      -0.311  -3.679  -2.459  0.00  0.00    +0.155 HD
ENDBRANCH   7  12
ENDBRANCH   1  10
BRANCH   1  17
ATOM     17  N   UNL     1      -1.559   0.204   3.269  0.00  0.00    -0.108 NA
ATOM     18  H   UNL     1      -2.014   1.049   3.409  0.00  0.00    +0.172 HD
BRANCH  17  19
ATOM     19  N   UNL     1      -2.224  -1.001   3.531  0.00  0.00    -0.228 N 
ATOM     20  C   UNL     1      -2.772  -1.219   4.743  0.00  0.00    +0.262 C 
ATOM     21  O   UNL     1      -2.690  -0.369   5.609  0.00  0.00    -0.269 OA
ATOM     22  H   UNL     1      -2.291  -1.679   2.840  0.00  0.00    +0.171 HD
BRANCH  20  23
ATOM     23  C   UNL     1      -3.472  -2.486   5.018  0.00  0.00    +0.079 A 
ATOM     24  C   UNL     1      -3.660  -3.616   4.097  0.00  0.00    +0.057 A 
ATOM     25  C   UNL     1      -4.350  -4.540   4.782  0.00  0.00    +0.103 A 
ATOM     26  O   UNL     1      -4.595  -4.079   6.019  0.00  0.00    -0.464 OA
ATOM     27  C   UNL     1      -4.076  -2.858   6.184  0.00  0.00    +0.114 A 
ATOM     28  C   UNL     1      -4.149  -2.032   7.442  0.00  0.00    +0.087 C 
ATOM     29  C   UNL     1      -4.782  -5.882   4.249  0.00  0.00    +0.086 C 
ENDBRANCH  20  23
ENDBRANCH  17  19
ENDBRANCH   1  17
TORSDOF 5
