REMARK  Name = ZINC18143025
REMARK  6 active torsions:
REMARK  status: ('A' for Active; 'I' for Inactive)
REMARK    1  A    between atoms: C_1  and  C_2
REMARK    2  A    between atoms: C_2  and  C_3
REMARK    3  A    between atoms: C_6  and  C_9
REMARK    4  A    between atoms: N_17  and  C_20
REMARK    5  A    between atoms: C_23  and  C_26
REMARK    6  A    between atoms: C_29  and  C_31
REMARK                            x       y       z     vdW  Elec       q    Type
REMARK                         _______ _______ _______ _____ _____    ______ ____
ROOT
ATOM      1  C   UNL     1      -6.028  -3.250   0.671  0.00  0.00    +0.117 C 
ATOM      2  C   UNL     1      -6.687  -1.882   0.498  0.00  0.00    +0.130 C 
ATOM      3  C   UNL     1      -7.831  -2.389  -0.462  0.00  0.00    +0.194 C 
ATOM      4  C   UNL     1      -8.800  -1.319  -0.362  0.00  0.00    +0.249 C 
ATOM      5  O   UNL     1      -9.546  -0.917  -1.229  0.00  0.00    -0.273 OA
ATOM      6  N   UNL     1      -8.691  -0.857   0.924  0.00  0.00    -0.208 N 
ATOM      7  C   UNL     1      -7.561  -1.318   1.574  0.00  0.00    +0.234 C 
ATOM      8  O   UNL     1      -7.322  -1.285   2.762  0.00  0.00    -0.274 OA
ATOM      9  N   UNL     1      -7.160  -3.179  -1.399  0.00  0.00    -0.220 N 
ATOM     10  N   UNL     1      -6.112  -3.810  -0.718  0.00  0.00    -0.229 NA
ATOM     11  C   UNL     1      -7.472  -3.315  -2.704  0.00  0.00    +0.261 C 
ATOM     12  O   UNL     1      -8.442  -2.742  -3.159  0.00  0.00    -0.269 OA
ATOM     13  H   UNL     1      -5.240  -3.687  -1.210  0.00  0.00    +0.145 HD
ENDROOT
BRANCH   6  14
ATOM     14  C   UNL     1      -9.620   0.007   1.520  0.00  0.00    +0.044 A 
ATOM     15  C   UNL     1      -9.434   0.435   2.828  0.00  0.00    +0.024 A 
ATOM     16  C   UNL     1     -10.351   1.286   3.412  0.00  0.00    +0.005 A 
ATOM     17  C   UNL     1     -11.454   1.713   2.695  0.00  0.00    -0.050 A 
ATOM     18  C   UNL     1     -11.642   1.290   1.392  0.00  0.00    +0.005 A 
ATOM     19  C   UNL     1     -10.725   0.443   0.801  0.00  0.00    +0.024 A 
ATOM     20  C   UNL     1     -12.453   2.642   3.335  0.00  0.00    +0.044 C 
ENDBRANCH   6  14
BRANCH  11  21
ATOM     21  C   UNL     1      -6.633  -4.160  -3.580  0.00  0.00    +0.039 A 
ATOM     22  C   UNL     1      -5.638  -4.970  -3.029  0.00  0.00    +0.013 A 
ATOM     23  C   UNL     1      -4.859  -5.756  -3.852  0.00  0.00    +0.002 A 
ATOM     24  C   UNL     1      -5.061  -5.743  -5.221  0.00  0.00    +0.015 A 
ATOM     25  C   UNL     1      -6.045  -4.942  -5.774  0.00  0.00    +0.019 A 
ATOM     26  C   UNL     1      -6.836  -4.155  -4.961  0.00  0.00    +0.028 A 
ATOM     27 BR   UNL     1      -6.311  -4.931  -7.646  0.00  0.00    -0.050 Br
ENDBRANCH  11  21
BRANCH   1  31
ATOM     28  C   UNL     1      -1.960  -2.845   1.910  0.00  0.00    -0.048 A 
ATOM     29  C   UNL     1      -2.930  -3.200   2.828  0.00  0.00    +0.004 A 
ATOM     30  C   UNL     1      -4.247  -3.332   2.427  0.00  0.00    +0.005 A 
ATOM     31  C   UNL     1      -4.593  -3.106   1.108  0.00  0.00    -0.028 A 
ATOM     32  C   UNL     1      -3.623  -2.750   0.190  0.00  0.00    +0.005 A 
ATOM     33  C   UNL     1      -2.308  -2.614   0.592  0.00  0.00    +0.004 A 
BRANCH  28  35
ATOM     34  C   UNL     1      -0.271  -1.262   2.799  0.00  0.00    +0.009 C 
ATOM     35  C   UNL     1      -0.525  -2.701   2.347  0.00  0.00    +0.032 C 
ENDBRANCH  28  35
ENDBRANCH   1  31
TORSDOF 4
