REMARK  Name = ZINC16044267
REMARK  11 active torsions:
REMARK  status: ('A' for Active; 'I' for Inactive)
REMARK    1  A    between atoms: C_1  and  N_56
REMARK    2  A    between atoms: C_2  and  N_56
REMARK    3  A    between atoms: C_3  and  C_4
REMARK    4  A    between atoms: C_3  and  N_56
REMARK    5  A    between atoms: C_4  and  N_5
REMARK    6  A    between atoms: C_8  and  C_21
REMARK    7  A    between atoms: N_12  and  C_13
REMARK    8  A    between atoms: C_18  and  O_19
REMARK    9  A    between atoms: O_19  and  C_20
REMARK   10  A    between atoms: C_21  and  C_22
REMARK   11  A    between atoms: N_24  and  C_25
REMARK                            x       y       z     vdW  Elec       q    Type
REMARK                         _______ _______ _______ _____ _____    ______ ____
ROOT
ATOM      1  N   UNL     1       4.681   9.396   0.381  0.00  0.00    -0.252 N 
ATOM      2  C   UNL     1       4.271   8.769  -0.709  0.00  0.00    +0.235 C 
ATOM      3  O   UNL     1       4.972   8.656  -1.692  0.00  0.00    -0.274 OA
ATOM      4  C   UNL     1       2.863   8.197  -0.652  0.00  0.00    +0.149 C 
ATOM      5  S   UNL     1       2.371   8.696   1.045  0.00  0.00    -0.077 S 
ATOM      6  C   UNL     1       3.886   9.526   1.501  0.00  0.00    +0.164 C 
ATOM      7  N   UNL     1       4.175  10.120   2.635  0.00  0.00    -0.222 NA
ENDROOT
BRANCH   7   8
ATOM      8  C   UNL     1       3.294  10.060   3.684  0.00  0.00    +0.108 A 
ATOM      9  C   UNL     1       2.754   8.835   4.076  0.00  0.00    +0.031 A 
ATOM     10  C   UNL     1       1.869   8.780   5.133  0.00  0.00    +0.002 A 
ATOM     11  C   UNL     1       1.514   9.936   5.806  0.00  0.00    +0.004 A 
ATOM     12  C   UNL     1       2.044  11.156   5.425  0.00  0.00    +0.048 A 
ATOM     13  C   UNL     1       2.937  11.226   4.371  0.00  0.00    +0.145 A 
BRANCH  13  14
ATOM     14  O   UNL     1       3.462  12.425   3.999  0.00  0.00    -0.493 OA
ATOM     15  C   UNL     1       3.052  13.572   4.746  0.00  0.00    +0.277 C 
ENDBRANCH  13  14
ENDBRANCH   7   8
BRANCH   1  16
ATOM     16  C   UNL     1       6.028   9.972   0.400  0.00  0.00    +0.097 C 
BRANCH  16  17
ATOM     17  C   UNL     1       7.021   8.933   0.922  0.00  0.00    -0.060 C 
BRANCH  17  20
ATOM     18  C   UNL     1       8.463  10.604   1.918  0.00  0.00    -0.097 C 
ATOM     19  C   UNL     1       9.382   8.480   1.208  0.00  0.00    -0.097 C 
ATOM     20  N   UNL     1       8.376   9.522   0.914  0.00  0.00    +0.377 N 
ATOM     21  H   UNL     1       8.564   9.914  -0.016  0.00  0.00    -0.083 HD
ENDBRANCH  17  20
ENDBRANCH  16  17
ENDBRANCH   1  16
BRANCH   4  22
ATOM     22  C   UNL     1       2.877   6.674  -0.800  0.00  0.00    +0.120 C 
BRANCH  22  23
ATOM     23  C   UNL     1       1.463   6.154  -0.768  0.00  0.00    +0.219 C 
ATOM     24  O   UNL     1       0.536   6.925  -0.639  0.00  0.00    -0.275 OA
ATOM     25  N   UNL     1       1.229   4.831  -0.882  0.00  0.00    -0.283 N 
ATOM     26  H   UNL     1       1.972   4.208  -0.914  0.00  0.00    +0.155 HD
BRANCH  25  27
ATOM     27  C   UNL     1      -0.086   4.356  -0.954  0.00  0.00    +0.069 A 
ATOM     28  C   UNL     1      -1.116   5.213  -1.318  0.00  0.00    +0.026 A 
ATOM     29  C   UNL     1      -2.413   4.742  -1.388  0.00  0.00    +0.002 A 
ATOM     30  C   UNL     1      -2.686   3.417  -1.101  0.00  0.00    +0.003 A 
ATOM     31  C   UNL     1      -1.665   2.561  -0.732  0.00  0.00    +0.040 A 
ATOM     32  C   UNL     1      -0.364   3.026  -0.660  0.00  0.00    +0.144 A 
ATOM     33  F   UNL     1       0.635   2.189  -0.305  0.00  0.00    -0.204 F 
ENDBRANCH  25  27
ENDBRANCH  22  23
ENDBRANCH   4  22
TORSDOF 8
