REMARK  Name = ZINC12209084
REMARK  7 active torsions:
REMARK  status: ('A' for Active; 'I' for Inactive)
REMARK    1  A    between atoms: C_1  and  C_2
REMARK    2  A    between atoms: C_2  and  C_3
REMARK    3  A    between atoms: C_8  and  N_9
REMARK    4  A    between atoms: N_9  and  S_10
REMARK    5  A    between atoms: S_10  and  C_13
REMARK    6  A    between atoms: C_15  and  N_20
REMARK    7  A    between atoms: C_18  and  C_19
REMARK                            x       y       z     vdW  Elec       q    Type
REMARK                         _______ _______ _______ _____ _____    ______ ____
ROOT
ATOM      1  C   UNL     1      -0.692   2.195  -1.395  0.00  0.00    +0.113 A 
ATOM      2  C   UNL     1       0.021   3.197  -2.025  0.00  0.00    +0.053 A 
ATOM      3  C   UNL     1      -0.351   3.617  -3.296  0.00  0.00    +0.053 A 
ATOM      4  C   UNL     1      -1.445   3.035  -3.924  0.00  0.00    +0.025 A 
ATOM      5  C   UNL     1      -2.156   2.038  -3.287  0.00  0.00    +0.007 A 
ATOM      6  C   UNL     1      -1.780   1.618  -2.023  0.00  0.00    -0.024 A 
ATOM      7  C   UNL     1      -2.559   0.530  -1.330  0.00  0.00    +0.046 C 
ENDROOT
BRANCH   3   8
ATOM      8  N   UNL     1       0.371   4.625  -3.938  0.00  0.00    -0.207 N 
ATOM      9  C   UNL     1       0.553   5.944  -3.313  0.00  0.00    +0.131 C 
ATOM     10  C   UNL     1       2.045   6.246  -3.186  0.00  0.00    +0.022 C 
ATOM     11  C   UNL     1       2.691   6.366  -4.564  0.00  0.00    +0.026 C 
ATOM     12  C   UNL     1       2.754   4.986  -5.229  0.00  0.00    +0.189 C 
ATOM     13  S   UNL     1       1.059   4.370  -5.433  0.00  0.00    +0.045 S 
ATOM     14  O   UNL     1       1.063   2.959  -5.601  0.00  0.00    -0.155 OA
ATOM     15  O   UNL     1       0.333   5.209  -6.321  0.00  0.00    -0.155 OA
ENDBRANCH   3   8
BRANCH   1  16
ATOM     16  S   UNL     1      -0.218   1.657   0.215  0.00  0.00    +0.073 S 
ATOM     17  O   UNL     1       0.896   2.452   0.597  0.00  0.00    -0.150 OA
ATOM     18  O   UNL     1      -1.408   1.592   0.988  0.00  0.00    -0.150 OA
BRANCH  16  19
ATOM     19  N   UNL     1       0.337   0.104   0.068  0.00  0.00    -0.216 N 
ATOM     20  H   UNL     1      -0.110  -0.618   0.537  0.00  0.00    +0.174 HD
BRANCH  19  26
ATOM     21  C   UNL     1       1.534  -1.369  -1.423  0.00  0.00    -0.025 A 
ATOM     22  C   UNL     1       2.635  -1.634  -2.213  0.00  0.00    +0.005 A 
ATOM     23  C   UNL     1       3.654  -0.705  -2.316  0.00  0.00    +0.000 A 
ATOM     24  C   UNL     1       3.573   0.493  -1.629  0.00  0.00    +0.002 A 
ATOM     25  C   UNL     1       2.473   0.766  -0.841  0.00  0.00    +0.025 A 
ATOM     26  C   UNL     1       1.450  -0.168  -0.732  0.00  0.00    +0.051 A 
BRANCH  21  28
ATOM     27  C   UNL     1      -0.675  -2.048  -2.321  0.00  0.00    +0.009 C 
ATOM     28  C   UNL     1       0.424  -2.383  -1.312  0.00  0.00    +0.033 C 
ENDBRANCH  21  28
ENDBRANCH  19  26
ENDBRANCH  16  19
ENDBRANCH   1  16
TORSDOF 5
