REMARK  Name = ZINC20437065
REMARK  8 active torsions:
REMARK  status: ('A' for Active; 'I' for Inactive)
REMARK    1  A    between atoms: CB_1  and  CA_2
REMARK    2  A    between atoms: CA_2  and  C_4
REMARK    3  A    between atoms: CA_2  and  N_6
REMARK    4  A    between atoms: C_4  and  O_5
REMARK    5  A    between atoms: C_25  and  C_27
REMARK    6  A    between atoms: C_25  and  C_28
REMARK    7  A    between atoms: C_30  and  S_32
REMARK    8  A    between atoms: S_32  and  C_33
REMARK                            x       y       z     vdW  Elec       q    Type
REMARK                         _______ _______ _______ _____ _____    ______ ____
ROOT
ATOM      1  N   ALA A   1       4.752   0.263   0.119  0.00  0.00    -0.323 N 
ATOM      2  C   UNK A   0       3.861   1.323   0.066  0.00  0.00    +0.138 A 
ATOM      3  C   UNK A   0       4.317   2.634   0.053  0.00  0.00    +0.080 A 
ATOM      4  C   UNK A   0       3.423   3.709   0.000  0.00  0.00    +0.094 A 
ATOM      5  C   UNK A   0       4.029   5.053  -0.007  0.00  0.00    +0.038 A 
ATOM      6  C   UNK A   0       3.362   6.302  -0.056  0.00  0.00    -0.024 A 
ATOM      7  C   UNK A   0       4.088   7.451  -0.053  0.00  0.00    +0.022 A 
ATOM      8  C   UNK A   0       5.485   7.393  -0.008  0.00  0.00    +0.128 A 
ATOM      9  N   UNK A   0       6.107   6.225   0.034  0.00  0.00    -0.224 NA
ATOM     10  C   UNK A   0       5.433   5.094   0.037  0.00  0.00    +0.113 A 
ATOM     11  S   UNK A   0       5.921   3.387   0.089  0.00  0.00    -0.064 S 
ATOM     12  N   UNK A   0       6.224   8.568  -0.007  0.00  0.00    -0.310 N 
ATOM     13  C   UNK A   0       7.096   8.643  -1.189  0.00  0.00    +0.134 C 
ATOM     14  C   UNK A   0       7.846   9.977  -1.179  0.00  0.00    +0.178 C 
ATOM     15  O   UNK A   0       8.579  10.097   0.043  0.00  0.00    -0.377 OA
ATOM     16  C   UNK A   0       7.761  10.029   1.214  0.00  0.00    +0.178 C 
ATOM     17  C   UNK A   0       7.010   8.695   1.229  0.00  0.00    +0.134 C 
ATOM     18  C   UNK A   0       3.422   8.803  -0.093  0.00  0.00    +0.199 C 
ATOM     19  O   UNK A   0       2.062   8.672  -0.509  0.00  0.00    -0.369 OA
ATOM     20  C   UNK A   0       1.333   7.699   0.248  0.00  0.00    +0.068 C 
ATOM     21  C   UNK A   0       1.858   6.309  -0.118  0.00  0.00    +0.070 C 
ATOM     22  C   UNK A   0       1.538   7.949   1.744  0.00  0.00    +0.041 C 
ATOM     23  C   UNK A   0      -0.156   7.794  -0.090  0.00  0.00    +0.041 C 
ATOM     24  N   UNK A   0       2.109   3.389  -0.037  0.00  0.00    -0.221 NA
ATOM     25  C   UNK A   0       1.708   2.135  -0.023  0.00  0.00    +0.190 A 
ATOM     26  N   UNK A   0       2.547   1.108   0.033  0.00  0.00    -0.206 NA
ATOM     27  H   ALA A   1       5.835   0.455   0.150  0.00  0.00    +0.148 HD
ENDROOT
BRANCH   1  29
ATOM     28  CB  ALA A   1       4.008  -1.582  -1.304  0.00  0.00    +0.030 C 
ATOM     29  CA  ALA A   1       4.253  -1.115   0.132  0.00  0.00    +0.094 C 
BRANCH  29  30
ATOM     30  C   ALA A   1       5.286  -2.026   0.796  0.00  0.00    +0.177 C 
BRANCH  30  31
ATOM     31  O   ALA A   1       6.472  -2.062  -0.001  0.00  0.00    -0.393 OA
ATOM     32  H   ALA A   1       7.331  -2.669   0.318  0.00  0.00    +0.209 HD
ENDBRANCH  30  31
ENDBRANCH  29  30
ENDBRANCH   1  29
BRANCH  25  33
ATOM     33  S   UNK A   0      -0.022   1.805  -0.073  0.00  0.00    -0.089 S 
ATOM     34  C   UNK A   0       0.002  -0.004  -0.034  0.00  0.00    +0.093 C 
ENDBRANCH  25  33
TORSDOF 4
