REMARK  Name = ZINC15675579
REMARK  6 active torsions:
REMARK  status: ('A' for Active; 'I' for Inactive)
REMARK    1  A    between atoms: C_6  and  C_7
REMARK    2  A    between atoms: C_7  and  N_8
REMARK    3  A    between atoms: C_17  and  C_19
REMARK    4  A    between atoms: C_21  and  C_24
REMARK    5  A    between atoms: C_27  and  O_30
REMARK    6  A    between atoms: O_30  and  C_31
REMARK                            x       y       z     vdW  Elec       q    Type
REMARK                         _______ _______ _______ _____ _____    ______ ____
ROOT
ATOM      1  N   UNL     1      -1.727  -1.018  -1.372  0.00  0.00    -0.281 NA
ATOM      2  C   UNL     1      -2.060   0.246  -2.050  0.00  0.00    +0.140 C 
ATOM      3  C   UNL     1      -2.596  -0.079  -3.422  0.00  0.00    +0.051 A 
ATOM      4  C   UNL     1      -3.027  -1.311  -3.777  0.00  0.00    +0.040 A 
ATOM      5  N   UNL     1      -3.433  -1.237  -5.071  0.00  0.00    -0.349 N 
ATOM      6  H   UNL     1      -3.793  -1.962  -5.606  0.00  0.00    +0.166 HD
ATOM      7  C   UNL     1      -3.241   0.042  -5.473  0.00  0.00    +0.171 A 
ATOM      8  N   UNL     1      -2.740   0.725  -4.476  0.00  0.00    -0.349 N 
ATOM      9  C   UNL     1      -3.026  -2.494  -2.843  0.00  0.00    +0.083 C 
ATOM     10  C   UNL     1      -2.851  -1.963  -1.412  0.00  0.00    +0.152 C 
ATOM     11  H   UNL     1      -2.509   1.667  -4.500  0.00  0.00    +0.166 HD
ENDROOT
BRANCH  10  12
ATOM     12  C   UNL     1      -2.572  -3.114  -0.481  0.00  0.00    +0.245 A 
ATOM     13  N   UNL     1      -3.421  -3.636   0.359  0.00  0.00    -0.190 NA
ATOM     14  C   UNL     1      -2.840  -4.646   1.032  0.00  0.00    +0.202 A 
ATOM     15  N   UNL     1      -1.604  -4.771   0.616  0.00  0.00    -0.056 NA
ATOM     16  O   UNL     1      -1.413  -3.777  -0.380  0.00  0.00    -0.336 OA
BRANCH  14  17
ATOM     17  C   UNL     1      -3.491  -5.480   2.071  0.00  0.00    +0.023 A 
ATOM     18  C   UNL     1      -4.821  -5.248   2.421  0.00  0.00    +0.015 A 
ATOM     19  C   UNL     1      -5.423  -6.025   3.388  0.00  0.00    +0.046 A 
ATOM     20  C   UNL     1      -4.707  -7.037   4.013  0.00  0.00    +0.130 A 
ATOM     21  C   UNL     1      -3.382  -7.270   3.667  0.00  0.00    +0.046 A 
ATOM     22  C   UNL     1      -2.777  -6.501   2.697  0.00  0.00    +0.015 A 
BRANCH  20  23
ATOM     23  O   UNL     1      -5.303  -7.801   4.966  0.00  0.00    -0.406 OA
BRANCH  23  24
ATOM     24  C   UNL     1      -4.508  -8.825   5.568  0.00  0.00    +0.575 C 
ATOM     25  F   UNL     1      -3.397  -8.246   6.191  0.00  0.00    -0.133 F 
ATOM     26  F   UNL     1      -5.272  -9.509   6.519  0.00  0.00    -0.133 F 
ATOM     27  F   UNL     1      -4.077  -9.720   4.583  0.00  0.00    -0.133 F 
ENDBRANCH  23  24
ENDBRANCH  20  23
ENDBRANCH  14  17
ENDBRANCH  10  12
BRANCH   1  28
ATOM     28  C   UNL     1      -1.293  -0.775   0.010  0.00  0.00    +0.120 C 
BRANCH  28  34
ATOM     29  C   UNL     1      -0.017   1.378   0.010  0.00  0.00    +0.008 A 
ATOM     30  C   UNL     1       1.170   2.086   0.002  0.00  0.00    +0.038 A 
ATOM     31  C   UNL     1       2.379   1.410  -0.013  0.00  0.00    +0.123 A 
ATOM     32  C   UNL     1       2.396   0.026  -0.021  0.00  0.00    +0.038 A 
ATOM     33  C   UNL     1       1.208  -0.680  -0.013  0.00  0.00    +0.008 A 
ATOM     34  C   UNL     1       0.002  -0.004   0.002  0.00  0.00    -0.033 A 
ATOM     35  F   UNL     1       3.540   2.101  -0.021  0.00  0.00    -0.205 F 
ENDBRANCH  28  34
ENDBRANCH   1  28
TORSDOF 6
