REMARK  Name = ZINC22014136
REMARK  12 active torsions:
REMARK  status: ('A' for Active; 'I' for Inactive)
REMARK    1  A    between atoms: C_1  and  C_2
REMARK    2  A    between atoms: C_2  and  O_3
REMARK    3  A    between atoms: O_3  and  C_4
REMARK    4  A    between atoms: C_4  and  C_6
REMARK    5  A    between atoms: C_7  and  C_32
REMARK    6  A    between atoms: C_8  and  C_26
REMARK    7  A    between atoms: C_10  and  N_11
REMARK    8  A    between atoms: C_12  and  C_14
REMARK    9  A    between atoms: C_14  and  N_15
REMARK   10  A    between atoms: C_19  and  C_21
REMARK   11  A    between atoms: N_23  and  C_24
REMARK   12  A    between atoms: N_23  and  C_25
REMARK                            x       y       z     vdW  Elec       q    Type
REMARK                         _______ _______ _______ _____ _____    ______ ____
ROOT
ATOM      1  C   UNL     1      -0.688   1.469  -4.918  0.00  0.00    +0.091 A 
ATOM      2  C   UNL     1      -1.466   2.140  -5.863  0.00  0.00    -0.020 A 
ATOM      3  C   UNL     1      -2.492   2.908  -5.406  0.00  0.00    +0.025 A 
ATOM      4  S   UNL     1      -2.387   2.695  -3.639  0.00  0.00    -0.072 S 
ATOM      5  C   UNL     1      -1.024   1.626  -3.575  0.00  0.00    +0.087 A 
ATOM      6  C   UNL     1      -1.176   2.023  -7.337  0.00  0.00    +0.046 C 
ENDROOT
BRANCH   3   7
ATOM      7  C   UNL     1      -3.454   3.719  -6.182  0.00  0.00    -0.011 A 
ATOM      8  C   UNL     1      -3.000   4.571  -7.190  0.00  0.00    +0.009 A 
ATOM      9  C   UNL     1      -3.904   5.320  -7.914  0.00  0.00    +0.001 A 
ATOM     10  C   UNL     1      -5.257   5.237  -7.636  0.00  0.00    +0.000 A 
ATOM     11  C   UNL     1      -5.713   4.398  -6.634  0.00  0.00    +0.001 A 
ATOM     12  C   UNL     1      -4.820   3.639  -5.906  0.00  0.00    +0.009 A 
ENDBRANCH   3   7
BRANCH   5  13
ATOM     13  N   UNL     1      -0.417   1.069  -2.462  0.00  0.00    -0.281 N 
ATOM     14  C   UNL     1      -0.886   1.344  -1.229  0.00  0.00    +0.201 C 
ATOM     15  O   UNL     1      -1.840   2.080  -1.094  0.00  0.00    -0.278 OA
ATOM     16  H   UNL     1       0.449   0.401  -2.585  0.00  0.00    +0.155 HD
BRANCH  14  17
ATOM     17  C   UNL     1      -0.224   0.738  -0.019  0.00  0.00    +0.020 C 
BRANCH  17  18
ATOM     18  N   UNL     1      -0.917   1.190   1.196  0.00  0.00    +0.393 N 
ATOM     19  C   UNL     1      -0.580   2.603   1.507  0.00  0.00    -0.077 C 
ATOM     20  C   UNL     1      -0.905   2.759   3.008  0.00  0.00    -0.020 C 
ATOM     21  C   UNL     1      -0.821   1.331   3.587  0.00  0.00    -0.008 C 
ATOM     22  C   UNL     1      -0.453   0.433   2.386  0.00  0.00    +0.020 C 
ATOM     23  H   UNL     1      -1.988   1.043   0.989  0.00  0.00    -0.080 HD
BRANCH  22  24
ATOM     24  C   UNL     1      -1.166  -0.891   2.479  0.00  0.00    +0.202 C 
ATOM     25  O   UNL     1      -1.989  -1.196   1.642  0.00  0.00    -0.277 OA
ATOM     26  N   UNL     1      -0.890  -1.736   3.492  0.00  0.00    -0.309 N 
ATOM     27  C   UNL     1      -1.585  -3.023   3.582  0.00  0.00    +0.131 C 
ATOM     28  C   UNL     1       0.104  -1.368   4.503  0.00  0.00    +0.131 C 
ENDBRANCH  22  24
ENDBRANCH  17  18
ENDBRANCH  14  17
ENDBRANCH   5  13
BRANCH   1  29
ATOM     29  C   UNL     1       0.440   0.627  -5.325  0.00  0.00    +0.342 C 
ATOM     30  O   UNL     1       0.265  -0.553  -5.559  0.00  0.00    -0.245 OA
BRANCH  29  31
ATOM     31  O   UNL     1       1.674   1.161  -5.440  0.00  0.00    -0.461 OA
BRANCH  31  33
ATOM     32  C   UNL     1       4.058   1.048  -5.922  0.00  0.00    +0.048 C 
ATOM     33  C   UNL     1       2.744   0.268  -5.847  0.00  0.00    +0.229 C 
ENDBRANCH  31  33
ENDBRANCH  29  31
ENDBRANCH   1  29
TORSDOF 8
