REMARK  Name = ZINC37519504
REMARK  16 active torsions:
REMARK  status: ('A' for Active; 'I' for Inactive)
REMARK    1  A    between atoms: C_1  and  C_2
REMARK    2  A    between atoms: C_2  and  N_3
REMARK    3  A    between atoms: N_3  and  C_4
REMARK    4  A    between atoms: N_3  and  C_6
REMARK    5  A    between atoms: C_4  and  C_5
REMARK    6  A    between atoms: C_6  and  C_7
REMARK    7  A    between atoms: C_7  and  N_8
REMARK    8  A    between atoms: C_9  and  C_11
REMARK    9  A    between atoms: C_11  and  N_12
REMARK   10  A    between atoms: C_15  and  C_23
REMARK   11  A    between atoms: C_23  and  C_25
REMARK   12  A    between atoms: C_25  and  O_26
REMARK   13  A    between atoms: O_26  and  C_27
REMARK   14  A    between atoms: C_29  and  C_35
REMARK   15  A    between atoms: C_31  and  C_34
REMARK   16  A    between atoms: C_32  and  C_33
REMARK                            x       y       z     vdW  Elec       q    Type
REMARK                         _______ _______ _______ _____ _____    ______ ____
ROOT
ATOM      1  N   UNL     1      -4.311  -5.777  -2.293  0.00  0.00    -0.257 N 
ATOM      2  C   UNL     1      -5.065  -6.075  -1.149  0.00  0.00    +0.079 A 
ATOM      3  C   UNL     1      -4.559  -5.827   0.111  0.00  0.00    +0.038 A 
ATOM      4  C   UNL     1      -5.329  -6.134   1.240  0.00  0.00    +0.023 A 
ATOM      5  C   UNL     1      -6.605  -6.690   1.084  0.00  0.00    +0.015 A 
ATOM      6  C   UNL     1      -7.102  -6.934  -0.177  0.00  0.00    +0.048 A 
ATOM      7  C   UNL     1      -6.340  -6.630  -1.297  0.00  0.00    +0.143 A 
ATOM      8  O   UNL     1      -6.824  -6.864  -2.544  0.00  0.00    -0.481 OA
ATOM      9  C   UNL     1      -6.420  -5.956  -3.572  0.00  0.00    +0.325 C 
ATOM     10  C   UNL     1      -4.933  -5.722  -3.491  0.00  0.00    +0.258 C 
ATOM     11  O   UNL     1      -4.298  -5.491  -4.498  0.00  0.00    -0.271 OA
ENDROOT
BRANCH   4  12
ATOM     12  C   UNL     1      -4.799  -5.873   2.585  0.00  0.00    +0.200 C 
ATOM     13  O   UNL     1      -3.694  -5.392   2.719  0.00  0.00    -0.288 OA
BRANCH  12  14
ATOM     14  C   UNL     1      -5.628  -6.204   3.799  0.00  0.00    +0.308 C 
BRANCH  14  15
ATOM     15  O   UNL     1      -4.901  -5.862   4.980  0.00  0.00    -0.484 OA
BRANCH  15  16
ATOM     16  C   UNL     1      -5.512  -6.099   6.171  0.00  0.00    +0.125 A 
ATOM     17  C   UNL     1      -6.783  -6.655   6.202  0.00  0.00    +0.049 A 
ATOM     18  C   UNL     1      -7.402  -6.895   7.413  0.00  0.00    -0.047 A 
ATOM     19  C   UNL     1      -6.755  -6.582   8.595  0.00  0.00    +0.007 A 
ATOM     20  C   UNL     1      -5.489  -6.028   8.567  0.00  0.00    -0.044 A 
ATOM     21  C   UNL     1      -4.863  -5.791   7.358  0.00  0.00    -0.006 A 
ATOM     22  C   UNL     1      -3.481  -5.193   7.328  0.00  0.00    +0.048 C 
ATOM     23  C   UNL     1      -4.787  -5.688   9.857  0.00  0.00    +0.044 C 
ATOM     24  C   UNL     1      -8.782  -7.498   7.447  0.00  0.00    +0.044 C 
ENDBRANCH  15  16
ENDBRANCH  14  15
ENDBRANCH  12  14
ENDBRANCH   4  12
BRANCH   1  25
ATOM     25  C   UNL     1      -2.872  -5.521  -2.190  0.00  0.00    +0.209 C 
BRANCH  25  27
ATOM     26  N   UNL     1      -1.382  -3.580  -1.830  0.00  0.00    -0.316 N 
ATOM     27  C   UNL     1      -2.638  -4.051  -1.957  0.00  0.00    +0.231 C 
ATOM     28  O   UNL     1      -3.581  -3.291  -1.885  0.00  0.00    -0.274 OA
ATOM     29  H   UNL     1      -0.628  -4.188  -1.888  0.00  0.00    +0.149 HD
BRANCH  26  30
ATOM     30  C   UNL     1      -1.155  -2.151  -1.603  0.00  0.00    +0.086 C 
BRANCH  30  31
ATOM     31  C   UNL     1       0.348  -1.884  -1.496  0.00  0.00    -0.060 C 
BRANCH  31  32
ATOM     32  N   UNL     1       0.576  -0.451  -1.269  0.00  0.00    +0.380 N 
ATOM     33  H   UNL     1       0.124   0.081  -1.998  0.00  0.00    -0.082 HD
BRANCH  32  35
ATOM     34  C   UNL     1       0.128   1.449   0.210  0.00  0.00    -0.017 C 
ATOM     35  C   UNL     1       0.019  -0.067   0.035  0.00  0.00    -0.082 C 
ENDBRANCH  32  35
BRANCH  32  36
ATOM     36  C   UNL     1       2.019  -0.176  -1.285  0.00  0.00    -0.082 C 
ATOM     37  C   UNL     1       2.573  -0.440  -2.687  0.00  0.00    -0.017 C 
ENDBRANCH  32  36
ENDBRANCH  31  32
ENDBRANCH  30  31
ENDBRANCH  26  30
ENDBRANCH  25  27
ENDBRANCH   1  25
TORSDOF 11
