REMARK  Name = ZINC36303694
REMARK  18 active torsions:
REMARK  status: ('A' for Active; 'I' for Inactive)
REMARK    1  A    between atoms: C_1  and  C_2
REMARK    2  A    between atoms: C_3  and  C_21
REMARK    3  A    between atoms: C_4  and  O_13
REMARK    4  A    between atoms: N_5  and  C_7
REMARK    5  A    between atoms: O_13  and  C_14
REMARK    6  A    between atoms: C_21  and  N_22
REMARK    7  A    between atoms: N_22  and  C_23
REMARK    8  A    between atoms: N_22  and  C_33
REMARK    9  A    between atoms: C_23  and  C_24
REMARK   10  A    between atoms: C_24  and  C_26
REMARK   11  A    between atoms: C_24  and  O_32
REMARK   12  A    between atoms: C_26  and  O_27
REMARK   13  A    between atoms: O_27  and  C_28
REMARK   14  A    between atoms: C_28  and  C_29
REMARK   15  A    between atoms: C_29  and  C_30
REMARK   16  A    between atoms: C_29  and  C_31
REMARK   17  A    between atoms: C_33  and  C_34
REMARK   18  A    between atoms: C_33  and  C_35
REMARK                            x       y       z     vdW  Elec       q    Type
REMARK                         _______ _______ _______ _____ _____    ______ ____
ROOT
ATOM      1  C   UNL     1      -1.425  -0.538  -0.373  0.00  0.00    +0.068 C 
ATOM      2  C   UNL     1      -1.126  -1.595  -1.404  0.00  0.00    +0.065 A 
ATOM      3  C   UNL     1      -0.537  -1.375  -2.653  0.00  0.00    +0.021 A 
ATOM      4  C   UNL     1      -0.436  -2.575  -3.285  0.00  0.00    +0.225 A 
ATOM      5  N   UNL     1      -0.949  -3.520  -2.451  0.00  0.00    -0.200 N 
ATOM      6  N   UNL     1      -1.367  -2.876  -1.280  0.00  0.00    -0.168 NA
ENDROOT
BRANCH   5   7
ATOM      7  C   UNL     1      -1.038  -4.894  -2.715  0.00  0.00    +0.069 A 
ATOM      8  C   UNL     1      -1.414  -5.337  -3.976  0.00  0.00    +0.028 A 
ATOM      9  C   UNL     1      -1.501  -6.691  -4.233  0.00  0.00    +0.002 A 
ATOM     10  C   UNL     1      -1.213  -7.605  -3.236  0.00  0.00    +0.000 A 
ATOM     11  C   UNL     1      -0.839  -7.167  -1.979  0.00  0.00    +0.002 A 
ATOM     12  C   UNL     1      -0.744  -5.814  -1.718  0.00  0.00    +0.028 A 
ENDBRANCH   5   7
BRANCH   4  13
ATOM     13  O   UNL     1       0.080  -2.791  -4.521  0.00  0.00    -0.438 OA
BRANCH  13  14
ATOM     14  C   UNL     1       1.342  -3.288  -4.608  0.00  0.00    +0.130 A 
ATOM     15  C   UNL     1       2.064  -3.555  -3.453  0.00  0.00    +0.048 A 
ATOM     16  C   UNL     1       3.346  -4.061  -3.543  0.00  0.00    +0.023 A 
ATOM     17  C   UNL     1       3.911  -4.300  -4.784  0.00  0.00    +0.041 A 
ATOM     18  C   UNL     1       3.193  -4.033  -5.936  0.00  0.00    +0.023 A 
ATOM     19  C   UNL     1       1.909  -3.533  -5.850  0.00  0.00    +0.048 A 
ATOM     20 CL   UNL     1       5.523  -4.935  -4.894  0.00  0.00    -0.084 Cl
ENDBRANCH  13  14
ENDBRANCH   4  13
BRANCH   3  21
ATOM     21  C   UNL     1      -0.094  -0.044  -3.203  0.00  0.00    -0.035 C 
BRANCH  21  22
ATOM     22  N   UNL     1       1.373  -0.004  -3.265  0.00  0.00    +0.386 N 
ATOM     23  H   UNL     1       1.721  -0.899  -3.575  0.00  0.00    -0.081 HD
BRANCH  22  24
ATOM     24  C   UNL     1       1.912   0.296  -1.932  0.00  0.00    -0.074 C 
ATOM     25  C   UNL     1       1.230   1.548  -1.376  0.00  0.00    -0.014 C 
ATOM     26  C   UNL     1       1.647  -0.886  -0.997  0.00  0.00    -0.014 C 
ENDBRANCH  22  24
BRANCH  22  27
ATOM     27  C   UNL     1       1.795   1.039  -4.209  0.00  0.00    -0.044 C 
BRANCH  27  28
ATOM     28  C   UNL     1       3.304   0.936  -4.443  0.00  0.00    +0.124 C 
BRANCH  28  29
ATOM     29  O   UNL     1       3.998   1.444  -3.302  0.00  0.00    -0.391 OA
ATOM     30  H   UNL     1       3.772   2.357  -3.079  0.00  0.00    +0.210 HD
ENDBRANCH  28  29
BRANCH  28  31
ATOM     31  C   UNL     1       3.685   1.754  -5.679  0.00  0.00    +0.189 C 
BRANCH  31  32
ATOM     32  O   UNL     1       5.072   1.564  -5.965  0.00  0.00    -0.377 OA
BRANCH  32  33
ATOM     33  C   UNL     1       5.534   2.289  -7.107  0.00  0.00    +0.163 C 
BRANCH  33  34
ATOM     34  C   UNL     1       7.024   2.012  -7.319  0.00  0.00    +0.009 C 
ATOM     35  C   UNL     1       7.224   0.536  -7.668  0.00  0.00    +0.009 C 
ATOM     36  C   UNL     1       7.547   2.882  -8.464  0.00  0.00    +0.009 C 
ENDBRANCH  33  34
ENDBRANCH  32  33
ENDBRANCH  31  32
ENDBRANCH  28  31
ENDBRANCH  27  28
ENDBRANCH  22  27
ENDBRANCH  21  22
ENDBRANCH   3  21
TORSDOF 13
