REMARK  Name = ZINC39560783
REMARK  10 active torsions:
REMARK  status: ('A' for Active; 'I' for Inactive)
REMARK    1  A    between atoms: C_1  and  C_2
REMARK    2  A    between atoms: C_2  and  C_3
REMARK    3  A    between atoms: C_2  and  N_4
REMARK    4  A    between atoms: N_4  and  C_5
REMARK    5  A    between atoms: C_8  and  C_30
REMARK    6  A    between atoms: C_24  and  C_26
REMARK    7  A    between atoms: C_26  and  O_28
REMARK    8  A    between atoms: O_28  and  C_29
REMARK    9  A    between atoms: C_33  and  O_36
REMARK   10  A    between atoms: O_36  and  C_37
REMARK                            x       y       z     vdW  Elec       q    Type
REMARK                         _______ _______ _______ _____ _____    ______ ____
ROOT
ATOM      1  C   UNL     1      -2.965  -0.748  -1.198  0.00  0.00    -0.068 C 
ATOM      2  C   UNL     1      -2.533   0.711  -1.368  0.00  0.00    +0.008 C 
ATOM      3  C   UNL     1      -2.912   1.505  -0.116  0.00  0.00    +0.087 C 
ATOM      4  N   UNL     1      -4.363   1.422   0.092  0.00  0.00    -0.274 NA
ATOM      5  C   UNL     1      -4.782   0.031   0.322  0.00  0.00    +0.106 C 
ATOM      6  C   UNL     1      -4.471  -0.802  -0.923  0.00  0.00    +0.009 C 
ATOM      7  C   UNL     1      -6.268   0.022   0.584  0.00  0.00    +0.063 C 
ATOM      8  N   UNL     1      -7.096  -0.991   0.547  0.00  0.00    -0.250 NA
ATOM      9  C   UNL     1      -8.331  -0.565   0.844  0.00  0.00    +0.068 C 
ATOM     10  C   UNL     1      -9.535  -1.263   0.931  0.00  0.00    +0.028 C 
ATOM     11  C   UNL     1     -10.691  -0.529   1.270  0.00  0.00    -0.002 C 
ATOM     12  C   UNL     1     -10.689   0.779   1.506  0.00  0.00    -0.022 C 
ATOM     13  C   UNL     1      -9.474   1.661   1.448  0.00  0.00    +0.064 C 
ATOM     14  C   UNL     1      -8.268   0.841   1.087  0.00  0.00    -0.013 C 
ATOM     15  C   UNL     1      -6.984   1.192   0.924  0.00  0.00    -0.017 C 
ATOM     16  C   UNL     1      -6.325   2.542   1.059  0.00  0.00    +0.067 C 
ATOM     17  C   UNL     1      -4.809   2.318   1.163  0.00  0.00    +0.172 C 
ENDROOT
BRANCH   3  18
ATOM     18  C   UNL     1      -2.510   2.947  -0.293  0.00  0.00    -0.030 A 
ATOM     19  C   UNL     1      -3.311   3.801  -1.029  0.00  0.00    +0.009 A 
ATOM     20  C   UNL     1      -2.945   5.123  -1.193  0.00  0.00    +0.046 A 
ATOM     21  C   UNL     1      -1.773   5.593  -0.619  0.00  0.00    +0.130 A 
ATOM     22  C   UNL     1      -0.971   4.734   0.119  0.00  0.00    +0.046 A 
ATOM     23  C   UNL     1      -1.345   3.414   0.284  0.00  0.00    +0.009 A 
BRANCH  21  24
ATOM     24  O   UNL     1      -1.410   6.893  -0.780  0.00  0.00    -0.406 OA
BRANCH  24  25
ATOM     25  C   UNL     1      -0.190   7.307  -0.161  0.00  0.00    +0.575 C 
ATOM     26  F   UNL     1       0.872   6.554  -0.673  0.00  0.00    -0.133 F 
ATOM     27  F   UNL     1       0.029   8.663  -0.425  0.00  0.00    -0.133 F 
ATOM     28  F   UNL     1      -0.278   7.110   1.221  0.00  0.00    -0.133 F 
ENDBRANCH  24  25
ENDBRANCH  21  24
ENDBRANCH   3  18
BRANCH   1  29
ATOM     29  N   UNL     1      -2.239  -1.345  -0.068  0.00  0.00    +0.383 N 
ATOM     30  H   UNL     1      -2.509  -0.883   0.787  0.00  0.00    -0.085 HD
ATOM     31  H   UNL     1      -1.246  -1.235  -0.211  0.00  0.00    -0.085 HD
BRANCH  29  33
ATOM     32  C   UNL     1      -2.064  -3.493  -1.231  0.00  0.00    -0.014 C 
ATOM     33  C   UNL     1      -2.566  -2.774   0.023  0.00  0.00    -0.078 C 
ATOM     34  C   UNL     1      -1.892  -3.373   1.259  0.00  0.00    -0.014 C 
ENDBRANCH  29  33
ENDBRANCH   1  29
BRANCH  17  35
ATOM     35  C   UNL     1      -4.486   1.700   2.499  0.00  0.00    +0.325 C 
ATOM     36  O   UNL     1      -4.783   0.550   2.721  0.00  0.00    -0.249 OA
BRANCH  35  37
ATOM     37  O   UNL     1      -3.868   2.427   3.443  0.00  0.00    -0.467 OA
ATOM     38  C   UNL     1      -3.592   1.777   4.686  0.00  0.00    +0.280 C 
ENDBRANCH  35  37
ENDBRANCH  17  35
TORSDOF 7
