REMARK  Name = ZINC54201548
REMARK  9 active torsions:
REMARK  status: ('A' for Active; 'I' for Inactive)
REMARK    1  A    between atoms: C_1  and  N_2
REMARK    2  A    between atoms: N_2  and  C_3
REMARK    3  A    between atoms: N_2  and  C_4
REMARK    4  A    between atoms: C_7  and  C_10
REMARK    5  A    between atoms: C_13  and  C_32
REMARK    6  A    between atoms: C_21  and  C_22
REMARK    7  A    between atoms: C_25  and  O_30
REMARK    8  A    between atoms: C_26  and  O_28
REMARK    9  A    between atoms: O_28  and  C_29
REMARK                            x       y       z     vdW  Elec       q    Type
REMARK                         _______ _______ _______ _____ _____    ______ ____
ROOT
ATOM      1  C   UNL     1      -5.999  -4.990   1.039  0.00  0.00    +0.136 C 
ATOM      2  C   UNL     1      -6.828  -5.380  -0.201  0.00  0.00    +0.087 C 
ATOM      3  C   UNL     1      -8.031  -4.467  -0.137  0.00  0.00    +0.069 C 
ATOM      4  N   UNL     1      -7.940  -3.708   0.900  0.00  0.00    -0.182 NA
ATOM      5  N   UNL     1      -6.793  -3.924   1.668  0.00  0.00    -0.195 N 
ATOM      6  C   UNL     1      -6.461  -3.253   2.816  0.00  0.00    +0.174 C 
ATOM      7  N   UNL     1      -5.389  -3.410   3.578  0.00  0.00    -0.152 NA
ATOM      8  C   UNL     1      -5.185  -2.697   4.663  0.00  0.00    +0.276 C 
ATOM      9  O   UNL     1      -4.193  -2.850   5.357  0.00  0.00    -0.267 OA
ATOM     10  C   UNL     1      -6.226  -1.697   4.998  0.00  0.00    +0.079 C 
ATOM     11  C   UNL     1      -6.294  -0.828   6.038  0.00  0.00    +0.028 C 
ATOM     12  S   UNL     1      -7.364  -1.953   3.642  0.00  0.00    -0.050 S 
ENDROOT
BRANCH   1  16
ATOM     13  C   UNL     1      -2.158  -3.519  -0.124  0.00  0.00    +0.029 A 
ATOM     14  C   UNL     1      -2.290  -4.814   0.362  0.00  0.00    +0.023 A 
ATOM     15  C   UNL     1      -3.532  -5.286   0.737  0.00  0.00    +0.007 A 
ATOM     16  C   UNL     1      -4.644  -4.471   0.629  0.00  0.00    -0.025 A 
ATOM     17  C   UNL     1      -4.517  -3.182   0.146  0.00  0.00    +0.007 A 
ATOM     18  C   UNL     1      -3.276  -2.702  -0.226  0.00  0.00    +0.023 A 
BRANCH  13  20
ATOM     19  C   UNL     1      -0.765  -1.671  -1.010  0.00  0.00    +0.129 C 
ATOM     20  N   UNL     1      -0.903  -3.039  -0.504  0.00  0.00    -0.336 N 
ATOM     21  C   UNL     1       0.276  -3.902  -0.396  0.00  0.00    +0.129 C 
ENDBRANCH  13  20
ENDBRANCH   1  16
BRANCH  11  22
ATOM     22  C   UNL     1      -7.519  -0.053   6.268  0.00  0.00    -0.020 A 
ATOM     23  C   UNL     1      -8.679  -0.340   5.537  0.00  0.00    +0.012 A 
ATOM     24  C   UNL     1      -9.828   0.389   5.756  0.00  0.00    +0.050 A 
ATOM     25  C   UNL     1      -9.839   1.408   6.699  0.00  0.00    +0.158 A 
ATOM     26  C   UNL     1      -8.688   1.700   7.431  0.00  0.00    +0.162 A 
ATOM     27  C   UNL     1      -7.534   0.972   7.223  0.00  0.00    +0.057 A 
BRANCH  26  28
ATOM     28  O   UNL     1      -8.705   2.699   8.353  0.00  0.00    -0.491 OA
ATOM     29  C   UNL     1      -7.490   2.944   9.066  0.00  0.00    +0.277 C 
ENDBRANCH  26  28
BRANCH  25  30
ATOM     30  O   UNL     1     -10.975   2.123   6.910  0.00  0.00    -0.503 OA
ATOM     31  H   UNL     1     -11.552   1.753   7.591  0.00  0.00    +0.292 HD
ENDBRANCH  25  30
ENDBRANCH  11  22
BRANCH   3  32
ATOM     32  C   UNL     1      -9.137  -4.447  -1.111  0.00  0.00    -0.002 A 
ATOM     33  C   UNL     1      -9.130  -5.325  -2.199  0.00  0.00    +0.010 A 
ATOM     34  C   UNL     1     -10.169  -5.301  -3.106  0.00  0.00    +0.001 A 
ATOM     35  C   UNL     1     -11.216  -4.412  -2.941  0.00  0.00    +0.000 A 
ATOM     36  C   UNL     1     -11.229  -3.540  -1.867  0.00  0.00    +0.001 A 
ATOM     37  C   UNL     1     -10.200  -3.556  -0.949  0.00  0.00    +0.010 A 
ENDBRANCH   3  32
TORSDOF 6
