REMARK  Name = ZINC35664216
REMARK  10 active torsions:
REMARK  status: ('A' for Active; 'I' for Inactive)
REMARK    1  A    between atoms: C_1  and  C_2
REMARK    2  A    between atoms: C_2  and  N_3
REMARK    3  A    between atoms: C_4  and  C_23
REMARK    4  A    between atoms: C_5  and  C_18
REMARK    5  A    between atoms: C_6  and  C_11
REMARK    6  A    between atoms: C_18  and  O_20
REMARK    7  A    between atoms: O_20  and  C_21
REMARK    8  A    between atoms: C_21  and  C_22
REMARK    9  A    between atoms: C_23  and  N_24
REMARK   10  A    between atoms: C_31  and  C_33
REMARK                            x       y       z     vdW  Elec       q    Type
REMARK                         _______ _______ _______ _____ _____    ______ ____
ROOT
ATOM      1  N   UNL     1       0.813  -0.568  -1.958  0.00  0.00    -0.261 N 
ATOM      2  C   UNL     1      -0.136  -1.246  -2.668  0.00  0.00    +0.010 C 
ATOM      3  C   UNL     1       0.211  -2.162  -3.597  0.00  0.00    +0.076 C 
ATOM      4  C   UNL     1       1.689  -2.412  -3.824  0.00  0.00    +0.144 C 
ATOM      5  N   UNL     1       2.631  -1.628  -3.008  0.00  0.00    -0.288 N 
ATOM      6  C   UNL     1       2.130  -0.744  -2.122  0.00  0.00    +0.307 C 
ATOM      7  O   UNL     1       2.900  -0.090  -1.445  0.00  0.00    -0.252 OA
ATOM      8  H   UNL     1       3.589  -1.743  -3.107  0.00  0.00    +0.151 HD
ENDROOT
BRANCH   4   9
ATOM      9  C   UNL     1       1.958  -3.872  -3.570  0.00  0.00    -0.020 A 
ATOM     10  C   UNL     1       2.089  -4.335  -2.274  0.00  0.00    +0.006 A 
ATOM     11  C   UNL     1       2.336  -5.675  -2.039  0.00  0.00    +0.003 A 
ATOM     12  C   UNL     1       2.453  -6.553  -3.099  0.00  0.00    +0.038 A 
ATOM     13  C   UNL     1       2.321  -6.091  -4.398  0.00  0.00    +0.124 A 
ATOM     14  C   UNL     1       2.068  -4.750  -4.632  0.00  0.00    +0.044 A 
ATOM     15  F   UNL     1       2.435  -6.948  -5.435  0.00  0.00    -0.205 F 
ENDBRANCH   4   9
BRANCH   1  17
ATOM     16  C   UNL     1       0.081   1.747  -1.660  0.00  0.00    +0.025 C 
ATOM     17  C   UNL     1       0.365   0.413  -0.966  0.00  0.00    +0.111 C 
ENDBRANCH   1  17
BRANCH   3  18
ATOM     18  C   UNL     1      -0.770  -2.866  -4.333  0.00  0.00    +0.339 C 
ATOM     19  O   UNL     1      -1.950  -2.624  -4.160  0.00  0.00    -0.245 OA
BRANCH  18  20
ATOM     20  O   UNL     1      -0.399  -3.807  -5.227  0.00  0.00    -0.462 OA
BRANCH  20  21
ATOM     21  C   UNL     1      -1.443  -4.478  -5.934  0.00  0.00    +0.229 C 
ATOM     22  C   UNL     1      -0.833  -5.501  -6.895  0.00  0.00    +0.048 C 
ENDBRANCH  20  21
ENDBRANCH  18  20
ENDBRANCH   3  18
BRANCH   2  23
ATOM     23  C   UNL     1      -1.594  -0.967  -2.411  0.00  0.00    -0.026 C 
BRANCH  23  24
ATOM     24  N   UNL     1      -2.156  -2.035  -1.573  0.00  0.00    +0.384 N 
ATOM     25  C   UNL     1      -3.611  -1.901  -1.571  0.00  0.00    -0.077 C 
ATOM     26  C   UNL     1      -4.238  -3.265  -1.382  0.00  0.00    +0.000 C 
ATOM     27  C   UNL     1      -4.510  -3.501   0.115  0.00  0.00    +0.106 C 
ATOM     28  N   UNL     1      -3.403  -2.983   0.944  0.00  0.00    -0.299 N 
ATOM     29  C   UNL     1      -2.013  -3.156   0.576  0.00  0.00    +0.089 C 
ATOM     30  C   UNL     1      -1.550  -1.968  -0.299  0.00  0.00    -0.059 C 
ATOM     31  C   UNL     1      -3.696  -2.327   2.084  0.00  0.00    +0.249 C 
ATOM     32  O   UNL     1      -2.806  -1.823   2.741  0.00  0.00    -0.270 OA
ATOM     33  H   UNL     1      -1.921  -2.923  -1.992  0.00  0.00    -0.081 HD
BRANCH  31  34
ATOM     34  C   UNL     1      -5.099  -2.220   2.534  0.00  0.00    +0.072 A 
ATOM     35  C   UNL     1      -5.861  -3.372   2.735  0.00  0.00    +0.016 A 
ATOM     36  C   UNL     1      -7.170  -3.265   3.155  0.00  0.00    +0.001 A 
ATOM     37  C   UNL     1      -7.730  -2.019   3.380  0.00  0.00    +0.003 A 
ATOM     38  C   UNL     1      -6.984  -0.873   3.184  0.00  0.00    +0.039 A 
ATOM     39  C   UNL     1      -5.668  -0.964   2.768  0.00  0.00    +0.135 A 
ATOM     40  F   UNL     1      -4.936   0.157   2.582  0.00  0.00    -0.205 F 
ENDBRANCH  31  34
ENDBRANCH  23  24
ENDBRANCH   2  23
TORSDOF 8
