REMARK  Name = ZINC41585374
REMARK  6 active torsions:
REMARK  status: ('A' for Active; 'I' for Inactive)
REMARK    1  A    between atoms: C_1  and  C_2
REMARK    2  A    between atoms: C_4  and  O_35
REMARK    3  A    between atoms: C_5  and  C_21
REMARK    4  A    between atoms: C_11  and  C_12
REMARK    5  A    between atoms: C_21  and  N_22
REMARK    6  A    between atoms: N_25  and  C_28
REMARK                            x       y       z     vdW  Elec       q    Type
REMARK                         _______ _______ _______ _____ _____    ______ ____
ROOT
ATOM      1  C   UNL     1      -0.655   1.599   0.132  0.00  0.00    +0.045 C 
ATOM      2  C   UNL     1      -0.760   0.096   0.112  0.00  0.00    -0.033 A 
ATOM      3  C   UNL     1      -1.038  -0.555  -1.057  0.00  0.00    +0.050 A 
ATOM      4  C   UNL     1      -1.136  -1.943  -1.078  0.00  0.00    +0.122 A 
ATOM      5  C   UNL     1      -0.954  -2.681   0.081  0.00  0.00    +0.020 A 
ATOM      6  C   UNL     1      -0.670  -2.035   1.277  0.00  0.00    +0.145 A 
ATOM      7  C   UNL     1      -0.568  -0.634   1.285  0.00  0.00    +0.071 A 
ATOM      8  C   UNL     1      -0.257  -0.248   2.674  0.00  0.00    +0.232 C 
ATOM      9  O   UNL     1      -0.091   0.876   3.116  0.00  0.00    -0.283 OA
ATOM     10  C   UNL     1      -0.193  -1.522   3.405  0.00  0.00    +0.176 C 
ATOM     11  C   UNL     1       0.069  -1.675   4.728  0.00  0.00    +0.059 C 
ATOM     12  O   UNL     1      -0.453  -2.514   2.521  0.00  0.00    -0.451 OA
ENDROOT
BRANCH  11  13
ATOM     13  C   UNL     1      -0.019  -3.005   5.345  0.00  0.00    -0.003 A 
ATOM     14  C   UNL     1      -0.011  -4.154   4.545  0.00  0.00    +0.011 A 
ATOM     15  C   UNL     1      -0.093  -5.398   5.130  0.00  0.00    +0.020 A 
ATOM     16  C   UNL     1      -0.183  -5.515   6.509  0.00  0.00    +0.042 A 
ATOM     17  C   UNL     1      -0.192  -4.384   7.308  0.00  0.00    +0.040 A 
ATOM     18  C   UNL     1      -0.104  -3.131   6.737  0.00  0.00    +0.050 A 
ATOM     19 CL   UNL     1      -0.107  -1.715   7.741  0.00  0.00    -0.083 Cl
ATOM     20 CL   UNL     1      -0.286  -7.088   7.237  0.00  0.00    -0.083 Cl
ENDBRANCH  11  13
BRANCH   4  21
ATOM     21  O   UNL     1      -1.414  -2.580  -2.244  0.00  0.00    -0.506 OA
ATOM     22  H   UNL     1      -0.630  -2.823  -2.756  0.00  0.00    +0.292 HD
ENDBRANCH   4  21
BRANCH   5  23
ATOM     23  C   UNL     1      -1.063  -4.183   0.043  0.00  0.00    -0.035 C 
BRANCH  23  24
ATOM     24  N   UNL     1       0.256  -4.763  -0.242  0.00  0.00    +0.385 N 
ATOM     25  C   UNL     1       0.686  -4.361  -1.587  0.00  0.00    -0.059 C 
ATOM     26  C   UNL     1       2.109  -4.870  -1.841  0.00  0.00    +0.086 C 
ATOM     27  N   UNL     1       2.134  -6.322  -1.604  0.00  0.00    -0.331 N 
ATOM     28  C   UNL     1       1.570  -6.828  -0.343  0.00  0.00    +0.086 C 
ATOM     29  C   UNL     1       0.173  -6.227  -0.160  0.00  0.00    -0.059 C 
ATOM     30  H   UNL     1       0.923  -4.427   0.437  0.00  0.00    -0.081 HD
BRANCH  27  31
ATOM     31  C   UNL     1       2.679  -7.195  -2.550  0.00  0.00    +0.065 A 
ATOM     32  C   UNL     1       4.025  -7.530  -2.495  0.00  0.00    +0.026 A 
ATOM     33  C   UNL     1       4.560  -8.394  -3.431  0.00  0.00    +0.002 A 
ATOM     34  C   UNL     1       3.757  -8.925  -4.423  0.00  0.00    +0.003 A 
ATOM     35  C   UNL     1       2.416  -8.594  -4.483  0.00  0.00    +0.040 A 
ATOM     36  C   UNL     1       1.872  -7.735  -3.546  0.00  0.00    +0.144 A 
ATOM     37  F   UNL     1       0.560  -7.417  -3.601  0.00  0.00    -0.204 F 
ENDBRANCH  27  31
ENDBRANCH  23  24
ENDBRANCH   5  23
TORSDOF 5
