REMARK  Name = ZINC13809843
REMARK  10 active torsions:
REMARK  status: ('A' for Active; 'I' for Inactive)
REMARK    1  A    between atoms: C_1  and  C_2
REMARK    2  A    between atoms: C_2  and  C_3
REMARK    3  A    between atoms: C_3  and  O_4
REMARK    4  A    between atoms: O_4  and  C_5
REMARK    5  A    between atoms: C_8  and  C_12
REMARK    6  A    between atoms: C_10  and  C_11
REMARK    7  A    between atoms: C_13  and  C_23
REMARK    8  A    between atoms: N_15  and  C_17
REMARK    9  A    between atoms: C_32  and  C_39
REMARK   10  A    between atoms: C_35  and  C_38
REMARK                            x       y       z     vdW  Elec       q    Type
REMARK                         _______ _______ _______ _____ _____    ______ ____
ROOT
ATOM      1  C   UNL     1       6.032   3.671   6.739  0.00  0.00    +0.100 A 
ATOM      2  C   UNL     1       5.144   2.906   5.855  0.00  0.00    +0.022 A 
ATOM      3  C   UNL     1       3.923   2.831   6.501  0.00  0.00    +0.123 A 
ATOM      4  N   UNL     1       4.035   3.489   7.670  0.00  0.00    -0.239 N 
ATOM      5  N   UNL     1       5.329   4.000   7.799  0.00  0.00    -0.166 NA
ENDROOT
BRANCH   2   6
ATOM      6  C   UNL     1       5.485   2.330   4.551  0.00  0.00    +0.032 C 
ATOM      7  C   UNL     1       4.944   1.144   4.169  0.00  0.00    +0.080 C 
ATOM      8  C   UNL     1       4.121   0.186   4.940  0.00  0.00    +0.276 C 
ATOM      9  O   UNL     1       3.821   0.389   6.106  0.00  0.00    -0.267 OA
ATOM     10  N   UNL     1       3.732  -0.896   4.302  0.00  0.00    -0.154 NA
ATOM     11  C   UNL     1       4.051  -1.129   3.039  0.00  0.00    +0.154 C 
ATOM     12  S   UNL     1       5.032   0.297   2.596  0.00  0.00    -0.052 S 
ATOM     13  N   UNL     1       3.716  -2.205   2.260  0.00  0.00    -0.307 N 
ATOM     14  C   UNL     1       4.164  -2.298   0.862  0.00  0.00    +0.138 C 
ATOM     15  C   UNL     1       2.947  -2.610  -0.017  0.00  0.00    +0.133 C 
ATOM     16  O   UNL     1       2.267  -3.752   0.509  0.00  0.00    -0.371 OA
ATOM     17  C   UNL     1       1.741  -3.565   1.826  0.00  0.00    +0.133 C 
ATOM     18  C   UNL     1       2.896  -3.303   2.798  0.00  0.00    +0.138 C 
ATOM     19  C   UNL     1       0.787  -2.369   1.830  0.00  0.00    +0.039 C 
ATOM     20  C   UNL     1       3.409  -2.903  -1.445  0.00  0.00    +0.039 C 
ENDBRANCH   2   6
BRANCH   1  24
ATOM     21  C   UNL     1      10.104   4.648   6.002  0.00  0.00    +0.123 A 
ATOM     22  C   UNL     1       9.594   3.432   5.567  0.00  0.00    +0.046 A 
ATOM     23  C   UNL     1       8.274   3.112   5.804  0.00  0.00    +0.014 A 
ATOM     24  C   UNL     1       7.451   4.012   6.482  0.00  0.00    +0.003 A 
ATOM     25  C   UNL     1       7.965   5.234   6.912  0.00  0.00    +0.017 A 
ATOM     26  C   UNL     1       9.288   5.545   6.676  0.00  0.00    -0.008 A 
ATOM     27  C   UNL     1       9.846   6.864   7.146  0.00  0.00    +0.047 C 
BRANCH  21  28
ATOM     28  O   UNL     1      11.405   4.960   5.766  0.00  0.00    -0.492 OA
BRANCH  28  29
ATOM     29  C   UNL     1      12.188   3.990   5.067  0.00  0.00    +0.229 C 
BRANCH  29  31
ATOM     30  C   UNL     1      14.454   3.477   4.147  0.00  0.00    +0.007 C 
ATOM     31  C   UNL     1      13.616   4.515   4.896  0.00  0.00    +0.038 C 
ENDBRANCH  29  31
ENDBRANCH  28  29
ENDBRANCH  21  28
ENDBRANCH   1  24
BRANCH   4  32
ATOM     32  C   UNL     1       3.010   3.638   8.613  0.00  0.00    +0.065 A 
ATOM     33  C   UNL     1       1.758   3.088   8.372  0.00  0.00    +0.028 A 
ATOM     34  C   UNL     1       0.751   3.231   9.307  0.00  0.00    +0.002 A 
ATOM     35  C   UNL     1       0.986   3.932  10.476  0.00  0.00    +0.000 A 
ATOM     36  C   UNL     1       2.230   4.486  10.716  0.00  0.00    +0.002 A 
ATOM     37  C   UNL     1       3.243   4.341   9.788  0.00  0.00    +0.028 A 
ENDBRANCH   4  32
TORSDOF 6
