REMARK  Name = ZINC65366098
REMARK  3 active torsions:
REMARK  status: ('A' for Active; 'I' for Inactive)
REMARK    1  A    between atoms: C_1  and  C_2
REMARK    2  A    between atoms: C_4  and  C_8
REMARK    3  A    between atoms: C_16  and  C_22
REMARK                            x       y       z     vdW  Elec       q    Type
REMARK                         _______ _______ _______ _____ _____    ______ ____
ROOT
ATOM      1  C   UNL     1      -0.964  -2.951   1.248  0.00  0.00    +0.203 C 
ATOM      2  N   UNL     1      -0.395  -4.319   1.238  0.00  0.00    -0.278 NA
ATOM      3  C   UNL     1       0.862  -4.144   2.011  0.00  0.00    +0.187 C 
ATOM      4  C   UNL     1       0.590  -2.936   2.890  0.00  0.00    +0.042 C 
ATOM      5  N   UNL     1      -0.423  -2.299   2.446  0.00  0.00    -0.269 NA
ATOM      6  C   UNL     1       1.405  -2.596   4.108  0.00  0.00    +0.062 C 
ATOM      7  C   UNL     1       2.886  -2.455   3.723  0.00  0.00    +0.042 C 
ATOM      8  C   UNL     1       2.971  -1.890   2.301  0.00  0.00    +0.112 C 
ATOM      9  N   UNL     1       2.924  -2.943   1.306  0.00  0.00    -0.313 N 
ATOM     10  C   UNL     1       1.972  -3.831   1.043  0.00  0.00    +0.236 C 
ATOM     11  O   UNL     1       1.979  -4.404  -0.026  0.00  0.00    -0.274 OA
ATOM     12  H   UNL     1      -1.014  -4.971   1.696  0.00  0.00    +0.125 HD
ATOM     13  H   UNL     1       3.714  -3.022   0.749  0.00  0.00    +0.149 HD
ENDROOT
BRANCH   7  14
ATOM     14  C   UNL     1       3.571  -1.519   4.685  0.00  0.00    -0.042 A 
ATOM     15  C   UNL     1       3.131  -0.215   4.812  0.00  0.00    +0.005 A 
ATOM     16  C   UNL     1       3.759   0.645   5.694  0.00  0.00    +0.020 A 
ATOM     17  C   UNL     1       4.828   0.199   6.450  0.00  0.00    +0.041 A 
ATOM     18  C   UNL     1       5.269  -1.106   6.322  0.00  0.00    +0.020 A 
ATOM     19  C   UNL     1       4.637  -1.966   5.444  0.00  0.00    +0.005 A 
ATOM     20 CL   UNL     1       5.618   1.278   7.557  0.00  0.00    -0.084 Cl
ENDBRANCH   7  14
BRANCH   1  24
ATOM     21  C   UNL     1      -0.018   1.503   0.010  0.00  0.00    +0.067 C 
ATOM     22  C   UNL     1       0.002  -0.004   0.002  0.00  0.00    +0.058 C 
ATOM     23  C   UNL     1      -1.086  -0.777   0.003  0.00  0.00    +0.029 C 
ATOM     24  C   UNL     1      -0.531  -2.190  -0.007  0.00  0.00    +0.191 C 
ATOM     25  N   UNL     1       0.926  -1.973  -0.013  0.00  0.00    -0.176 NA
ATOM     26  N   UNL     1       1.125  -0.756  -0.013  0.00  0.00    -0.159 NA
ENDBRANCH   1  24
TORSDOF 2
