REMARK  Name = ZINC64816204
REMARK  8 active torsions:
REMARK  status: ('A' for Active; 'I' for Inactive)
REMARK    1  A    between atoms: C_1  and  C_2
REMARK    2  A    between atoms: C_2  and  C_3
REMARK    3  A    between atoms: C_6  and  N_9
REMARK    4  A    between atoms: C_14  and  C_30
REMARK    5  A    between atoms: C_18  and  C_19
REMARK    6  A    between atoms: C_18  and  C_20
REMARK    7  A    between atoms: N_22  and  C_23
REMARK    8  A    between atoms: C_23  and  C_24
REMARK                            x       y       z     vdW  Elec       q    Type
REMARK                         _______ _______ _______ _____ _____    ______ ____
ROOT
ATOM      1  N   UNL     1       2.658  -2.077  -4.671  0.00  0.00    -0.250 N 
ATOM      2  C   UNL     1       1.989  -2.444  -5.790  0.00  0.00    +0.270 C 
ATOM      3  O   UNL     1       0.778  -2.359  -5.871  0.00  0.00    -0.268 OA
ATOM      4  C   UNL     1       2.807  -2.951  -6.903  0.00  0.00    +0.125 A 
ATOM      5  C   UNL     1       2.490  -3.231  -8.200  0.00  0.00    +0.065 A 
ATOM      6  C   UNL     1       3.700  -3.668  -8.786  0.00  0.00    +0.128 A 
ATOM      7  N   UNL     1       4.632  -3.633  -7.850  0.00  0.00    -0.167 NA
ATOM      8  N   UNL     1       4.147  -3.232  -6.740  0.00  0.00    -0.256 N 
ATOM      9  C   UNL     1       4.802  -3.074  -5.436  0.00  0.00    +0.179 C 
ATOM     10  C   UNL     1       4.111  -1.951  -4.657  0.00  0.00    +0.135 C 
ATOM     11  C   UNL     1       4.597  -1.983  -3.207  0.00  0.00    +0.044 C 
ENDROOT
BRANCH   1  15
ATOM     12  C   UNL     1       0.515  -1.275  -1.190  0.00  0.00    -0.048 A 
ATOM     13  C   UNL     1       0.859  -2.577  -1.504  0.00  0.00    +0.005 A 
ATOM     14  C   UNL     1       1.569  -2.847  -2.658  0.00  0.00    +0.024 A 
ATOM     15  C   UNL     1       1.938  -1.808  -3.502  0.00  0.00    +0.038 A 
ATOM     16  C   UNL     1       1.591  -0.501  -3.184  0.00  0.00    +0.024 A 
ATOM     17  C   UNL     1       0.876  -0.239  -2.032  0.00  0.00    +0.005 A 
BRANCH  12  19
ATOM     18  C   UNL     1      -1.760  -1.044  -0.231  0.00  0.00    +0.009 C 
ATOM     19  C   UNL     1      -0.261  -0.985   0.069  0.00  0.00    +0.032 C 
ENDBRANCH  12  19
ENDBRANCH   1  15
BRANCH   6  20
ATOM     20  C   UNL     1       3.888  -4.088 -10.191  0.00  0.00    +0.155 A 
ATOM     21  C   UNL     1       5.053  -4.513 -10.748  0.00  0.00    +0.051 A 
ATOM     22  C   UNL     1       4.774  -4.808 -12.098  0.00  0.00    +0.042 A 
ATOM     23  C   UNL     1       3.467  -4.552 -12.296  0.00  0.00    +0.196 A 
ATOM     24  O   UNL     1       2.933  -4.122 -11.140  0.00  0.00    -0.461 OA
ENDBRANCH   6  20
BRANCH  10  25
ATOM     25  C   UNL     1       4.490  -0.625  -5.266  0.00  0.00    +0.239 C 
ATOM     26  O   UNL     1       5.447  -0.014  -4.839  0.00  0.00    -0.273 OA
ATOM     27  N   UNL     1       3.766  -0.119  -6.283  0.00  0.00    -0.309 N 
ATOM     28  H   UNL     1       3.001  -0.608  -6.624  0.00  0.00    +0.149 HD
BRANCH  27  29
ATOM     29  C   UNL     1       4.134   1.170  -6.874  0.00  0.00    +0.139 C 
BRANCH  29  30
ATOM     30  C   UNL     1       3.173   1.507  -7.984  0.00  0.00    -0.030 A 
ATOM     31  C   UNL     1       3.437   1.094  -9.277  0.00  0.00    +0.005 A 
ATOM     32  C   UNL     1       2.555   1.403 -10.295  0.00  0.00    +0.000 A 
ATOM     33  C   UNL     1       1.408   2.124 -10.021  0.00  0.00    +0.000 A 
ATOM     34  C   UNL     1       1.143   2.536  -8.728  0.00  0.00    +0.000 A 
ATOM     35  C   UNL     1       2.023   2.224  -7.709  0.00  0.00    +0.005 A 
ENDBRANCH  29  30
ENDBRANCH  27  29
ENDBRANCH  10  25
TORSDOF 6
