REMARK  Name = ZINC40315681
REMARK  11 active torsions:
REMARK  status: ('A' for Active; 'I' for Inactive)
REMARK    1  A    between atoms: C_1  and  C_2
REMARK    2  A    between atoms: C_5  and  O_9
REMARK    3  A    between atoms: C_6  and  C_8
REMARK    4  A    between atoms: O_9  and  C_10
REMARK    5  A    between atoms: C_10  and  C_11
REMARK    6  A    between atoms: C_11  and  C_13
REMARK    7  A    between atoms: C_11  and  O_32
REMARK    8  A    between atoms: C_13  and  N_14
REMARK    9  A    between atoms: N_14  and  C_15
REMARK   10  A    between atoms: N_14  and  C_24
REMARK   11  A    between atoms: C_15  and  C_16
REMARK                            x       y       z     vdW  Elec       q    Type
REMARK                         _______ _______ _______ _____ _____    ______ ____
ROOT
ATOM      1  N   UNL     1       1.252  -8.430  -2.870  0.00  0.00    +0.387 N 
ATOM      2  H   UNL     1       2.151  -8.859  -3.030  0.00  0.00    -0.081 HD
ENDROOT
BRANCH   1   3
ATOM      3  C   UNL     1       0.900  -8.549  -1.448  0.00  0.00    -0.045 C 
ATOM      4  C   UNL     1       2.039  -7.985  -0.583  0.00  0.00    +0.009 C 
ATOM      5  C   UNL     1       1.828  -8.391   0.896  0.00  0.00    +0.164 C 
ATOM      6  S   UNL     1       0.895  -9.969   0.752  0.00  0.00    -0.033 S 
ATOM      7  O   UNL     1      -0.387  -9.804   1.343  0.00  0.00    -0.174 OA
ATOM      8  O   UNL     1       1.728 -11.039   1.178  0.00  0.00    -0.174 OA
ATOM      9  C   UNL     1       0.706 -10.047  -1.079  0.00  0.00    +0.151 C 
ENDBRANCH   1   3
BRANCH   1  10
ATOM     10  C   UNL     1       1.313  -7.010  -3.242  0.00  0.00    -0.043 C 
BRANCH  10  11
ATOM     11  C   UNL     1       2.731  -6.484  -3.016  0.00  0.00    +0.135 C 
BRANCH  11  12
ATOM     12  O   UNL     1       3.649  -7.225  -3.823  0.00  0.00    -0.390 OA
ATOM     13  H   UNL     1       3.472  -7.168  -4.772  0.00  0.00    +0.210 HD
ENDBRANCH  11  12
BRANCH  11  14
ATOM     14  C   UNL     1       2.794  -5.004  -3.400  0.00  0.00    +0.258 C 
BRANCH  14  15
ATOM     15  O   UNL     1       4.085  -4.483  -3.079  0.00  0.00    -0.489 OA
BRANCH  15  20
ATOM     16  C   UNL     1       5.009   0.951  -4.238  0.00  0.00    +0.044 C 
ATOM     17  C   UNL     1       4.762  -0.503  -3.928  0.00  0.00    -0.050 A 
ATOM     18  C   UNL     1       3.534  -1.071  -4.214  0.00  0.00    +0.007 A 
ATOM     19  C   UNL     1       3.305  -2.403  -3.931  0.00  0.00    +0.046 A 
ATOM     20  C   UNL     1       4.308  -3.172  -3.360  0.00  0.00    +0.124 A 
ATOM     21  C   UNL     1       5.540  -2.600  -3.074  0.00  0.00    -0.009 A 
ATOM     22  C   UNL     1       5.765  -1.268  -3.364  0.00  0.00    +0.010 A 
ATOM     23  C   UNL     1       6.632  -3.433  -2.454  0.00  0.00    +0.047 C 
ENDBRANCH  15  20
ENDBRANCH  14  15
ENDBRANCH  11  14
ENDBRANCH  10  11
ENDBRANCH   1  10
BRANCH   1  24
ATOM     24  C   UNL     1       0.234  -9.107  -3.684  0.00  0.00    -0.041 C 
BRANCH  24  25
ATOM     25  C   UNL     1       0.468 -10.595  -3.646  0.00  0.00    -0.046 A 
ATOM     26  C   UNL     1       1.756 -11.090  -3.567  0.00  0.00    +0.004 A 
ATOM     27  C   UNL     1       1.972 -12.455  -3.532  0.00  0.00    +0.020 A 
ATOM     28  C   UNL     1       0.897 -13.326  -3.575  0.00  0.00    +0.042 A 
ATOM     29  C   UNL     1      -0.392 -12.832  -3.654  0.00  0.00    +0.040 A 
ATOM     30  C   UNL     1      -0.607 -11.465  -3.684  0.00  0.00    +0.044 A 
ATOM     31 CL   UNL     1      -2.225 -10.843  -3.776  0.00  0.00    -0.083 Cl
ATOM     32 CL   UNL     1       1.168 -15.041  -3.532  0.00  0.00    -0.083 Cl
ENDBRANCH  24  25
ENDBRANCH   1  24
TORSDOF 9
