REMARK  Name = ZINC35935070
REMARK  11 active torsions:
REMARK  status: ('A' for Active; 'I' for Inactive)
REMARK    1  A    between atoms: C_1  and  C_2
REMARK    2  A    between atoms: C_2  and  C_3
REMARK    3  A    between atoms: C_4  and  N_23
REMARK    4  A    between atoms: C_5  and  C_15
REMARK    5  A    between atoms: C_8  and  O_10
REMARK    6  A    between atoms: O_10  and  C_11
REMARK    7  A    between atoms: C_11  and  C_12
REMARK    8  A    between atoms: C_11  and  C_13
REMARK    9  A    between atoms: C_11  and  C_14
REMARK   10  A    between atoms: C_18  and  C_22
REMARK   11  A    between atoms: C_20  and  C_21
REMARK                            x       y       z     vdW  Elec       q    Type
REMARK                         _______ _______ _______ _____ _____    ______ ____
ROOT
ATOM      1  C   UNL     1      -1.456  -0.422   0.012  0.00  0.00    +0.072 A 
ATOM      2  C   UNL     1      -2.215  -0.666   1.105  0.00  0.00    +0.074 A 
ATOM      3  C   UNL     1      -3.412  -1.284   0.672  0.00  0.00    +0.114 A 
ATOM      4  N   UNL     1      -3.362  -1.402  -0.637  0.00  0.00    -0.159 NA
ATOM      5  N   UNL     1      -2.147  -0.865  -1.081  0.00  0.00    -0.167 N 
ATOM      6  C   UNL     1      -1.732  -0.798  -2.362  0.00  0.00    +0.437 C 
ATOM      7  O   UNL     1      -0.651  -0.310  -2.625  0.00  0.00    -0.221 OA
ENDROOT
BRANCH   3   8
ATOM      8  C   UNL     1      -4.529  -1.723   1.542  0.00  0.00    +0.007 A 
ATOM      9  C   UNL     1      -4.269  -2.460   2.697  0.00  0.00    +0.010 A 
ATOM     10  C   UNL     1      -5.312  -2.866   3.503  0.00  0.00    +0.004 A 
ATOM     11  C   UNL     1      -6.615  -2.543   3.168  0.00  0.00    -0.050 A 
ATOM     12  C   UNL     1      -6.880  -1.812   2.024  0.00  0.00    +0.007 A 
ATOM     13  C   UNL     1      -5.843  -1.395   1.213  0.00  0.00    -0.041 A 
ATOM     14  C   UNL     1      -6.132  -0.593  -0.030  0.00  0.00    +0.044 C 
ATOM     15  C   UNL     1      -7.750  -2.990   4.053  0.00  0.00    +0.044 C 
ENDBRANCH   3   8
BRANCH   2  16
ATOM     16  N   UNL     1      -1.875  -0.360   2.434  0.00  0.00    -0.355 N 
ATOM     17  H   UNL     1      -0.994  -0.013   2.641  0.00  0.00    +0.142 HD
ATOM     18  H   UNL     1      -2.522  -0.497   3.143  0.00  0.00    +0.142 HD
ENDBRANCH   2  16
BRANCH   1  20
ATOM     19  C   UNL     1      -0.254   1.742  -0.136  0.00  0.00    +0.010 C 
ATOM     20  C   UNL     1      -0.095   0.226   0.001  0.00  0.00    +0.054 C 
ENDBRANCH   1  20
BRANCH   6  21
ATOM     21  O   UNL     1      -2.513  -1.273  -3.349  0.00  0.00    -0.441 OA
BRANCH  21  22
ATOM     22  C   UNL     1      -2.010  -1.170  -4.682  0.00  0.00    +0.107 C 
ATOM     23  C   UNL     1      -0.694  -1.944  -4.792  0.00  0.00    +0.055 C 
ATOM     24  C   UNL     1      -3.030  -1.758  -5.659  0.00  0.00    +0.055 C 
ATOM     25  C   UNL     1      -1.766   0.301  -5.022  0.00  0.00    +0.055 C 
ENDBRANCH  21  22
ENDBRANCH   6  21
TORSDOF 5
