REMARK  Name = ZINC39449834
REMARK  6 active torsions:
REMARK  status: ('A' for Active; 'I' for Inactive)
REMARK    1  A    between atoms: C_1  and  C_2
REMARK    2  A    between atoms: C_2  and  C_3
REMARK    3  A    between atoms: C_2  and  S_4
REMARK    4  A    between atoms: S_4  and  N_7
REMARK    5  A    between atoms: C_20  and  O_25
REMARK    6  A    between atoms: O_25  and  C_26
REMARK                            x       y       z     vdW  Elec       q    Type
REMARK                         _______ _______ _______ _____ _____    ______ ____
ROOT
ATOM      1  N   UNL     1      -2.410  -0.153  -1.403  0.00  0.00    -0.174 N 
ATOM      2  C   UNL     1      -3.022   1.093  -1.459  0.00  0.00    +0.134 A 
ATOM      3  C   UNL     1      -3.631   1.532  -2.619  0.00  0.00    +0.085 A 
ATOM      4  C   UNL     1      -3.626   0.677  -3.815  0.00  0.00    +0.099 A 
ATOM      5  C   UNL     1      -2.996  -0.583  -3.731  0.00  0.00    +0.069 A 
ATOM      6  C   UNL     1      -2.370  -0.981  -2.462  0.00  0.00    +0.281 A 
ATOM      7  O   UNL     1      -1.818  -2.062  -2.369  0.00  0.00    -0.265 OA
ATOM      8  C   UNL     1      -2.979  -1.413  -4.852  0.00  0.00    +0.031 A 
ATOM      9  C   UNL     1      -3.589  -0.955  -6.008  0.00  0.00    +0.032 A 
ATOM     10  C   UNL     1      -4.190   0.297  -6.017  0.00  0.00    +0.125 A 
ATOM     11  N   UNL     1      -4.195   1.065  -4.949  0.00  0.00    -0.252 NA
ATOM     12  I   UNL     1      -3.605  -2.143  -7.733  0.00  0.00    -0.042 I 
ATOM     13  N   UNL     1      -4.247   2.769  -2.648  0.00  0.00    -0.315 N 
ATOM     14  C   UNL     1      -4.759   3.322  -1.385  0.00  0.00    +0.210 C 
ATOM     15  C   UNL     1      -3.624   3.297  -0.355  0.00  0.00    +0.132 C 
ATOM     16  C   UNL     1      -3.022   1.917  -0.310  0.00  0.00    +0.187 C 
ATOM     17  O   UNL     1      -2.531   1.508   0.723  0.00  0.00    -0.290 OA
ATOM     18  H   UNL     1      -4.339   3.260  -3.480  0.00  0.00    +0.149 HD
ENDROOT
BRANCH   1  19
ATOM     19  S   UNL     1      -1.700  -0.632   0.015  0.00  0.00    +0.060 S 
ATOM     20  O   UNL     1      -0.875   0.461   0.395  0.00  0.00    -0.153 OA
ATOM     21  O   UNL     1      -1.132  -1.902  -0.275  0.00  0.00    -0.153 OA
BRANCH  19  23
ATOM     22  C   UNL     1      -4.114  -1.774   0.606  0.00  0.00    +0.033 C 
ATOM     23  C   UNL     1      -3.073  -0.814   1.186  0.00  0.00    +0.148 C 
ATOM     24  C   UNL     1      -2.545  -1.373   2.509  0.00  0.00    +0.033 C 
ENDBRANCH  19  23
ENDBRANCH   1  19
BRANCH  14  25
ATOM     25  O   UNL     1      -5.852   2.528  -0.919  0.00  0.00    -0.362 OA
ATOM     26  C   UNL     1      -7.035   2.646  -1.712  0.00  0.00    +0.196 C 
ENDBRANCH  14  25
TORSDOF 3
