REMARK  Name = ZINC38547315
REMARK  7 active torsions:
REMARK  status: ('A' for Active; 'I' for Inactive)
REMARK    1  A    between atoms: C_1  and  C_2
REMARK    2  A    between atoms: C_6  and  N_8
REMARK    3  A    between atoms: N_8  and  C_9
REMARK    4  A    between atoms: C_9  and  C_11
REMARK    5  A    between atoms: C_9  and  C_18
REMARK    6  A    between atoms: C_22  and  N_23
REMARK    7  A    between atoms: C_24  and  C_26
REMARK                            x       y       z     vdW  Elec       q    Type
REMARK                         _______ _______ _______ _____ _____    ______ ____
ROOT
ATOM      1  C   UNL     1       0.052  -4.121   2.467  0.00  0.00    +0.135 C 
ENDROOT
BRANCH   1   2
ATOM      2  C   UNL     1       0.777  -4.676   3.666  0.00  0.00    +0.009 A 
ATOM      3  C   UNL     1       1.795  -5.614   3.495  0.00  0.00    -0.030 A 
ATOM      4  C   UNL     1       2.401  -6.068   4.624  0.00  0.00    -0.005 A 
ATOM      5  S   UNL     1       1.572  -5.202   5.930  0.00  0.00    -0.078 S 
ATOM      6  C   UNL     1       0.444  -4.259   4.916  0.00  0.00    +0.078 A 
ATOM      7  C   UNL     1       3.508  -7.067   4.726  0.00  0.00    +0.043 C 
ATOM      8  C   UNL     1       3.627  -7.794   3.378  0.00  0.00    +0.005 C 
ATOM      9  C   UNL     1       3.623  -6.752   2.256  0.00  0.00    +0.005 C 
ATOM     10  C   UNL     1       2.233  -6.128   2.126  0.00  0.00    +0.036 C 
BRANCH   6  11
ATOM     11  N   UNL     1      -0.528  -3.335   5.307  0.00  0.00    -0.273 N 
ATOM     12  C   UNL     1      -0.781  -3.136   6.615  0.00  0.00    +0.284 C 
ATOM     13  O   UNL     1      -0.163  -3.761   7.457  0.00  0.00    -0.266 OA
ATOM     14  H   UNL     1      -1.020  -2.837   4.636  0.00  0.00    +0.156 HD
BRANCH  12  15
ATOM     15  C   UNL     1      -1.802  -2.166   7.025  0.00  0.00    +0.189 A 
ATOM     16  C   UNL     1      -2.153  -1.865   8.310  0.00  0.00    +0.054 A 
ATOM     17  C   UNL     1      -3.161  -0.891   8.235  0.00  0.00    +0.042 A 
ATOM     18  C   UNL     1      -3.379  -0.644   6.925  0.00  0.00    +0.196 A 
ATOM     19  O   UNL     1      -2.555  -1.411   6.199  0.00  0.00    -0.458 OA
ENDBRANCH  12  15
ENDBRANCH   6  11
ENDBRANCH   1   2
BRANCH   1  20
ATOM     20  C   UNL     1      -1.333  -4.710   2.400  0.00  0.00    -0.023 A 
ATOM     21  C   UNL     1      -2.386  -4.076   3.032  0.00  0.00    +0.007 A 
ATOM     22  C   UNL     1      -3.656  -4.616   2.971  0.00  0.00    +0.020 A 
ATOM     23  C   UNL     1      -3.875  -5.792   2.276  0.00  0.00    +0.041 A 
ATOM     24  C   UNL     1      -2.821  -6.427   1.643  0.00  0.00    +0.020 A 
ATOM     25  C   UNL     1      -1.552  -5.883   1.700  0.00  0.00    +0.007 A 
ATOM     26 CL   UNL     1      -5.470  -6.472   2.200  0.00  0.00    -0.084 Cl
ENDBRANCH   1  20
BRANCH   1  27
ATOM     27  N   UNL     1      -0.043  -2.663   2.585  0.00  0.00    -0.320 N 
ATOM     28  H   UNL     1       0.085  -2.237   3.447  0.00  0.00    +0.148 HD
BRANCH  27  34
ATOM     29  C   UNL     1      -0.745   1.688   0.717  0.00  0.00    +0.063 C 
ATOM     30  C   UNL     1      -0.659   0.194   0.535  0.00  0.00    +0.014 A 
ATOM     31  C   UNL     1      -0.851  -0.352  -0.719  0.00  0.00    +0.021 A 
ATOM     32  C   UNL     1      -0.771  -1.728  -0.881  0.00  0.00    +0.005 A 
ATOM     33  C   UNL     1      -0.499  -2.509   0.229  0.00  0.00    +0.041 A 
ATOM     34  C   UNL     1      -0.316  -1.891   1.462  0.00  0.00    +0.097 A 
ATOM     35  N   UNL     1      -0.396  -0.574   1.574  0.00  0.00    -0.347 N 
ATOM     36  H   UNL     1      -0.261  -0.165   2.443  0.00  0.00    +0.167 HD
ENDBRANCH  27  34
ENDBRANCH   1  27
TORSDOF 6
