REMARK  Name = ZINC00501289
REMARK  2 active torsions:
REMARK  status: ('A' for Active; 'I' for Inactive)
REMARK    1  A    between atoms: C_8  and  C_11
REMARK    2  A    between atoms: N_13  and  N_14
REMARK                            x       y       z     vdW  Elec       q    Type
REMARK                         _______ _______ _______ _____ _____    ______ ____
ROOT
ATOM      1  C   UNL     1      -4.318   1.035   0.049  0.00  0.00    +0.235 C 
ATOM      2  O   UNL     1      -4.714   0.337  -0.861  0.00  0.00    -0.274 OA
ATOM      3  N   UNL     1      -5.143   1.344   1.069  0.00  0.00    -0.233 N 
ATOM      4  H   UNL     1      -4.826   1.902   1.797  0.00  0.00    +0.173 HD
ENDROOT
BRANCH   1  12
ATOM      5  C   UNL     1      -0.013   1.086   0.008  0.00  0.00    +0.007 C 
ATOM      6  C   UNL     1      -0.729   1.579   1.267  0.00  0.00    -0.009 C 
ATOM      7  C   UNL     1      -0.750   3.109   1.275  0.00  0.00    +0.007 C 
ATOM      8  C   UNL     1      -1.490   3.616   0.036  0.00  0.00    -0.009 C 
ATOM      9  C   UNL     1      -0.773   3.123  -1.223  0.00  0.00    +0.007 C 
ATOM     10  C   UNL     1      -0.753   1.593  -1.232  0.00  0.00    -0.009 C 
ATOM     11  C   UNL     1      -2.188   1.063  -1.221  0.00  0.00    +0.019 C 
ATOM     12  C   UNL     1      -2.904   1.556   0.038  0.00  0.00    +0.049 C 
ATOM     13  C   UNL     1      -2.164   1.050   1.278  0.00  0.00    +0.019 C 
ATOM     14  C   UNL     1      -2.925   3.086   0.047  0.00  0.00    +0.019 C 
ENDBRANCH   1  12
BRANCH   3  15
ATOM     15  N   UNL     1      -6.457   0.859   1.079  0.00  0.00    -0.218 N 
ATOM     16  C   UNL     1      -7.281   1.168   2.100  0.00  0.00    +0.313 C 
ATOM     17  O   UNL     1      -8.422   0.747   2.108  0.00  0.00    -0.252 OA
ATOM     18  N   UNL     1      -6.841   1.943   3.111  0.00  0.00    -0.312 N 
ATOM     19  H   UNL     1      -6.774   0.301   0.352  0.00  0.00    +0.174 HD
ATOM     20  H   UNL     1      -5.931   2.279   3.104  0.00  0.00    +0.147 HD
ATOM     21  H   UNL     1      -7.435   2.165   3.845  0.00  0.00    +0.147 HD
ENDBRANCH   3  15
TORSDOF 2
