REMARK  Name = ZINC38847880
REMARK  6 active torsions:
REMARK  status: ('A' for Active; 'I' for Inactive)
REMARK    1  A    between atoms: C_3  and  C_28
REMARK    2  A    between atoms: C_6  and  C_7
REMARK    3  A    between atoms: N_9  and  C_10
REMARK    4  A    between atoms: C_10  and  C_11
REMARK    5  A    between atoms: C_11  and  C_12
REMARK    6  A    between atoms: C_12  and  N_13
REMARK                            x       y       z     vdW  Elec       q    Type
REMARK                         _______ _______ _______ _____ _____    ______ ____
ROOT
ATOM      1  C   UNL     1      -1.319  -0.734   0.099  0.00  0.00    +0.252 C 
ATOM      2  O   UNL     1      -0.303  -0.077  -0.010  0.00  0.00    -0.270 OA
ATOM      3  N   UNL     1      -1.254  -2.080   0.112  0.00  0.00    -0.246 N 
ATOM      4  C   UNL     1      -0.023  -2.713   0.136  0.00  0.00    +0.168 A 
ATOM      5  N   UNL     1       0.243  -3.994   0.245  0.00  0.00    -0.224 NA
ATOM      6  C   UNL     1       1.505  -4.476   0.255  0.00  0.00    +0.080 A 
ATOM      7  C   UNL     1       1.925  -5.822   0.365  0.00  0.00    +0.030 A 
ATOM      8  C   UNL     1       3.257  -6.142   0.359  0.00  0.00    +0.017 A 
ATOM      9  C   UNL     1       4.237  -5.166   0.245  0.00  0.00    +0.019 A 
ATOM     10  C   UNL     1       3.862  -3.839   0.135  0.00  0.00    +0.032 A 
ATOM     11  C   UNL     1       2.530  -3.509   0.140  0.00  0.00    +0.042 A 
ATOM     12  S   UNL     1       1.610  -1.994   0.020  0.00  0.00    -0.052 S 
ATOM     13 BR   UNL     1       6.066  -5.646   0.242  0.00  0.00    -0.050 Br
ENDROOT
BRANCH   1  19
ATOM     14  C   UNL     1      -3.718  -0.503  -0.534  0.00  0.00    +0.013 A 
ATOM     15  C   UNL     1      -4.936   0.133  -0.420  0.00  0.00    +0.013 A 
ATOM     16  C   UNL     1      -5.080   1.212   0.435  0.00  0.00    +0.055 A 
ATOM     17  C   UNL     1      -4.004   1.659   1.181  0.00  0.00    +0.013 A 
ATOM     18  C   UNL     1      -2.780   1.032   1.076  0.00  0.00    +0.013 A 
ATOM     19  C   UNL     1      -2.628  -0.057   0.215  0.00  0.00    +0.037 A 
BRANCH  16  20
ATOM     20  C   UNL     1      -6.414   1.903   0.553  0.00  0.00    +0.417 C 
ATOM     21  F   UNL     1      -7.164   1.297   1.567  0.00  0.00    -0.166 F 
ATOM     22  F   UNL     1      -6.214   3.252   0.864  0.00  0.00    -0.166 F 
ATOM     23  F   UNL     1      -7.102   1.800  -0.660  0.00  0.00    -0.166 F 
ENDBRANCH  16  20
ENDBRANCH   1  19
BRANCH   3  24
ATOM     24  C   UNL     1      -2.485  -2.874   0.102  0.00  0.00    +0.117 C 
BRANCH  24  25
ATOM     25  C   UNL     1      -2.775  -3.347  -1.324  0.00  0.00    +0.041 C 
BRANCH  25  26
ATOM     26  C   UNL     1      -4.136  -4.043  -1.364  0.00  0.00    +0.124 C 
BRANCH  26  27
ATOM     27  N   UNL     1      -4.414  -4.496  -2.730  0.00  0.00    -0.338 N 
ATOM     28  C   UNL     1      -5.048  -3.781  -3.709  0.00  0.00    +0.104 A 
ATOM     29  C   UNL     1      -5.091  -4.568  -4.801  0.00  0.00    +0.101 A 
ATOM     30  N   UNL     1      -4.498  -5.732  -4.496  0.00  0.00    -0.352 N 
ATOM     31  C   UNL     1      -4.086  -5.694  -3.258  0.00  0.00    +0.173 A 
ATOM     32  H   UNL     1      -4.390  -6.483  -5.101  0.00  0.00    +0.166 HD
ENDBRANCH  26  27
ENDBRANCH  25  26
ENDBRANCH  24  25
ENDBRANCH   3  24
TORSDOF 6
