REMARK  Name = ZINC00431888
REMARK  7 active torsions:
REMARK  status: ('A' for Active; 'I' for Inactive)
REMARK    1  A    between atoms: C_1  and  C_2
REMARK    2  A    between atoms: C_5  and  O_8
REMARK    3  A    between atoms: O_8  and  C_9
REMARK    4  A    between atoms: C_9  and  C_10
REMARK    5  A    between atoms: N_12  and  N_13
REMARK    6  A    between atoms: C_14  and  C_15
REMARK    7  A    between atoms: C_20  and  O_21
REMARK                            x       y       z     vdW  Elec       q    Type
REMARK                         _______ _______ _______ _____ _____    ______ ____
ROOT
ATOM      1  C   UNL     1       3.441   6.305   0.002  0.00  0.00    +0.270 C 
ATOM      2  O   UNL     1       4.497   5.707  -0.011  0.00  0.00    -0.270 OA
ATOM      3  N   UNL     1       2.279   5.621   0.009  0.00  0.00    -0.204 N 
ATOM      4  H   UNL     1       1.435   6.099   0.020  0.00  0.00    +0.177 HD
ENDROOT
BRANCH   3   5
ATOM      5  N   UNL     1       2.291   4.220   0.002  0.00  0.00    -0.188 NA
ATOM      6  C   UNL     1       1.173   3.562   0.009  0.00  0.00    +0.142 C 
BRANCH   6   7
ATOM      7  C   UNL     1       1.185   2.088   0.002  0.00  0.00    +0.037 A 
ATOM      8  C   UNL     1      -0.017   1.376   0.010  0.00  0.00    +0.033 A 
ATOM      9  C   UNL     1       0.002  -0.004   0.002  0.00  0.00    +0.042 A 
ATOM     10  C   UNL     1       1.208  -0.686  -0.013  0.00  0.00    +0.023 A 
ATOM     11  C   UNL     1       2.403   0.009  -0.020  0.00  0.00    +0.047 A 
ATOM     12  C   UNL     1       2.402   1.394  -0.013  0.00  0.00    +0.126 A 
ATOM     13 CL   UNL     1      -1.491  -0.889   0.011  0.00  0.00    -0.084 Cl
BRANCH  12  14
ATOM     14  O   UNL     1       3.576   2.076  -0.019  0.00  0.00    -0.506 OA
ATOM     15  H   UNL     1       3.909   2.279  -0.904  0.00  0.00    +0.292 HD
ENDBRANCH  12  14
ENDBRANCH   6   7
ENDBRANCH   3   5
BRANCH   1  16
ATOM     16  C   UNL     1       3.428   7.812   0.010  0.00  0.00    +0.326 C 
BRANCH  16  17
ATOM     17  O   UNL     1       4.771   8.299  -0.000  0.00  0.00    -0.483 OA
BRANCH  17  22
ATOM     18  C   UNL     1       5.463  13.889   0.022  0.00  0.00    +0.044 C 
ATOM     19  C   UNL     1       5.278  12.393   0.016  0.00  0.00    -0.050 A 
ATOM     20  C   UNL     1       6.382  11.562   0.001  0.00  0.00    +0.007 A 
ATOM     21  C   UNL     1       6.215  10.190  -0.004  0.00  0.00    +0.046 A 
ATOM     22  C   UNL     1       4.938   9.648   0.005  0.00  0.00    +0.121 A 
ATOM     23  C   UNL     1       3.832  10.485   0.014  0.00  0.00    +0.046 A 
ATOM     24  C   UNL     1       4.004  11.856   0.025  0.00  0.00    +0.007 A 
ENDBRANCH  17  22
ENDBRANCH  16  17
ENDBRANCH   1  16
TORSDOF 6
