REMARK  Name = ZINC03503394
REMARK  6 active torsions:
REMARK  status: ('A' for Active; 'I' for Inactive)
REMARK    1  A    between atoms: C_6  and  N_7
REMARK    2  A    between atoms: C_11  and  C_13
REMARK    3  A    between atoms: C_13  and  O_14
REMARK    4  A    between atoms: O_14  and  C_15
REMARK    5  A    between atoms: C_15  and  C_17
REMARK    6  A    between atoms: C_22  and  N_23
REMARK                            x       y       z     vdW  Elec       q    Type
REMARK                         _______ _______ _______ _____ _____    ______ ____
ROOT
ATOM      1  N   UNL     1       4.117  -1.236  -2.984  0.00  0.00    -0.269 N 
ATOM      2  C   UNL     1       4.083  -2.520  -2.576  0.00  0.00    +0.310 C 
ATOM      3  O   UNL     1       3.066  -3.173  -2.709  0.00  0.00    -0.252 OA
ATOM      4  N   UNL     1       5.176  -3.080  -2.021  0.00  0.00    -0.237 N 
ATOM      5  C   UNL     1       5.141  -4.364  -1.612  0.00  0.00    +0.258 C 
ATOM      6  O   UNL     1       4.127  -5.015  -1.745  0.00  0.00    -0.272 OA
ATOM      7  H   UNL     1       4.949  -0.738  -2.949  0.00  0.00    +0.156 HD
ATOM      8  H   UNL     1       5.987  -2.559  -1.915  0.00  0.00    +0.159 HD
ENDROOT
BRANCH   1  14
ATOM      9  C   UNL     1       1.716  -0.979  -2.940  0.00  0.00    +0.027 A 
ATOM     10  C   UNL     1       0.566  -0.373  -3.409  0.00  0.00    +0.051 A 
ATOM     11  C   UNL     1       0.643   0.594  -4.399  0.00  0.00    +0.162 A 
ATOM     12  C   UNL     1       1.880   0.958  -4.919  0.00  0.00    +0.164 A 
ATOM     13  C   UNL     1       3.033   0.349  -4.450  0.00  0.00    +0.072 A 
ATOM     14  C   UNL     1       2.952  -0.621  -3.459  0.00  0.00    +0.038 A 
ATOM     15  O   UNL     1       1.976   1.912  -5.886  0.00  0.00    -0.485 OA
ATOM     16  C   UNL     1       0.774   2.232  -6.596  0.00  0.00    +0.270 C 
ATOM     17  C   UNL     1      -0.357   2.404  -5.574  0.00  0.00    +0.270 C 
ATOM     18  O   UNL     1      -0.502   1.174  -4.855  0.00  0.00    -0.485 OA
ENDBRANCH   1  14
BRANCH   5  19
ATOM     19  C   UNL     1       6.363  -4.990  -0.991  0.00  0.00    +0.328 C 
BRANCH  19  20
ATOM     20  O   UNL     1       6.074  -6.369  -0.639  0.00  0.00    -0.452 OA
BRANCH  20  21
ATOM     21  C   UNL     1       7.070  -7.076  -0.068  0.00  0.00    +0.342 C 
ATOM     22  O   UNL     1       8.149  -6.555   0.129  0.00  0.00    -0.245 OA
BRANCH  21  23
ATOM     23  C   UNL     1       6.849  -8.481   0.316  0.00  0.00    +0.082 A 
ATOM     24  C   UNL     1       5.574  -9.046   0.212  0.00  0.00    +0.037 A 
ATOM     25  C   UNL     1       5.374 -10.361   0.573  0.00  0.00    +0.043 A 
ATOM     26  C   UNL     1       6.431 -11.129   1.038  0.00  0.00    +0.042 A 
ATOM     27  C   UNL     1       7.695 -10.585   1.147  0.00  0.00    +0.064 A 
ATOM     28  C   UNL     1       7.918  -9.262   0.783  0.00  0.00    +0.057 A 
ATOM     29 CL   UNL     1       9.010 -11.556   1.732  0.00  0.00    -0.082 Cl
ATOM     30 CL   UNL     1       3.790 -11.061   0.443  0.00  0.00    -0.083 Cl
BRANCH  28  31
ATOM     31  N   UNL     1       9.190  -8.713   0.886  0.00  0.00    -0.356 N 
ATOM     32  H   UNL     1       9.845  -9.114   1.479  0.00  0.00    +0.142 HD
ATOM     33  H   UNL     1       9.424  -7.929   0.364  0.00  0.00    +0.142 HD
ENDBRANCH  28  31
ENDBRANCH  21  23
ENDBRANCH  20  21
ENDBRANCH  19  20
ENDBRANCH   5  19
TORSDOF 6
