REMARK  Name = ZINC59109289
REMARK  11 active torsions:
REMARK  status: ('A' for Active; 'I' for Inactive)
REMARK    1  A    between atoms: C_1  and  C_2
REMARK    2  A    between atoms: C_2  and  O_3
REMARK    3  A    between atoms: O_3  and  C_4
REMARK    4  A    between atoms: C_4  and  C_6
REMARK    5  A    between atoms: C_7  and  C_37
REMARK    6  A    between atoms: C_14  and  C_15
REMARK    7  A    between atoms: C_17  and  C_28
REMARK    8  A    between atoms: N_18  and  C_21
REMARK    9  A    between atoms: C_19  and  C_20
REMARK   10  A    between atoms: C_21  and  C_22
REMARK   11  A    between atoms: C_30  and  C_32
REMARK                            x       y       z     vdW  Elec       q    Type
REMARK                         _______ _______ _______ _____ _____    ______ ____
ROOT
ATOM      1  C   UNL     1       0.985  -2.922   3.157  0.00  0.00    +0.085 C 
ATOM      2  C   UNL     1       1.268  -4.221   3.477  0.00  0.00    +0.053 C 
ATOM      3  N   UNL     1       2.035  -4.507   4.521  0.00  0.00    -0.228 NA
ATOM      4  C   UNL     1       2.577  -3.618   5.316  0.00  0.00    +0.178 A 
ATOM      5  N   UNL     1       2.419  -2.259   5.173  0.00  0.00    -0.274 N 
ATOM      6  C   UNL     1       3.023  -1.446   6.050  0.00  0.00    +0.268 A 
ATOM      7  O   UNL     1       2.912  -0.237   5.963  0.00  0.00    -0.266 OA
ATOM      8  C   UNL     1       3.821  -2.055   7.118  0.00  0.00    +0.081 A 
ATOM      9  C   UNL     1       4.522  -1.460   8.120  0.00  0.00    +0.030 C 
ATOM     10  S   UNL     1       3.622  -3.791   6.749  0.00  0.00    -0.046 S 
ATOM     11  C   UNL     1       1.576  -1.832   4.021  0.00  0.00    +0.168 C 
ATOM     12  C   UNL     1       0.703  -5.337   2.637  0.00  0.00    +0.066 C 
ENDROOT
BRANCH   9  13
ATOM     13  C   UNL     1       4.679  -0.002   8.139  0.00  0.00    -0.003 A 
ATOM     14  C   UNL     1       4.976   0.870   6.996  0.00  0.00    +0.030 A 
ATOM     15  C   UNL     1       5.028   2.125   7.475  0.00  0.00    +0.017 A 
ATOM     16  N   UNL     1       4.789   2.103   8.818  0.00  0.00    -0.345 N 
ATOM     17  C   UNL     1       4.571   0.832   9.235  0.00  0.00    +0.023 A 
ATOM     18  C   UNL     1       4.268   0.403  10.647  0.00  0.00    +0.064 C 
ATOM     19  C   UNL     1       5.308   3.360   6.658  0.00  0.00    +0.063 C 
BRANCH  16  20
ATOM     20  C   UNL     1       4.765   3.284   9.684  0.00  0.00    +0.153 C 
BRANCH  20  21
ATOM     21  C   UNL     1       3.344   3.849   9.737  0.00  0.00    +0.138 C 
ATOM     22  C   UNL     1       3.278   5.045  10.719  0.00  0.00    +0.035 C 
ATOM     23  C   UNL     1       2.055   5.821  10.157  0.00  0.00    +0.031 C 
ATOM     24  C   UNL     1       2.176   5.567   8.639  0.00  0.00    +0.160 C 
ATOM     25  O   UNL     1       2.975   4.390   8.458  0.00  0.00    -0.375 OA
ENDBRANCH  20  21
ENDBRANCH  16  20
ENDBRANCH   9  13
BRANCH  11  26
ATOM     26  C   UNL     1       0.439  -1.006   4.566  0.00  0.00    +0.017 A 
ATOM     27  C   UNL     1      -0.032   0.190   4.134  0.00  0.00    +0.013 A 
ATOM     28  C   UNL     1      -1.098   0.769   4.795  0.00  0.00    +0.008 A 
ATOM     29  C   UNL     1      -1.642   0.125   5.856  0.00  0.00    +0.045 A 
ATOM     30  S   UNL     1      -0.642  -1.352   5.944  0.00  0.00    -0.099 S 
ENDBRANCH  11  26
BRANCH   1  31
ATOM     31  C   UNL     1       0.174  -2.610   2.054  0.00  0.00    +0.339 C 
ATOM     32  O   UNL     1      -0.217  -3.497   1.315  0.00  0.00    -0.245 OA
BRANCH  31  33
ATOM     33  O   UNL     1      -0.172  -1.327   1.812  0.00  0.00    -0.462 OA
BRANCH  33  35
ATOM     34  C   UNL     1      -1.284   0.417   0.561  0.00  0.00    +0.048 C 
ATOM     35  C   UNL     1      -0.999  -1.083   0.672  0.00  0.00    +0.229 C 
ENDBRANCH  33  35
ENDBRANCH  31  33
ENDBRANCH   1  31
TORSDOF 7
