REMARK  Name = ZINC04301522
REMARK  7 active torsions:
REMARK  status: ('A' for Active; 'I' for Inactive)
REMARK    1  A    between atoms: C_1  and  C_2
REMARK    2  A    between atoms: C_2  and  C_3
REMARK    3  A    between atoms: C_3  and  C_4
REMARK    4  A    between atoms: C_6  and  C_19
REMARK    5  A    between atoms: C_8  and  C_14
REMARK    6  A    between atoms: C_11  and  C_12
REMARK    7  A    between atoms: C_11  and  O_13
REMARK                            x       y       z     vdW  Elec       q    Type
REMARK                         _______ _______ _______ _____ _____    ______ ____
ROOT
ATOM      1  C   UNL     1      -1.225   2.997  -1.141  0.00  0.00    +0.013 C 
ATOM      2  C   UNL     1      -0.800   1.527  -1.116  0.00  0.00    +0.003 C 
ATOM      3  C   UNL     1       1.347   2.104  -0.153  0.00  0.00    -0.001 C 
ATOM      4  C   UNL     1       0.987   3.591  -0.149  0.00  0.00    +0.026 C 
ATOM      5  C   UNL     1       0.017   3.879  -1.298  0.00  0.00    +0.064 C 
ATOM      6  C   UNL     1      -0.395   5.352  -1.262  0.00  0.00    +0.041 C 
ATOM      7  N   UNL     1       0.124   1.295   0.010  0.00  0.00    +0.392 N 
ATOM      8  H   UNL     1       0.378   0.300   0.040  0.00  0.00    -0.084 HD
ATOM      9  H   UNL     1      -0.339   1.556   0.888  0.00  0.00    -0.084 HD
ENDROOT
BRANCH   3  10
ATOM     10  C   UNL     1       2.287   1.812   0.988  0.00  0.00    +0.091 A 
ATOM     11  C   UNL     1       3.622   1.678   0.894  0.00  0.00    +0.043 A 
ATOM     12  C   UNL     1       4.101   1.414   2.198  0.00  0.00    +0.041 A 
ATOM     13  C   UNL     1       3.029   1.393   3.010  0.00  0.00    +0.195 A 
ATOM     14  O   UNL     1       1.933   1.635   2.272  0.00  0.00    -0.469 OA
ENDBRANCH   3  10
BRANCH   2  15
ATOM     15  C   UNL     1      -0.117   1.180  -2.413  0.00  0.00    +0.091 A 
ATOM     16  C   UNL     1      -0.717   0.690  -3.513  0.00  0.00    +0.043 A 
ATOM     17  C   UNL     1       0.292   0.514  -4.487  0.00  0.00    +0.041 A 
ATOM     18  C   UNL     1       1.450   0.900  -3.922  0.00  0.00    +0.195 A 
ATOM     19  O   UNL     1       1.197   1.302  -2.666  0.00  0.00    -0.469 OA
ENDBRANCH   2  15
BRANCH   5  20
ATOM     20  O   UNL     1       0.653   3.590  -2.544  0.00  0.00    -0.389 OA
ATOM     21  H   UNL     1       1.451   4.110  -2.708  0.00  0.00    +0.210 HD
ENDBRANCH   5  20
BRANCH   1  22
ATOM     22  C   UNL     1      -2.174   3.235  -2.317  0.00  0.00    +0.005 C 
BRANCH  22  24
ATOM     23  C   UNL     1      -4.416   2.687  -3.273  0.00  0.00    +0.004 C 
ATOM     24  C   UNL     1      -3.467   2.449  -2.096  0.00  0.00    -0.003 C 
ENDBRANCH  22  24
ENDBRANCH   1  22
TORSDOF 5
