REMARK  Name = ZINC39695879
REMARK  7 active torsions:
REMARK  status: ('A' for Active; 'I' for Inactive)
REMARK    1  A    between atoms: C_1  and  C_2
REMARK    2  A    between atoms: C_2  and  C_3
REMARK    3  A    between atoms: C_6  and  C_9
REMARK    4  A    between atoms: C_9  and  C_11
REMARK    5  A    between atoms: C_9  and  N_12
REMARK    6  A    between atoms: C_13  and  C_15
REMARK    7  A    between atoms: C_26  and  C_28
REMARK                            x       y       z     vdW  Elec       q    Type
REMARK                         _______ _______ _______ _____ _____    ______ ____
ROOT
ATOM      1  C   UNL     1      -8.323  -0.553  -1.979  0.00  0.00    +0.100 C 
ATOM      2  C   UNL     1      -8.014   0.961  -1.997  0.00  0.00    +0.121 C 
ATOM      3  N   UNL     1      -9.313   1.604  -2.308  0.00  0.00    -0.296 N 
ATOM      4  C   UNL     1     -10.308   0.814  -1.545  0.00  0.00    +0.115 C 
ATOM      5  C   UNL     1      -9.829  -0.645  -1.681  0.00  0.00    -0.004 C 
ATOM      6  C   UNL     1     -10.063  -1.401  -0.377  0.00  0.00    -0.010 C 
ATOM      7  C   UNL     1     -11.569  -1.532  -0.131  0.00  0.00    -0.082 C 
ATOM      8  N   UNL     1     -12.190  -2.247  -1.253  0.00  0.00    +0.379 N 
ATOM      9  C   UNL     1     -12.040  -1.467  -2.488  0.00  0.00    -0.082 C 
ATOM     10  C   UNL     1     -10.554  -1.334  -2.833  0.00  0.00    -0.010 C 
ATOM     11  C   UNL     1      -9.538   2.667  -3.105  0.00  0.00    +0.248 C 
ATOM     12  O   UNL     1      -8.625   3.152  -3.745  0.00  0.00    -0.270 OA
ATOM     13  H   UNL     1     -11.742  -3.144  -1.367  0.00  0.00    -0.086 HD
ATOM     14  H   UNL     1     -13.171  -2.385  -1.061  0.00  0.00    -0.086 HD
ENDROOT
BRANCH  11  15
ATOM     15  C   UNL     1     -10.895   3.244  -3.201  0.00  0.00    +0.055 A 
ATOM     16  C   UNL     1     -11.728   3.267  -2.080  0.00  0.00    +0.016 A 
ATOM     17  C   UNL     1     -12.993   3.806  -2.176  0.00  0.00    +0.021 A 
ATOM     18  C   UNL     1     -13.440   4.324  -3.381  0.00  0.00    +0.042 A 
ATOM     19  C   UNL     1     -12.620   4.304  -4.497  0.00  0.00    +0.040 A 
ATOM     20  C   UNL     1     -11.348   3.773  -4.412  0.00  0.00    +0.054 A 
ATOM     21 CL   UNL     1     -10.318   3.755  -5.810  0.00  0.00    -0.083 Cl
ATOM     22 CL   UNL     1     -15.035   5.001  -3.493  0.00  0.00    -0.083 Cl
ENDBRANCH  11  15
BRANCH   1  24
ATOM     23  N   UNL     1      -7.315  -2.566  -0.955  0.00  0.00    -0.308 N 
ATOM     24  C   UNL     1      -7.530  -1.237  -0.895  0.00  0.00    +0.219 C 
ATOM     25  O   UNL     1      -7.086  -0.591   0.030  0.00  0.00    -0.275 OA
ATOM     26  H   UNL     1      -7.670  -3.082  -1.695  0.00  0.00    +0.149 HD
BRANCH  23  27
ATOM     27  C   UNL     1      -6.544  -3.231   0.099  0.00  0.00    +0.100 C 
ATOM     28  C   UNL     1      -7.471  -3.582   1.264  0.00  0.00    +0.033 C 
BRANCH  27  32
ATOM     29  C   UNL     1      -4.798  -6.807  -1.454  0.00  0.00    -0.048 A 
ATOM     30  C   UNL     1      -4.075  -6.002  -0.594  0.00  0.00    +0.004 A 
ATOM     31  C   UNL     1      -4.640  -4.845  -0.091  0.00  0.00    +0.006 A 
ATOM     32  C   UNL     1      -5.928  -4.492  -0.450  0.00  0.00    -0.027 A 
ATOM     33  C   UNL     1      -6.650  -5.297  -1.311  0.00  0.00    +0.006 A 
ATOM     34  C   UNL     1      -6.084  -6.452  -1.816  0.00  0.00    +0.004 A 
BRANCH  29  36
ATOM     35  C   UNL     1      -3.452  -7.754  -3.309  0.00  0.00    +0.009 C 
ATOM     36  C   UNL     1      -4.182  -8.069  -2.002  0.00  0.00    +0.032 C 
ENDBRANCH  29  36
ENDBRANCH  27  32
ENDBRANCH  23  27
ENDBRANCH   1  24
TORSDOF 5
