REMARK  Name = ZINC35846104
REMARK  8 active torsions:
REMARK  status: ('A' for Active; 'I' for Inactive)
REMARK    1  A    between atoms: C_1  and  C_2
REMARK    2  A    between atoms: C_2  and  O_3
REMARK    3  A    between atoms: O_3  and  C_4
REMARK    4  A    between atoms: C_4  and  C_6
REMARK    5  A    between atoms: C_12  and  C_14
REMARK    6  A    between atoms: C_17  and  C_19
REMARK    7  A    between atoms: C_19  and  N_20
REMARK    8  A    between atoms: C_28  and  C_30
REMARK                            x       y       z     vdW  Elec       q    Type
REMARK                         _______ _______ _______ _____ _____    ______ ____
ROOT
ATOM      1  C   UNL     1       1.363  -6.141  -5.824  0.00  0.00    +0.190 A 
ATOM      2  C   UNL     1       1.063  -7.057  -6.792  0.00  0.00    +0.055 A 
ATOM      3  C   UNL     1       1.438  -8.312  -6.289  0.00  0.00    +0.043 A 
ATOM      4  C   UNL     1       1.944  -8.110  -5.052  0.00  0.00    +0.090 A 
ATOM      5  O   UNL     1       1.902  -6.800  -4.778  0.00  0.00    -0.457 OA
ENDROOT
BRANCH   1  12
ATOM      6  C   UNL     1       0.674  -2.436  -2.511  0.00  0.00    +0.101 C 
ATOM      7  C   UNL     1       0.282  -1.923  -3.899  0.00  0.00    +0.033 C 
ATOM      8  C   UNL     1       1.279  -2.452  -4.934  0.00  0.00    +0.109 C 
ATOM      9  N   UNL     1       1.341  -3.916  -4.827  0.00  0.00    -0.295 N 
ATOM     10  C   UNL     1       1.621  -4.517  -3.516  0.00  0.00    +0.109 C 
ATOM     11  C   UNL     1       0.620  -3.965  -2.496  0.00  0.00    +0.033 C 
ATOM     12  C   UNL     1       1.144  -4.693  -5.910  0.00  0.00    +0.282 C 
ATOM     13  O   UNL     1       0.784  -4.194  -6.960  0.00  0.00    -0.267 OA
BRANCH   6  14
ATOM     14  C   UNL     1      -0.286  -1.890  -1.485  0.00  0.00    +0.310 C 
ATOM     15  O   UNL     1      -0.944  -2.646  -0.811  0.00  0.00    -0.251 OA
BRANCH  14  16
ATOM     16  O   UNL     1      -0.408  -0.563  -1.320  0.00  0.00    -0.465 OA
BRANCH  16  18
ATOM     17  C   UNL     1      -1.338   1.413  -0.286  0.00  0.00    +0.048 C 
ATOM     18  C   UNL     1      -1.336  -0.116  -0.330  0.00  0.00    +0.229 C 
ENDBRANCH  16  18
ENDBRANCH  14  16
ENDBRANCH   6  14
ENDBRANCH   1  12
BRANCH   4  19
ATOM     19  C   UNL     1       2.473  -9.182  -4.134  0.00  0.00    -0.002 C 
BRANCH  19  20
ATOM     20  N   UNL     1       3.909  -9.372  -4.379  0.00  0.00    +0.394 N 
ATOM     21  C   UNL     1       4.631  -8.145  -4.018  0.00  0.00    -0.055 C 
ATOM     22  C   UNL     1       6.067  -8.208  -4.555  0.00  0.00    +0.103 C 
ATOM     23  N   UNL     1       6.654  -9.486  -4.133  0.00  0.00    -0.353 N 
ATOM     24  C   UNL     1       7.962  -9.843  -4.115  0.00  0.00    +0.086 A 
ATOM     25  C   UNL     1       8.046 -11.108  -3.648  0.00  0.00    +0.019 A 
ATOM     26  C   UNL     1       6.734 -11.545  -3.369  0.00  0.00    +0.021 A 
ATOM     27  C   UNL     1       5.904 -10.538  -3.676  0.00  0.00    +0.009 A 
ATOM     28  C   UNL     1       4.399 -10.500  -3.569  0.00  0.00    +0.014 C 
ATOM     29  H   UNL     1       4.059  -9.571  -5.357  0.00  0.00    -0.080 HD
BRANCH  28  30
ATOM     30  C   UNL     1       3.819 -11.790  -4.089  0.00  0.00    -0.020 A 
ATOM     31  C   UNL     1       3.420 -11.885  -5.409  0.00  0.00    +0.005 A 
ATOM     32  C   UNL     1       2.888 -13.068  -5.887  0.00  0.00    +0.000 A 
ATOM     33  C   UNL     1       2.754 -14.157  -5.045  0.00  0.00    +0.003 A 
ATOM     34  C   UNL     1       3.152 -14.064  -3.726  0.00  0.00    +0.038 A 
ATOM     35  C   UNL     1       3.690 -12.881  -3.247  0.00  0.00    +0.125 A 
ATOM     36  F   UNL     1       4.084 -12.790  -1.958  0.00  0.00    -0.205 F 
ENDBRANCH  28  30
ENDBRANCH  19  20
ENDBRANCH   4  19
TORSDOF 7
