REMARK  Name = ZINC40981662
REMARK  10 active torsions:
REMARK  status: ('A' for Active; 'I' for Inactive)
REMARK    1  A    between atoms: C_1  and  C_2
REMARK    2  A    between atoms: C_2  and  C_3
REMARK    3  A    between atoms: C_3  and  S_4
REMARK    4  A    between atoms: S_4  and  C_5
REMARK    5  A    between atoms: C_10  and  C_22
REMARK    6  A    between atoms: C_16  and  C_20
REMARK    7  A    between atoms: C_16  and  C_21
REMARK    8  A    between atoms: C_25  and  O_28
REMARK    9  A    between atoms: O_28  and  C_29
REMARK   10  A    between atoms: C_29  and  C_30
REMARK                            x       y       z     vdW  Elec       q    Type
REMARK                         _______ _______ _______ _____ _____    ______ ____
ROOT
ATOM      1  C   UNL     1      -3.112  -2.797   0.017  0.00  0.00    +0.210 A 
ATOM      2  N   UNL     1      -4.144  -1.940   0.025  0.00  0.00    -0.187 NA
ATOM      3  C   UNL     1      -5.265  -2.608   0.032  0.00  0.00    +0.219 A 
ATOM      4  N   UNL     1      -4.969  -3.930   0.032  0.00  0.00    -0.220 N 
ATOM      5  N   UNL     1      -3.578  -4.028   0.015  0.00  0.00    -0.141 NA
ATOM      6  C   UNL     1      -5.981  -4.979   0.048  0.00  0.00    +0.175 C 
ATOM      7  C   UNL     1      -7.337  -4.395  -0.280  0.00  0.00    +0.041 C 
ATOM      8  C   UNL     1      -7.568  -3.064  -0.264  0.00  0.00    +0.020 C 
ATOM      9  N   UNL     1      -6.576  -2.161   0.035  0.00  0.00    -0.287 N 
ATOM     10  C   UNL     1      -8.939  -2.512  -0.572  0.00  0.00    +0.058 C 
ATOM     11  C   UNL     1      -9.648  -3.425  -1.575  0.00  0.00    -0.023 C 
ATOM     12  C   UNL     1      -9.743  -4.828  -0.966  0.00  0.00    +0.086 C 
ATOM     13  C   UNL     1      -8.361  -5.301  -0.609  0.00  0.00    +0.164 C 
ATOM     14  O   UNL     1      -8.124  -6.492  -0.606  0.00  0.00    -0.292 OA
ATOM     15  C   UNL     1     -11.053  -2.889  -1.856  0.00  0.00    +0.011 C 
ATOM     16  C   UNL     1      -8.846  -3.480  -2.876  0.00  0.00    +0.011 C 
ATOM     17  H   UNL     1      -6.788  -1.237   0.242  0.00  0.00    +0.155 HD
ENDROOT
BRANCH   6  18
ATOM     18  C   UNL     1      -6.027  -5.608   1.417  0.00  0.00    -0.018 A 
ATOM     19  C   UNL     1      -6.334  -4.835   2.522  0.00  0.00    +0.009 A 
ATOM     20  C   UNL     1      -6.377  -5.410   3.777  0.00  0.00    +0.046 A 
ATOM     21  C   UNL     1      -6.113  -6.763   3.929  0.00  0.00    +0.121 A 
ATOM     22  C   UNL     1      -5.806  -7.537   2.819  0.00  0.00    +0.046 A 
ATOM     23  C   UNL     1      -5.769  -6.959   1.565  0.00  0.00    +0.009 A 
BRANCH  21  24
ATOM     24  O   UNL     1      -6.154  -7.330   5.164  0.00  0.00    -0.487 OA
BRANCH  24  25
ATOM     25  C   UNL     1      -5.872  -8.729   5.245  0.00  0.00    +0.264 C 
BRANCH  25  26
ATOM     26  C   UNL     1      -5.964  -9.177   6.681  0.00  0.00    -0.010 A 
ATOM     27  C   UNL     1      -4.845  -9.134   7.491  0.00  0.00    +0.008 A 
ATOM     28  C   UNL     1      -4.929  -9.545   8.808  0.00  0.00    +0.020 A 
ATOM     29  C   UNL     1      -6.133 -10.000   9.315  0.00  0.00    +0.041 A 
ATOM     30  C   UNL     1      -7.253 -10.043   8.503  0.00  0.00    +0.020 A 
ATOM     31  C   UNL     1      -7.169  -9.627   7.188  0.00  0.00    +0.008 A 
ATOM     32 CL   UNL     1      -6.239 -10.518  10.969  0.00  0.00    -0.084 Cl
ENDBRANCH  25  26
ENDBRANCH  24  25
ENDBRANCH  21  24
ENDBRANCH   6  18
BRANCH   1  33
ATOM     33  S   UNL     1      -1.409  -2.348   0.003  0.00  0.00    -0.084 S 
BRANCH  33  34
ATOM     34  C   UNL     1      -1.433  -0.534   0.013  0.00  0.00    +0.077 C 
BRANCH  34  36
ATOM     35  C   UNL     1      -0.019   1.526   0.010  0.00  0.00    +0.004 C 
ATOM     36  C   UNL     1       0.002  -0.004   0.002  0.00  0.00    +0.008 C 
ENDBRANCH  34  36
ENDBRANCH  33  34
ENDBRANCH   1  33
TORSDOF 7
