REMARK  Name = ZINC03338555
REMARK  7 active torsions:
REMARK  status: ('A' for Active; 'I' for Inactive)
REMARK    1  A    between atoms: C_1  and  C_2
REMARK    2  A    between atoms: C_3  and  C_34
REMARK    3  A    between atoms: C_11  and  C_13
REMARK    4  A    between atoms: C_13  and  S_14
REMARK    5  A    between atoms: S_14  and  C_15
REMARK    6  A    between atoms: C_22  and  C_24
REMARK    7  A    between atoms: C_24  and  N_63
REMARK                            x       y       z     vdW  Elec       q    Type
REMARK                         _______ _______ _______ _____ _____    ______ ____
ROOT
ATOM      1  C   UNL     1       6.502   0.357   1.583  0.00  0.00    +0.109 A 
ATOM      2  C   UNL     1       6.682   1.508   2.402  0.00  0.00    +0.043 A 
ATOM      3  C   UNL     1       7.880   2.330   2.576  0.00  0.00    -0.025 A 
ATOM      4  C   UNL     1       7.786   3.377   3.420  0.00  0.00    -0.004 A 
ATOM      5  S   UNL     1       6.121   3.335   4.026  0.00  0.00    -0.073 S 
ATOM      6  C   UNL     1       5.551   1.906   3.142  0.00  0.00    +0.113 A 
ATOM      7  N   UNL     1       4.412   1.246   3.069  0.00  0.00    -0.227 NA
ATOM      8  C   UNL     1       4.305   0.186   2.291  0.00  0.00    +0.115 A 
ATOM      9  N   UNL     1       5.325  -0.248   1.573  0.00  0.00    -0.227 NA
ATOM     10  C   UNL     1       8.861   4.362   3.768  0.00  0.00    +0.043 C 
ATOM     11  C   UNL     1      10.209   3.792   3.305  0.00  0.00    +0.005 C 
ATOM     12  C   UNL     1      10.061   3.286   1.867  0.00  0.00    +0.005 C 
ATOM     13  C   UNL     1       9.187   2.032   1.845  0.00  0.00    +0.037 C 
ENDROOT
BRANCH   1  14
ATOM     14  S   UNL     1       7.830  -0.256   0.601  0.00  0.00    -0.097 S 
BRANCH  14  15
ATOM     15  C   UNL     1       7.016  -1.672  -0.180  0.00  0.00    +0.150 C 
BRANCH  15  26
ATOM     16  C   UNL     1      10.630  -5.388  -4.431  0.00  0.00    +0.045 C 
ATOM     17  C   UNL     1      10.846  -4.168  -3.574  0.00  0.00    -0.026 A 
ATOM     18  C   UNL     1      12.039  -3.552  -3.556  0.00  0.00    -0.008 A 
ATOM     19  S   UNL     1      11.790  -2.202  -2.419  0.00  0.00    -0.073 S 
ATOM     20  C   UNL     1      10.093  -2.504  -2.001  0.00  0.00    +0.116 A 
ATOM     21  C   UNL     1       9.767  -3.645  -2.756  0.00  0.00    +0.075 A 
ATOM     22  C   UNL     1       8.424  -4.122  -2.610  0.00  0.00    +0.260 A 
ATOM     23  O   UNL     1       8.046  -5.105  -3.224  0.00  0.00    -0.267 OA
ATOM     24  N   UNL     1       7.588  -3.471  -1.780  0.00  0.00    -0.310 N 
ATOM     25  H   UNL     1       6.679  -3.792  -1.673  0.00  0.00    +0.170 HD
ATOM     26  C   UNL     1       7.990  -2.371  -1.093  0.00  0.00    +0.121 A 
ATOM     27  N   UNL     1       9.207  -1.911  -1.204  0.00  0.00    -0.226 NA
ATOM     28  C   UNL     1      13.289  -3.916  -4.315  0.00  0.00    +0.052 C 
ENDBRANCH  15  26
ENDBRANCH  14  15
ENDBRANCH   1  14
BRANCH   8  29
ATOM     29  C   UNL     1       2.991  -0.550   2.226  0.00  0.00    -0.001 C 
BRANCH  29  35
ATOM     30  C   UNL     1       0.793  -0.505   1.212  0.00  0.00    -0.078 C 
ATOM     31  C   UNL     1       0.002  -0.004   0.002  0.00  0.00    -0.019 C 
ATOM     32  C   UNL     1      -0.019   1.527   0.010  0.00  0.00    -0.004 C 
ATOM     33  C   UNL     1       1.421   2.049  -0.001  0.00  0.00    -0.019 C 
ATOM     34  C   UNL     1       2.171   1.488   1.210  0.00  0.00    -0.078 C 
ATOM     35  N   UNL     1       2.176   0.012   1.129  0.00  0.00    +0.384 N 
ATOM     36  H   UNL     1       2.584  -0.271   0.231  0.00  0.00    -0.081 HD
ENDBRANCH  29  35
ENDBRANCH   8  29
TORSDOF 5
