REMARK  Name = ZINC08692790
REMARK  12 active torsions:
REMARK  status: ('A' for Active; 'I' for Inactive)
REMARK    1  A    between atoms: C_1  and  C_2
REMARK    2  A    between atoms: C_3  and  C_34
REMARK    3  A    between atoms: C_4  and  C_33
REMARK    4  A    between atoms: C_7  and  C_8
REMARK    5  A    between atoms: C_8  and  O_10
REMARK    6  A    between atoms: O_10  and  C_11
REMARK    7  A    between atoms: C_11  and  C_13
REMARK    8  A    between atoms: C_11  and  C_14
REMARK    9  A    between atoms: N_16  and  C_17
REMARK   10  A    between atoms: C_19  and  S_24
REMARK   11  A    between atoms: S_24  and  N_27
REMARK   12  A    between atoms: C_34  and  C_36
REMARK                            x       y       z     vdW  Elec       q    Type
REMARK                         _______ _______ _______ _____ _____    ______ ____
ROOT
ATOM      1  C   UNL     1      -0.625  -1.799   5.738  0.00  0.00    +0.258 C 
ATOM      2  O   UNL     1      -1.001  -2.864   5.295  0.00  0.00    -0.271 OA
ATOM      3  N   UNL     1      -0.832  -1.498   7.035  0.00  0.00    -0.281 N 
ATOM      4  H   UNL     1      -0.604  -0.617   7.371  0.00  0.00    +0.155 HD
ENDROOT
BRANCH   3   5
ATOM      5  C   UNL     1      -1.375  -2.457   7.899  0.00  0.00    +0.054 A 
ATOM      6  C   UNL     1      -1.232  -3.808   7.615  0.00  0.00    +0.053 A 
ATOM      7  C   UNL     1      -1.769  -4.752   8.469  0.00  0.00    +0.107 A 
ATOM      8  C   UNL     1      -2.449  -4.352   9.605  0.00  0.00    +0.030 A 
ATOM      9  C   UNL     1      -2.594  -3.007   9.891  0.00  0.00    +0.024 A 
ATOM     10  C   UNL     1      -2.054  -2.058   9.043  0.00  0.00    +0.062 A 
ATOM     11 CL   UNL     1      -2.229  -0.369   9.406  0.00  0.00    -0.082 Cl
BRANCH   7  12
ATOM     12  S   UNL     1      -1.587  -6.468   8.110  0.00  0.00    +0.061 S 
ATOM     13  O   UNL     1      -2.649  -7.136   8.777  0.00  0.00    -0.153 OA
ATOM     14  O   UNL     1      -1.384  -6.570   6.707  0.00  0.00    -0.153 OA
BRANCH  12  15
ATOM     15  N   UNL     1      -0.184  -6.973   8.830  0.00  0.00    -0.177 NA
ATOM     16  C   UNL     1       1.093  -6.908   8.107  0.00  0.00    +0.109 C 
ATOM     17  C   UNL     1       2.104  -6.135   8.960  0.00  0.00    +0.017 C 
ATOM     18  C   UNL     1       2.197  -6.782  10.344  0.00  0.00    +0.003 C 
ATOM     19  C   UNL     1       0.832  -6.715  11.033  0.00  0.00    +0.017 C 
ATOM     20  C   UNL     1      -0.192  -7.489  10.205  0.00  0.00    +0.109 C 
ENDBRANCH  12  15
ENDBRANCH   7  12
ENDBRANCH   3   5
BRANCH   1  21
ATOM     21  C   UNL     1       0.074  -0.813   4.838  0.00  0.00    +0.259 C 
ATOM     22  C   UNL     1       1.518  -0.626   5.308  0.00  0.00    +0.062 C 
BRANCH  21  23
ATOM     23  O   UNL     1       0.070  -1.306   3.497  0.00  0.00    -0.448 OA
BRANCH  23  24
ATOM     24  C   UNL     1       0.058  -0.390   2.507  0.00  0.00    +0.357 C 
ATOM     25  O   UNL     1       0.051   0.796   2.776  0.00  0.00    -0.243 OA
BRANCH  24  32
ATOM     26  C   UNL     1       0.032   1.503   0.029  0.00  0.00    +0.047 C 
ATOM     27  C   UNL     1       0.041  -0.004   0.017  0.00  0.00    -0.008 A 
ATOM     28  C   UNL     1       0.047  -0.836  -1.127  0.00  0.00    +0.041 A 
ATOM     29  C   UNL     1       0.056  -2.147  -0.675  0.00  0.00    +0.024 A 
ATOM     30  N   UNL     1       0.057  -2.131   0.666  0.00  0.00    -0.352 N 
ATOM     31  H   UNL     1       0.062  -2.915   1.237  0.00  0.00    +0.166 HD
ATOM     32  C   UNL     1       0.053  -0.824   1.106  0.00  0.00    +0.128 A 
ATOM     33  C   UNL     1       0.064  -3.379  -1.542  0.00  0.00    +0.064 C 
BRANCH  28  34
ATOM     34  C   UNL     1       0.042  -0.397  -2.526  0.00  0.00    +0.162 C 
ATOM     35  O   UNL     1      -1.006  -0.310  -3.131  0.00  0.00    -0.292 OA
ATOM     36  C   UNL     1       1.339  -0.053  -3.212  0.00  0.00    +0.091 C 
ENDBRANCH  28  34
ENDBRANCH  24  32
ENDBRANCH  23  24
ENDBRANCH  21  23
ENDBRANCH   1  21
TORSDOF 8
