REMARK  Name = ZINC20528338
REMARK  8 active torsions:
REMARK  status: ('A' for Active; 'I' for Inactive)
REMARK    1  A    between atoms: C_3  and  N_8
REMARK    2  A    between atoms: C_9  and  C_11
REMARK    3  A    between atoms: C_11  and  S_12
REMARK    4  A    between atoms: S_12  and  C_13
REMARK    5  A    between atoms: N_17  and  N_18
REMARK    6  A    between atoms: N_19  and  N_20
REMARK    7  A    between atoms: C_21  and  C_22
REMARK    8  A    between atoms: C_25  and  O_28
REMARK                            x       y       z     vdW  Elec       q    Type
REMARK                         _______ _______ _______ _____ _____    ______ ____
ROOT
ATOM      1  C   UNL     1      -5.260   0.371  -0.196  0.00  0.00    +0.210 A 
ATOM      2  N   UNL     1      -5.117  -0.911   0.043  0.00  0.00    -0.119 NA
ATOM      3  N   UNL     1      -6.393  -1.489   0.080  0.00  0.00    -0.109 NA
ATOM      4  C   UNL     1      -7.273  -0.544  -0.147  0.00  0.00    +0.254 A 
ATOM      5  N   UNL     1      -6.595   0.630  -0.323  0.00  0.00    -0.211 N 
ATOM      6  N   UNL     1      -8.649  -0.707  -0.199  0.00  0.00    -0.204 N 
ATOM      7  H   UNL     1      -9.299   0.158  -0.398  0.00  0.00    +0.177 HD
ENDROOT
BRANCH   5   8
ATOM      8  N   UNL     1      -7.155   1.849  -0.580  0.00  0.00    -0.294 N 
ATOM      9  H   UNL     1      -8.248   1.946  -0.663  0.00  0.00    +0.163 HD
ATOM     10  H   UNL     1      -6.514   2.734  -0.704  0.00  0.00    +0.163 HD
ENDBRANCH   5   8
BRANCH   6  11
ATOM     11  N   UNL     1      -9.213  -1.974   0.001  0.00  0.00    -0.188 NA
ATOM     12  C   UNL     1     -10.501  -2.127  -0.049  0.00  0.00    +0.138 C 
BRANCH  12  13
ATOM     13  C   UNL     1     -11.094  -3.461   0.162  0.00  0.00    -0.005 A 
ATOM     14  C   UNL     1     -10.271  -4.562   0.408  0.00  0.00    +0.013 A 
ATOM     15  C   UNL     1     -10.830  -5.806   0.608  0.00  0.00    +0.046 A 
ATOM     16  C   UNL     1     -12.208  -5.967   0.556  0.00  0.00    +0.117 A 
ATOM     17  C   UNL     1     -13.030  -4.876   0.306  0.00  0.00    +0.046 A 
ATOM     18  C   UNL     1     -12.480  -3.627   0.109  0.00  0.00    +0.013 A 
BRANCH  16  19
ATOM     19  O   UNL     1     -12.755  -7.196   0.749  0.00  0.00    -0.507 OA
ATOM     20  H   UNL     1     -13.846  -7.326   0.707  0.00  0.00    +0.292 HD
ENDBRANCH  16  19
ENDBRANCH  12  13
ENDBRANCH   6  11
BRANCH   1  21
ATOM     21  S   UNL     1      -3.958   1.550  -0.335  0.00  0.00    -0.075 S 
BRANCH  21  22
ATOM     22  C   UNL     1      -2.453   0.575  -0.066  0.00  0.00    +0.173 C 
BRANCH  22  24
ATOM     23  N   UNL     1      -0.011   0.966   0.007  0.00  0.00    -0.285 N 
ATOM     24  C   UNL     1      -1.248   1.475  -0.160  0.00  0.00    +0.227 C 
ATOM     25  O   UNL     1      -1.391   2.658  -0.386  0.00  0.00    -0.275 OA
ATOM     26  H   UNL     1       0.125  -0.119   0.129  0.00  0.00    +0.155 HD
BRANCH  23  29
ATOM     27  C   UNL     1       3.411   2.226  -0.464  0.00  0.00    +0.003 A 
ATOM     28  C   UNL     1       2.318   1.382  -0.478  0.00  0.00    +0.023 A 
ATOM     29  C   UNL     1       1.099   1.817   0.026  0.00  0.00    +0.034 A 
ATOM     30  C   UNL     1       0.987   3.096   0.555  0.00  0.00    +0.038 A 
ATOM     31  C   UNL     1       2.086   3.934   0.572  0.00  0.00    +0.020 A 
ATOM     32  C   UNL     1       3.297   3.499   0.063  0.00  0.00    +0.015 A 
ATOM     33 BR   UNL     1       1.934   5.676   1.292  0.00  0.00    -0.050 Br
ENDBRANCH  23  29
ENDBRANCH  22  24
ENDBRANCH  21  22
ENDBRANCH   1  21
TORSDOF 8
