REMARK  Name = ZINC04613336
REMARK  7 active torsions:
REMARK  status: ('A' for Active; 'I' for Inactive)
REMARK    1  A    between atoms: C_1  and  C_2
REMARK    2  A    between atoms: C_2  and  C_3
REMARK    3  A    between atoms: C_2  and  C_4
REMARK    4  A    between atoms: C_2  and  C_5
REMARK    5  A    between atoms: C_12  and  N_25
REMARK    6  A    between atoms: C_13  and  C_23
REMARK    7  A    between atoms: C_14  and  C_16
REMARK                            x       y       z     vdW  Elec       q    Type
REMARK                         _______ _______ _______ _____ _____    ______ ____
ROOT
ATOM      1  C   UNL     1       1.133  -0.394  -1.438  0.00  0.00    +0.049 A 
ATOM      2  C   UNL     1       1.132  -1.696  -1.761  0.00  0.00    +0.050 A 
ATOM      3  C   UNL     1       1.846  -1.848  -2.970  0.00  0.00    +0.245 A 
ATOM      4  N   UNL     1       2.256  -0.672  -3.346  0.00  0.00    -0.135 NA
ATOM      5  N   UNL     1       1.816   0.267  -2.400  0.00  0.00    -0.277 N 
ATOM      6  H   UNL     1       1.975   1.224  -2.431  0.00  0.00    +0.189 HD
ATOM      7  O   UNL     1       2.016  -3.062  -3.559  0.00  0.00    -0.421 OA
ATOM      8  C   UNL     1       1.260  -4.083  -3.108  0.00  0.00    +0.201 C 
ATOM      9  C   UNL     1       0.546  -4.058  -1.963  0.00  0.00    +0.098 C 
ATOM     10  C   UNL     1       0.515  -2.867  -1.039  0.00  0.00    +0.101 C 
ENDROOT
BRANCH  10  11
ATOM     11  C   UNL     1       1.305  -3.169   0.208  0.00  0.00    -0.033 A 
ATOM     12  C   UNL     1       2.687  -3.199   0.161  0.00  0.00    +0.004 A 
ATOM     13  C   UNL     1       3.412  -3.476   1.304  0.00  0.00    +0.002 A 
ATOM     14  C   UNL     1       2.757  -3.725   2.495  0.00  0.00    +0.020 A 
ATOM     15  C   UNL     1       1.375  -3.696   2.543  0.00  0.00    +0.041 A 
ATOM     16  C   UNL     1       0.649  -3.412   1.400  0.00  0.00    +0.024 A 
ATOM     17 CL   UNL     1       0.551  -4.008   4.039  0.00  0.00    -0.084 Cl
ENDBRANCH  10  11
BRANCH   1  19
ATOM     18  C   UNL     1       0.612   1.744  -0.295  0.00  0.00    +0.017 C 
ATOM     19  C   UNL     1       0.485   0.221  -0.224  0.00  0.00    +0.004 C 
ATOM     20  C   UNL     1       1.179  -0.291   1.040  0.00  0.00    +0.017 C 
ATOM     21  C   UNL     1      -0.995  -0.166  -0.185  0.00  0.00    +0.017 C 
ENDBRANCH   1  19
BRANCH   8  22
ATOM     22  N   UNL     1       1.213  -5.226  -3.865  0.00  0.00    -0.328 N 
ATOM     23  H   UNL     1       1.713  -5.280  -4.694  0.00  0.00    +0.145 HD
ATOM     24  H   UNL     1       0.679  -5.981  -3.571  0.00  0.00    +0.145 HD
ENDBRANCH   8  22
BRANCH   9  25
ATOM     25  C   UNL     1      -0.218  -5.216  -1.609  0.00  0.00    +0.101 C 
ATOM     26  N   UNL     1      -0.824  -6.135  -1.329  0.00  0.00    -0.191 NA
ENDBRANCH   9  25
TORSDOF 4
