REMARK  Name = ZINC39773715
REMARK  6 active torsions:
REMARK  status: ('A' for Active; 'I' for Inactive)
REMARK    1  A    between atoms: C_1  and  C_2
REMARK    2  A    between atoms: C_10  and  C_12
REMARK    3  A    between atoms: C_12  and  S_13
REMARK    4  A    between atoms: S_13  and  C_14
REMARK    5  A    between atoms: C_18  and  C_27
REMARK    6  A    between atoms: N_19  and  C_20
REMARK                            x       y       z     vdW  Elec       q    Type
REMARK                         _______ _______ _______ _____ _____    ______ ____
ROOT
ATOM      1  C   UNL     1       1.282  -6.069  -5.697  0.00  0.00    +0.241 C 
ATOM      2  N   UNL     1       0.141  -6.568  -4.913  0.00  0.00    -0.237 N 
ATOM      3  N   UNL     1       0.583  -7.725  -4.260  0.00  0.00    -0.169 NA
ATOM      4  C   UNL     1       1.831  -7.985  -4.548  0.00  0.00    +0.151 C 
ATOM      5  N   UNL     1       2.362  -7.032  -5.426  0.00  0.00    -0.254 N 
ATOM      6  H   UNL     1      -0.743  -6.173  -4.858  0.00  0.00    +0.171 HD
ENDROOT
BRANCH   4   7
ATOM      7  C   UNL     1       2.548  -9.081  -4.043  0.00  0.00    +0.022 C 
ATOM      8  C   UNL     1       2.054 -10.120  -3.252  0.00  0.00    +0.006 A 
ATOM      9  C   UNL     1       0.771 -10.397  -2.735  0.00  0.00    +0.010 A 
ATOM     10  C   UNL     1       0.575 -11.507  -1.978  0.00  0.00    +0.001 A 
ATOM     11  C   UNL     1       1.618 -12.392  -1.694  0.00  0.00    +0.002 A 
ATOM     12  C   UNL     1       2.876 -12.188  -2.159  0.00  0.00    +0.026 A 
ATOM     13  C   UNL     1       3.157 -11.049  -2.957  0.00  0.00    +0.043 A 
ATOM     14  N   UNL     1       4.275 -10.632  -3.519  0.00  0.00    -0.380 N 
ATOM     15  C   UNL     1       4.015  -9.387  -4.247  0.00  0.00    +0.152 C 
ATOM     16  H   UNL     1       5.133 -11.081  -3.462  0.00  0.00    +0.160 HD
ENDBRANCH   4   7
BRANCH   5  17
ATOM     17  C   UNL     1       3.660  -6.999  -5.942  0.00  0.00    +0.038 A 
ATOM     18  C   UNL     1       3.939  -7.601  -7.163  0.00  0.00    +0.025 A 
ATOM     19  C   UNL     1       5.223  -7.567  -7.670  0.00  0.00    +0.022 A 
ATOM     20  C   UNL     1       6.231  -6.935  -6.965  0.00  0.00    +0.041 A 
ATOM     21  C   UNL     1       5.957  -6.335  -5.748  0.00  0.00    +0.022 A 
ATOM     22  C   UNL     1       4.673  -6.360  -5.239  0.00  0.00    +0.025 A 
ATOM     23 CL   UNL     1       7.844  -6.895  -7.606  0.00  0.00    -0.084 Cl
ENDBRANCH   5  17
BRANCH   1  24
ATOM     24  S   UNL     1       1.758  -4.409  -5.141  0.00  0.00    -0.108 S 
BRANCH  24  25
ATOM     25  C   UNL     1       2.100  -4.620  -3.372  0.00  0.00    +0.168 C 
BRANCH  25  35
ATOM     26  C   UNL     1       2.940  -1.405   3.076  0.00  0.00    +0.109 C 
ATOM     27  C   UNL     1       2.534  -2.729   2.481  0.00  0.00    +0.213 C 
ATOM     28  O   UNL     1       2.482  -3.718   3.182  0.00  0.00    -0.276 OA
ATOM     29  N   UNL     1       2.229  -2.814   1.171  0.00  0.00    -0.299 N 
ATOM     30  C   UNL     1       2.295  -1.625   0.309  0.00  0.00    +0.126 C 
ATOM     31  C   UNL     1       3.219  -1.930  -0.876  0.00  0.00    +0.127 C 
ATOM     32  N   UNL     1       2.816  -3.213  -1.468  0.00  0.00    -0.298 N 
ATOM     33  C   UNL     1       2.751  -4.401  -0.607  0.00  0.00    +0.127 C 
ATOM     34  C   UNL     1       1.832  -4.098   0.578  0.00  0.00    +0.126 C 
ATOM     35  C   UNL     1       2.511  -3.298  -2.779  0.00  0.00    +0.226 C 
ATOM     36  O   UNL     1       2.568  -2.310  -3.480  0.00  0.00    -0.275 OA
ENDBRANCH  25  35
ENDBRANCH  24  25
ENDBRANCH   1  24
TORSDOF 5
