REMARK  Name = ZINC09434721
REMARK  5 active torsions:
REMARK  status: ('A' for Active; 'I' for Inactive)
REMARK    1  A    between atoms: C_4  and  C_7
REMARK    2  A    between atoms: C_7  and  O_8
REMARK    3  A    between atoms: O_8  and  C_9
REMARK    4  A    between atoms: C_15  and  C_19
REMARK    5  A    between atoms: N_20  and  N_21
REMARK                            x       y       z     vdW  Elec       q    Type
REMARK                         _______ _______ _______ _____ _____    ______ ____
ROOT
ATOM      1  C   UNL     1       5.319  -1.605   1.467  0.00  0.00    +0.122 A 
ATOM      2  C   UNL     1       6.049  -2.008   0.351  0.00  0.00    +0.048 A 
ATOM      3  C   UNL     1       7.244  -2.676   0.499  0.00  0.00    +0.030 A 
ATOM      4  C   UNL     1       7.732  -2.955   1.772  0.00  0.00    +0.047 A 
ATOM      5  C   UNL     1       6.997  -2.550   2.898  0.00  0.00    +0.012 A 
ATOM      6  C   UNL     1       5.792  -1.868   2.738  0.00  0.00    +0.056 A 
ATOM      7  C   UNL     1       7.773  -2.990   4.071  0.00  0.00    +0.020 A 
ATOM      8  C   UNL     1       8.885  -3.610   3.591  0.00  0.00    +0.093 A 
ATOM      9  N   UNL     1       8.868  -3.594   2.228  0.00  0.00    -0.360 N 
ATOM     10  H   UNL     1       9.555  -3.976   1.660  0.00  0.00    +0.165 HD
ENDROOT
BRANCH   7  11
ATOM     11  C   UNL     1       7.416  -2.796   5.486  0.00  0.00    +0.142 C 
ATOM     12  N   UNL     1       6.316  -2.180   5.799  0.00  0.00    -0.180 NA
BRANCH  12  13
ATOM     13  N   UNL     1       5.975  -1.996   7.146  0.00  0.00    -0.258 N 
ATOM     14  C   UNL     1       4.818  -1.349   7.475  0.00  0.00    +0.156 C 
ATOM     15  N   UNL     1       3.992  -0.881   6.490  0.00  0.00    -0.338 N 
ATOM     16  S   UNL     1       4.415  -1.130   9.070  0.00  0.00    -0.015 SA
ATOM     17  H   UNL     1       4.227  -1.009   5.558  0.00  0.00    +0.144 HD
ATOM     18  H   UNL     1       3.170  -0.422   6.724  0.00  0.00    +0.144 HD
ATOM     19  H   UNL     1       6.561  -2.327   7.844  0.00  0.00    +0.191 HD
ENDBRANCH  12  13
ENDBRANCH   7  11
BRANCH   1  20
ATOM     20  O   UNL     1       4.141  -0.946   1.304  0.00  0.00    -0.487 OA
BRANCH  20  21
ATOM     21  C   UNL     1       3.711  -0.707  -0.038  0.00  0.00    +0.264 C 
BRANCH  21  25
ATOM     22  C   UNL     1      -0.017   1.378   0.010  0.00  0.00    +0.000 A 
ATOM     23  C   UNL     1       1.171   2.086   0.002  0.00  0.00    +0.000 A 
ATOM     24  C   UNL     1       2.377   1.411  -0.013  0.00  0.00    +0.007 A 
ATOM     25  C   UNL     1       2.396   0.029  -0.020  0.00  0.00    -0.010 A 
ATOM     26  C   UNL     1       1.208  -0.679  -0.012  0.00  0.00    +0.007 A 
ATOM     27  C   UNL     1       0.002  -0.004   0.002  0.00  0.00    +0.000 A 
ENDBRANCH  21  25
ENDBRANCH  20  21
ENDBRANCH   1  20
TORSDOF 5
