REMARK  Name = ZINC09215730
REMARK  5 active torsions:
REMARK  status: ('A' for Active; 'I' for Inactive)
REMARK    1  A    between atoms: C_1  and  C_2
REMARK    2  A    between atoms: C_9  and  N_26
REMARK    3  A    between atoms: C_10  and  C_13
REMARK    4  A    between atoms: N_17  and  C_21
REMARK    5  A    between atoms: C_29  and  C_32
REMARK                            x       y       z     vdW  Elec       q    Type
REMARK                         _______ _______ _______ _____ _____    ______ ____
ROOT
ATOM      1  C   UNL     1       3.850   2.598  -0.683  0.00  0.00    +0.047 C 
ATOM      2  C   UNL     1       2.654   1.768  -0.292  0.00  0.00    -0.007 A 
ATOM      3  C   UNL     1       2.803   0.444  -0.004  0.00  0.00    +0.008 A 
ATOM      4  C   UNL     1       1.681  -0.315   0.357  0.00  0.00    +0.019 A 
ATOM      5  C   UNL     1       0.462   0.265   0.419  0.00  0.00    +0.096 A 
ATOM      6  N   UNL     1       0.302   1.588   0.133  0.00  0.00    -0.267 N 
ATOM      7  C   UNL     1       1.378   2.354  -0.223  0.00  0.00    +0.145 A 
ATOM      8  N   UNL     1       1.242   3.650  -0.507  0.00  0.00    -0.213 NA
ATOM      9  C   UNL     1       0.063   4.253  -0.458  0.00  0.00    +0.136 A 
ATOM     10  C   UNL     1      -1.085   3.510  -0.095  0.00  0.00    +0.081 A 
ATOM     11  C   UNL     1      -0.931   2.135   0.199  0.00  0.00    +0.267 A 
ATOM     12  O   UNL     1      -1.894   1.455   0.510  0.00  0.00    -0.267 OA
ENDROOT
BRANCH  10  13
ATOM     13  C   UNL     1      -2.357   4.127  -0.033  0.00  0.00    +0.037 C 
ATOM     14  C   UNL     1      -2.546   5.223   0.758  0.00  0.00    +0.077 C 
ATOM     15  C   UNL     1      -3.712   6.020   0.938  0.00  0.00    +0.259 C 
ATOM     16  O   UNL     1      -4.744   5.764   0.342  0.00  0.00    -0.269 OA
ATOM     17  N   UNL     1      -3.646   7.042   1.772  0.00  0.00    -0.252 N 
ATOM     18  C   UNL     1      -2.499   7.330   2.428  0.00  0.00    +0.121 C 
ATOM     19  S   UNL     1      -2.186   8.596   3.538  0.00  0.00    -0.027 S 
ATOM     20  S   UNL     1      -1.394   6.055   1.843  0.00  0.00    -0.061 S 
BRANCH  17  21
ATOM     21  C   UNL     1      -4.829   7.880   1.985  0.00  0.00    +0.083 C 
ATOM     22  C   UNL     1      -4.510   9.346   1.628  0.00  0.00    +0.023 C 
ATOM     23  C   UNL     1      -5.291  10.171   2.682  0.00  0.00    +0.002 C 
ATOM     24  C   UNL     1      -5.133   9.322   3.967  0.00  0.00    +0.002 C 
ATOM     25  C   UNL     1      -5.226   7.864   3.471  0.00  0.00    +0.023 C 
ENDBRANCH  17  21
ENDBRANCH  10  13
BRANCH   9  26
ATOM     26  N   UNL     1      -0.043   5.593  -0.757  0.00  0.00    -0.314 N 
ATOM     27  C   UNL     1      -0.864   5.801  -1.957  0.00  0.00    +0.107 C 
ATOM     28  C   UNL     1      -1.081   7.300  -2.176  0.00  0.00    +0.031 C 
ATOM     29  C   UNL     1       0.277   7.988  -2.339  0.00  0.00    +0.078 C 
ATOM     30  C   UNL     1       1.130   7.717  -1.097  0.00  0.00    +0.031 C 
ATOM     31  C   UNL     1       1.283   6.205  -0.909  0.00  0.00    +0.107 C 
BRANCH  29  32
ATOM     32  C   UNL     1       0.074   9.473  -2.495  0.00  0.00    +0.214 C 
ATOM     33  O   UNL     1       0.564  10.240  -1.693  0.00  0.00    -0.276 OA
ATOM     34  N   UNL     1      -0.651   9.949  -3.527  0.00  0.00    -0.329 N 
ATOM     35  H   UNL     1      -1.042   9.336  -4.168  0.00  0.00    +0.145 HD
ATOM     36  H   UNL     1      -0.781  10.905  -3.628  0.00  0.00    +0.145 HD
ENDBRANCH  29  32
ENDBRANCH   9  26
TORSDOF 4
