REMARK  Name = ZINC13388029
REMARK  8 active torsions:
REMARK  status: ('A' for Active; 'I' for Inactive)
REMARK    1  A    between atoms: C_4  and  C_7
REMARK    2  A    between atoms: C_7  and  O_9
REMARK    3  A    between atoms: O_9  and  C_10
REMARK    4  A    between atoms: C_13  and  C_16
REMARK    5  A    between atoms: C_17  and  C_18
REMARK    6  A    between atoms: C_17  and  C_20
REMARK    7  A    between atoms: N_22  and  C_23
REMARK    8  A    between atoms: C_26  and  N_30
REMARK                            x       y       z     vdW  Elec       q    Type
REMARK                         _______ _______ _______ _____ _____    ______ ____
ROOT
ATOM      1  C   UNL     1      -0.002   1.096   0.130  0.00  0.00    +0.032 C 
ATOM      2  C   UNL     1      -1.151   1.612   0.686  0.00  0.00    +0.114 C 
ENDROOT
BRANCH   1   6
ATOM      3  C   UNL     1       3.540   3.412   0.062  0.00  0.00    +0.132 A 
ATOM      4  C   UNL     1       3.617   2.034   0.234  0.00  0.00    +0.047 A 
ATOM      5  C   UNL     1       2.473   1.278   0.257  0.00  0.00    +0.011 A 
ATOM      6  C   UNL     1       1.224   1.897   0.106  0.00  0.00    -0.023 A 
ATOM      7  C   UNL     1       1.154   3.286  -0.073  0.00  0.00    +0.011 A 
ATOM      8  C   UNL     1       2.304   4.032  -0.088  0.00  0.00    +0.047 A 
BRANCH   3   9
ATOM      9  O   UNL     1       4.676   4.154   0.039  0.00  0.00    -0.422 OA
BRANCH   9  10
ATOM     10  C   UNL     1       5.421   4.098  -1.082  0.00  0.00    +0.344 C 
ATOM     11  O   UNL     1       5.115   3.337  -1.978  0.00  0.00    -0.245 OA
BRANCH  10  15
ATOM     12  C   UNL     1       8.841   6.583  -1.484  0.00  0.00    +0.000 A 
ATOM     13  C   UNL     1       8.495   5.718  -2.506  0.00  0.00    +0.001 A 
ATOM     14  C   UNL     1       7.386   4.907  -2.382  0.00  0.00    +0.015 A 
ATOM     15  C   UNL     1       6.611   4.963  -1.222  0.00  0.00    +0.059 A 
ATOM     16  C   UNL     1       6.963   5.843  -0.197  0.00  0.00    +0.015 A 
ATOM     17  C   UNL     1       8.078   6.643  -0.331  0.00  0.00    +0.001 A 
ENDBRANCH  10  15
ENDBRANCH   9  10
ENDBRANCH   3   9
ENDBRANCH   1   6
BRANCH   2  18
ATOM     18  C   UNL     1      -2.373   0.794   0.742  0.00  0.00    +0.259 C 
ATOM     19  O   UNL     1      -2.368  -0.338   0.297  0.00  0.00    -0.269 OA
ATOM     20  N   UNL     1      -3.498   1.299   1.286  0.00  0.00    -0.280 N 
ATOM     21  H   UNL     1      -3.530   2.229   1.558  0.00  0.00    +0.155 HD
BRANCH  20  22
ATOM     22  C   UNL     1      -4.619   0.481   1.460  0.00  0.00    +0.048 A 
ATOM     23  C   UNL     1      -4.459  -0.868   1.747  0.00  0.00    +0.026 A 
ATOM     24  C   UNL     1      -5.568  -1.673   1.918  0.00  0.00    +0.034 A 
ATOM     25  C   UNL     1      -6.838  -1.137   1.803  0.00  0.00    +0.127 A 
ATOM     26  C   UNL     1      -7.002   0.205   1.517  0.00  0.00    +0.049 A 
ATOM     27  C   UNL     1      -5.896   1.018   1.350  0.00  0.00    +0.041 A 
ATOM     28 BR   UNL     1      -6.121   2.856   0.966  0.00  0.00    -0.048 Br
BRANCH  25  29
ATOM     29  N   UNL     1      -8.024  -2.003   1.987  0.00  0.00    +0.056 N 
ATOM     30  O   UNL     1      -7.881  -3.186   2.239  0.00  0.00    -0.126 OA
ATOM     31  O   UNL     1      -9.143  -1.533   1.886  0.00  0.00    -0.126 OA
ENDBRANCH  25  29
ENDBRANCH  20  22
ENDBRANCH   2  18
BRANCH   2  32
ATOM     32  C   UNL     1      -1.157   2.945   1.210  0.00  0.00    +0.104 C 
ATOM     33  N   UNL     1      -1.162   4.002   1.626  0.00  0.00    -0.191 NA
ENDBRANCH   2  32
TORSDOF 8
