REMARK  Name = ZINC12455259
REMARK  9 active torsions:
REMARK  status: ('A' for Active; 'I' for Inactive)
REMARK    1  A    between atoms: C_1  and  C_2
REMARK    2  A    between atoms: C_2  and  C_3
REMARK    3  A    between atoms: C_2  and  C_4
REMARK    4  A    between atoms: C_7  and  C_10
REMARK    5  A    between atoms: C_10  and  N_58
REMARK    6  A    between atoms: C_12  and  N_28
REMARK    7  A    between atoms: C_15  and  C_17
REMARK    8  A    between atoms: N_19  and  C_20
REMARK    9  A    between atoms: C_20  and  C_21
REMARK                            x       y       z     vdW  Elec       q    Type
REMARK                         _______ _______ _______ _____ _____    ______ ____
ROOT
ATOM      1  C   UNL     1       2.441  -4.299   4.319  0.00  0.00    -0.050 C 
ATOM      2  C   UNL     1       3.263  -5.587   4.537  0.00  0.00    +0.093 C 
ATOM      3  C   UNL     1       4.527  -5.133   5.296  0.00  0.00    +0.019 C 
ATOM      4  C   UNL     1       4.362  -3.608   5.473  0.00  0.00    +0.022 C 
ATOM      5  N   UNL     1       3.448  -3.234   4.396  0.00  0.00    +0.391 N 
ATOM      6  H   UNL     1       3.960  -3.170   3.508  0.00  0.00    -0.080 HD
ENDROOT
BRANCH   2   7
ATOM      7  N   UNL     1       2.504  -6.547   5.342  0.00  0.00    -0.231 N 
ATOM      8  C   UNL     1       1.596  -6.253   6.292  0.00  0.00    +0.245 A 
ATOM      9  N   UNL     1       1.159  -7.396   6.761  0.00  0.00    -0.117 NA
ATOM     10  N   UNL     1       1.765  -8.343   6.132  0.00  0.00    -0.023 NA
ATOM     11  N   UNL     1       2.575  -7.833   5.270  0.00  0.00    -0.044 NA
ENDBRANCH   2   7
BRANCH   4  12
ATOM     12  C   UNL     1       5.691  -2.913   5.325  0.00  0.00    +0.200 C 
ATOM     13  O   UNL     1       5.876  -2.147   4.404  0.00  0.00    -0.278 OA
ATOM     14  N   UNL     1       6.674  -3.143   6.218  0.00  0.00    -0.312 N 
ATOM     15  H   UNL     1       6.526  -3.756   6.956  0.00  0.00    +0.149 HD
BRANCH  14  16
ATOM     16  C   UNL     1       7.966  -2.467   6.075  0.00  0.00    +0.141 C 
BRANCH  16  17
ATOM     17  C   UNL     1       8.883  -2.893   7.194  0.00  0.00    -0.012 A 
ATOM     18  C   UNL     1       9.064  -2.072   8.290  0.00  0.00    +0.006 A 
ATOM     19  C   UNL     1       9.901  -2.465   9.318  0.00  0.00    +0.000 A 
ATOM     20  C   UNL     1      10.565  -3.675   9.245  0.00  0.00    +0.001 A 
ATOM     21  C   UNL     1      10.388  -4.495   8.146  0.00  0.00    +0.020 A 
ATOM     22  C   UNL     1       9.547  -4.105   7.120  0.00  0.00    +0.046 A 
ATOM     23 CL   UNL     1       9.325  -5.134   5.739  0.00  0.00    -0.083 Cl
ENDBRANCH  16  17
ENDBRANCH  14  16
ENDBRANCH   4  12
BRANCH   5  24
ATOM     24  C   UNL     1       2.797  -1.918   4.684  0.00  0.00    -0.042 C 
BRANCH  24  28
ATOM     25  C   UNL     1       0.731  -0.503   1.223  0.00  0.00    -0.045 A 
ATOM     26  C   UNL     1       2.053  -0.157   1.428  0.00  0.00    +0.004 A 
ATOM     27  C   UNL     1       2.721  -0.612   2.550  0.00  0.00    +0.002 A 
ATOM     28  C   UNL     1       2.068  -1.419   3.462  0.00  0.00    -0.064 A 
ATOM     29  C   UNL     1       0.747  -1.770   3.255  0.00  0.00    +0.002 A 
ATOM     30  C   UNL     1       0.079  -1.312   2.135  0.00  0.00    +0.004 A 
BRANCH  25  32
ATOM     31  C   UNL     1      -0.019   1.526   0.010  0.00  0.00    +0.012 C 
ATOM     32  C   UNL     1       0.002  -0.004   0.002  0.00  0.00    +0.013 C 
ATOM     33  C   UNL     1       0.718  -0.497  -1.257  0.00  0.00    +0.012 C 
ENDBRANCH  25  32
ENDBRANCH  24  28
ENDBRANCH   5  24
TORSDOF 7
