REMARK  Name = ZINC12140862
REMARK  15 active torsions:
REMARK  status: ('A' for Active; 'I' for Inactive)
REMARK    1  A    between atoms: C_1  and  C_2
REMARK    2  A    between atoms: C_2  and  N_66
REMARK    3  A    between atoms: C_3  and  C_4
REMARK    4  A    between atoms: C_3  and  N_66
REMARK    5  A    between atoms: C_5  and  C_6
REMARK    6  A    between atoms: C_5  and  N_66
REMARK    7  A    between atoms: C_6  and  N_7
REMARK    8  A    between atoms: C_11  and  O_17
REMARK    9  A    between atoms: O_17  and  C_18
REMARK   10  A    between atoms: C_18  and  C_19
REMARK   11  A    between atoms: C_20  and  C_22
REMARK   12  A    between atoms: C_25  and  S_28
REMARK   13  A    between atoms: S_28  and  N_31
REMARK   14  A    between atoms: N_31  and  C_32
REMARK   15  A    between atoms: N_31  and  C_33
REMARK                            x       y       z     vdW  Elec       q    Type
REMARK                         _______ _______ _______ _____ _____    ______ ____
ROOT
ATOM      1  N   UNL     1      -0.187   1.242  -0.202  0.00  0.00    -0.248 N 
ATOM      2  C   UNL     1       1.087   1.659   0.146  0.00  0.00    +0.168 A 
ATOM      3  N   UNL     1       2.127   0.934   0.483  0.00  0.00    -0.221 NA
ATOM      4  C   UNL     1       3.322   1.481   0.798  0.00  0.00    +0.122 A 
ATOM      5  C   UNL     1       4.518   0.816   1.173  0.00  0.00    +0.147 A 
ATOM      6  C   UNL     1       5.654   1.531   1.470  0.00  0.00    +0.048 A 
ATOM      7  C   UNL     1       5.672   2.917   1.413  0.00  0.00    +0.005 A 
ATOM      8  C   UNL     1       4.523   3.595   1.050  0.00  0.00    +0.017 A 
ATOM      9  C   UNL     1       3.382   2.890   0.752  0.00  0.00    +0.044 A 
ATOM     10  S   UNL     1       1.731   3.323   0.257  0.00  0.00    -0.052 S 
ATOM     11  C   UNL     1      -0.482  -0.073  -0.228  0.00  0.00    +0.252 C 
ATOM     12  O   UNL     1       0.385  -0.895  -0.002  0.00  0.00    -0.270 OA
ENDROOT
BRANCH  11  13
ATOM     13  C   UNL     1      -1.859  -0.515  -0.531  0.00  0.00    +0.037 A 
ATOM     14  C   UNL     1      -2.950   0.183  -0.010  0.00  0.00    +0.015 A 
ATOM     15  C   UNL     1      -4.233  -0.232  -0.301  0.00  0.00    +0.029 A 
ATOM     16  C   UNL     1      -4.440  -1.344  -1.098  0.00  0.00    +0.105 A 
ATOM     17  C   UNL     1      -3.363  -2.044  -1.613  0.00  0.00    +0.029 A 
ATOM     18  C   UNL     1      -2.075  -1.636  -1.334  0.00  0.00    +0.015 A 
BRANCH  16  19
ATOM     19  S   UNL     1      -6.082  -1.872  -1.459  0.00  0.00    +0.060 S 
ATOM     20  O   UNL     1      -6.917  -0.732  -1.309  0.00  0.00    -0.153 OA
ATOM     21  O   UNL     1      -6.014  -2.611  -2.670  0.00  0.00    -0.153 OA
BRANCH  19  22
ATOM     22  N   UNL     1      -6.524  -2.942  -0.275  0.00  0.00    -0.183 NA
ATOM     23  C   UNL     1      -7.179  -2.457   0.942  0.00  0.00    +0.131 C 
ATOM     24  C   UNL     1      -6.259  -4.372  -0.445  0.00  0.00    +0.131 C 
ENDBRANCH  19  22
ENDBRANCH  16  19
ENDBRANCH  11  13
BRANCH   1  25
ATOM     25  C   UNL     1      -1.212   2.230  -0.548  0.00  0.00    +0.097 C 
BRANCH  25  26
ATOM     26  C   UNL     1      -1.692   2.934   0.723  0.00  0.00    -0.059 C 
BRANCH  26  27
ATOM     27  N   UNL     1      -2.766   3.882   0.362  0.00  0.00    +0.380 N 
ATOM     28  H   UNL     1      -2.507   4.364  -0.507  0.00  0.00    -0.082 HD
BRANCH  27  30
ATOM     29  C   UNL     1      -5.066   4.118  -0.439  0.00  0.00    -0.017 C 
ATOM     30  C   UNL     1      -4.033   3.152   0.146  0.00  0.00    -0.082 C 
ENDBRANCH  27  30
BRANCH  27  31
ATOM     31  C   UNL     1      -2.936   4.885   1.435  0.00  0.00    -0.082 C 
ATOM     32  C   UNL     1      -1.813   5.917   1.324  0.00  0.00    -0.017 C 
ENDBRANCH  27  31
ENDBRANCH  26  27
ENDBRANCH  25  26
ENDBRANCH   1  25
BRANCH   5  33
ATOM     33  O   UNL     1       4.540  -0.542   1.240  0.00  0.00    -0.490 OA
BRANCH  33  34
ATOM     34  C   UNL     1       5.774  -1.152   1.623  0.00  0.00    +0.226 C 
ATOM     35  C   UNL     1       5.607  -2.673   1.642  0.00  0.00    +0.048 C 
ENDBRANCH  33  34
ENDBRANCH   5  33
TORSDOF 10
