REMARK  Name = ZINC24290418
REMARK  7 active torsions:
REMARK  status: ('A' for Active; 'I' for Inactive)
REMARK    1  A    between atoms: C_1  and  C_2
REMARK    2  A    between atoms: C_3  and  C_26
REMARK    3  A    between atoms: C_4  and  C_25
REMARK    4  A    between atoms: C_7  and  C_8
REMARK    5  A    between atoms: N_10  and  N_11
REMARK    6  A    between atoms: C_12  and  C_14
REMARK    7  A    between atoms: C_26  and  C_28
REMARK                            x       y       z     vdW  Elec       q    Type
REMARK                         _______ _______ _______ _____ _____    ______ ____
ROOT
ATOM      1  C   UNL     1      -1.145   2.106   0.564  0.00  0.00    +0.277 C 
ATOM      2  O   UNL     1      -2.176   1.472   0.681  0.00  0.00    -0.267 OA
ATOM      3  N   UNL     1       0.045   1.488   0.701  0.00  0.00    -0.229 N 
ATOM      4  H   UNL     1       0.978   2.062   0.595  0.00  0.00    +0.173 HD
ENDROOT
BRANCH   1  11
ATOM      5  C   UNL     1      -3.747   3.782   0.187  0.00  0.00    +0.047 C 
ATOM      6  C   UNL     1      -2.328   4.284   0.108  0.00  0.00    -0.010 A 
ATOM      7  C   UNL     1      -1.919   5.615  -0.149  0.00  0.00    +0.041 A 
ATOM      8  C   UNL     1      -0.532   5.621  -0.137  0.00  0.00    +0.024 A 
ATOM      9  N   UNL     1      -0.107   4.375   0.118  0.00  0.00    -0.354 N 
ATOM     10  H   UNL     1       0.971   4.162   0.172  0.00  0.00    +0.166 HD
ATOM     11  C   UNL     1      -1.196   3.545   0.274  0.00  0.00    +0.107 A 
ATOM     12  C   UNL     1       0.346   6.823  -0.370  0.00  0.00    +0.064 C 
BRANCH   7  13
ATOM     13  C   UNL     1      -2.794   6.766  -0.388  0.00  0.00    +0.162 C 
ATOM     14  O   UNL     1      -3.092   7.076  -1.523  0.00  0.00    -0.292 OA
ATOM     15  C   UNL     1      -3.323   7.565   0.775  0.00  0.00    +0.091 C 
ENDBRANCH   7  13
ENDBRANCH   1  11
BRANCH   3  16
ATOM     16  N   UNL     1       0.095   0.116   0.977  0.00  0.00    -0.230 N 
ATOM     17  C   UNL     1       1.284  -0.503   1.108  0.00  0.00    +0.267 C 
ATOM     18  O   UNL     1       2.317   0.130   0.986  0.00  0.00    -0.268 OA
ATOM     19  H   UNL     1      -0.838  -0.457   1.087  0.00  0.00    +0.173 HD
BRANCH  17  20
ATOM     20  C   UNL     1       1.336  -1.939   1.397  0.00  0.00    +0.076 A 
ATOM     21  C   UNL     1       2.433  -2.756   1.562  0.00  0.00    +0.024 A 
ATOM     22  C   UNL     1       2.217  -4.106   1.852  0.00  0.00    -0.036 A 
ATOM     23  C   UNL     1       0.937  -4.528   1.882  0.00  0.00    -0.006 A 
ATOM     24  S   UNL     1      -0.004  -3.092   1.621  0.00  0.00    -0.088 S 
ATOM     25  C   UNL     1       0.313  -5.893   2.017  0.00  0.00    +0.043 C 
ATOM     26  C   UNL     1       1.361  -7.002   2.124  0.00  0.00    +0.005 C 
ATOM     27  C   UNL     1       1.917  -7.083   3.536  0.00  0.00    +0.000 C 
ATOM     28  C   UNL     1       2.090  -5.721   4.178  0.00  0.00    +0.000 C 
ATOM     29  C   UNL     1       3.446  -5.178   3.719  0.00  0.00    +0.005 C 
ATOM     30  C   UNL     1       3.413  -4.979   2.204  0.00  0.00    +0.036 C 
ENDBRANCH  17  20
ENDBRANCH   3  16
TORSDOF 4
