REMARK  Name = ZINC05291567
REMARK  4 active torsions:
REMARK  status: ('A' for Active; 'I' for Inactive)
REMARK    1  A    between atoms: C_4  and  O_7
REMARK    2  A    between atoms: O_7  and  C_8
REMARK    3  A    between atoms: C_13  and  C_14
REMARK    4  A    between atoms: C_14  and  N_15
REMARK                            x       y       z     vdW  Elec       q    Type
REMARK                         _______ _______ _______ _____ _____    ______ ____
ROOT
ATOM      1  C   UNL     1       1.555   4.020  -0.067  0.00  0.00    +0.156 C 
ENDROOT
BRANCH   1   2
ATOM      2  N   UNL     1       0.745   2.867  -0.468  0.00  0.00    -0.220 N 
ATOM      3  C   UNL     1      -0.588   2.910  -0.672  0.00  0.00    +0.247 C 
ATOM      4  O   UNL     1      -1.316   3.873  -0.562  0.00  0.00    -0.273 OA
ATOM      5  C   UNL     1      -0.981   1.507  -1.071  0.00  0.00    +0.113 C 
ATOM      6  C   UNL     1      -1.970   0.927  -0.066  0.00  0.00    +0.035 C 
ATOM      7  C   UNL     1      -2.327  -0.507  -0.468  0.00  0.00    +0.003 C 
ATOM      8  C   UNL     1      -2.940  -0.504  -1.870  0.00  0.00    +0.000 C 
ATOM      9  C   UNL     1      -1.929   0.060  -2.870  0.00  0.00    +0.003 C 
ATOM     10  C   UNL     1      -1.571   1.496  -2.477  0.00  0.00    +0.035 C 
ATOM     11  N   UNL     1       0.282   0.759  -1.038  0.00  0.00    -0.285 N 
ATOM     12  C   UNL     1       1.236   1.639  -0.678  0.00  0.00    +0.310 C 
ATOM     13  O   UNL     1       2.411   1.351  -0.557  0.00  0.00    -0.252 OA
ATOM     14  H   UNL     1       0.406  -0.182  -1.240  0.00  0.00    +0.151 HD
ENDBRANCH   1   2
BRANCH   1  20
ATOM     15  C   UNL     1       1.212   5.602  -1.983  0.00  0.00    +0.133 A 
ATOM     16  C   UNL     1       1.675   6.263  -3.112  0.00  0.00    +0.046 A 
ATOM     17  C   UNL     1       2.965   6.051  -3.555  0.00  0.00    +0.004 A 
ATOM     18  C   UNL     1       3.799   5.184  -2.872  0.00  0.00    +0.001 A 
ATOM     19  C   UNL     1       3.342   4.527  -1.744  0.00  0.00    +0.009 A 
ATOM     20  C   UNL     1       2.052   4.736  -1.296  0.00  0.00    +0.013 A 
BRANCH  15  21
ATOM     21  O   UNL     1      -0.059   5.804  -1.548  0.00  0.00    -0.456 OA
BRANCH  21  25
ATOM     22  C   UNL     1      -2.436   8.427  -3.667  0.00  0.00    +0.000 A 
ATOM     23  C   UNL     1      -2.406   7.089  -4.013  0.00  0.00    +0.004 A 
ATOM     24  C   UNL     1      -1.611   6.208  -3.305  0.00  0.00    +0.046 A 
ATOM     25  C   UNL     1      -0.842   6.668  -2.246  0.00  0.00    +0.128 A 
ATOM     26  C   UNL     1      -0.878   8.011  -1.897  0.00  0.00    +0.046 A 
ATOM     27  C   UNL     1      -1.670   8.888  -2.612  0.00  0.00    +0.004 A 
ENDBRANCH  21  25
ENDBRANCH  15  21
ENDBRANCH   1  20
TORSDOF 4
