REMARK  Name = ZINC23846700
REMARK  11 active torsions:
REMARK  status: ('A' for Active; 'I' for Inactive)
REMARK    1  A    between atoms: C_1  and  C_2
REMARK    2  A    between atoms: C_7  and  C_9
REMARK    3  A    between atoms: C_7  and  C_10
REMARK    4  A    between atoms: N_13  and  C_17
REMARK    5  A    between atoms: C_17  and  N_18
REMARK    6  A    between atoms: N_18  and  C_19
REMARK    7  A    between atoms: N_18  and  C_32
REMARK    8  A    between atoms: C_19  and  C_20
REMARK    9  A    between atoms: C_23  and  C_25
REMARK   10  A    between atoms: C_32  and  C_33
REMARK   11  A    between atoms: C_32  and  C_34
REMARK                            x       y       z     vdW  Elec       q    Type
REMARK                         _______ _______ _______ _____ _____    ______ ____
ROOT
ATOM      1  N   UNL     1      -0.540  -5.074  -2.687  0.00  0.00    +0.398 N 
ATOM      2  H   UNL     1       0.371  -5.325  -2.333  0.00  0.00    -0.078 HD
ENDROOT
BRANCH   1   3
ATOM      3  C   UNL     1      -1.572  -5.829  -1.963  0.00  0.00    -0.072 C 
ATOM      4  C   UNL     1      -2.890  -5.762  -2.736  0.00  0.00    -0.013 C 
ATOM      5  C   UNL     1      -1.134  -7.289  -1.826  0.00  0.00    -0.013 C 
ENDBRANCH   1   3
BRANCH   1   6
ATOM      6  C   UNL     1      -0.761  -3.635  -2.496  0.00  0.00    +0.044 C 
BRANCH   6  18
ATOM      7  C   UNL     1       3.288  -0.593   1.952  0.00  0.00    +0.007 C 
ATOM      8  C   UNL     1       2.615  -1.897   1.510  0.00  0.00    -0.011 C 
ATOM      9  C   UNL     1       1.101  -1.684   1.438  0.00  0.00    +0.038 C 
ATOM     10  C   UNL     1       0.427  -2.960   0.951  0.00  0.00    +0.113 C 
ATOM     11  C   UNL     1       0.796  -4.174   1.780  0.00  0.00    +0.041 C 
ATOM     12  C   UNL     1       2.270  -4.312   2.120  0.00  0.00    -0.032 C 
ATOM     13  C   UNL     1       2.903  -2.989   2.537  0.00  0.00    +0.009 C 
ATOM     14  C   UNL     1       2.396  -5.289   3.309  0.00  0.00    +0.011 C 
ATOM     15  C   UNL     1       3.043  -4.918   0.945  0.00  0.00    +0.011 C 
ATOM     16  C   UNL     1       0.680  -3.175  -0.520  0.00  0.00    +0.245 C 
ATOM     17  O   UNL     1       1.744  -3.216  -1.101  0.00  0.00    -0.273 OA
ATOM     18  N   UNL     1      -0.540  -3.290  -1.090  0.00  0.00    -0.241 N 
ATOM     19  C   UNL     1      -1.516  -3.049  -0.208  0.00  0.00    +0.308 C 
ATOM     20  O   UNL     1      -2.700  -3.077  -0.486  0.00  0.00    -0.252 OA
ATOM     21  N   UNL     1      -1.040  -2.774   1.018  0.00  0.00    -0.285 N 
ATOM     22  H   UNL     1      -1.545  -2.507   1.800  0.00  0.00    +0.151 HD
ENDBRANCH   6  18
ENDBRANCH   1   6
BRANCH   1  23
ATOM     23  C   UNL     1      -0.613  -5.395  -4.119  0.00  0.00    +0.023 C 
BRANCH  23  24
ATOM     24  C   UNL     1      -0.123  -6.802  -4.344  0.00  0.00    +0.202 A 
ATOM     25  N   UNL     1      -0.841  -7.811  -4.755  0.00  0.00    -0.114 NA
ATOM     26  N   UNL     1      -0.101  -8.860  -4.836  0.00  0.00    -0.107 NA
ATOM     27  C   UNL     1       1.124  -8.555  -4.476  0.00  0.00    +0.248 A 
ATOM     28  O   UNL     1       1.133  -7.244  -4.163  0.00  0.00    -0.422 OA
BRANCH  27  29
ATOM     29  C   UNL     1       2.279  -9.476  -4.428  0.00  0.00    +0.039 A 
ATOM     30  C   UNL     1       3.529  -9.012  -4.017  0.00  0.00    +0.014 A 
ATOM     31  C   UNL     1       4.603  -9.876  -3.974  0.00  0.00    +0.021 A 
ATOM     32  C   UNL     1       4.443 -11.203  -4.338  0.00  0.00    +0.041 A 
ATOM     33  C   UNL     1       3.205 -11.669  -4.747  0.00  0.00    +0.021 A 
ATOM     34  C   UNL     1       2.122 -10.816  -4.789  0.00  0.00    +0.014 A 
ATOM     35 CL   UNL     1       5.799 -12.285  -4.281  0.00  0.00    -0.084 Cl
ENDBRANCH  27  29
ENDBRANCH  23  24
ENDBRANCH   1  23
TORSDOF 6
