REMARK  Name = ZINC39458481
REMARK  3 active torsions:
REMARK  status: ('A' for Active; 'I' for Inactive)
REMARK    1  A    between atoms: C_1  and  C_2
REMARK    2  A    between atoms: C_3  and  C_19
REMARK    3  A    between atoms: C_24  and  O_25
REMARK                            x       y       z     vdW  Elec       q    Type
REMARK                         _______ _______ _______ _____ _____    ______ ____
ROOT
ATOM      1  C   UNL     1      -0.018   1.503   0.010  0.00  0.00    +0.065 C 
ATOM      2  C   UNL     1       0.002  -0.004   0.002  0.00  0.00    +0.036 A 
ATOM      3  C   UNL     1       0.008  -0.801  -1.121  0.00  0.00    +0.011 A 
ATOM      4  C   UNL     1       0.029  -2.132  -0.684  0.00  0.00    -0.011 A 
ATOM      5  C   UNL     1       0.025  -2.120   0.700  0.00  0.00    +0.081 A 
ATOM      6  N   UNL     1       0.024  -0.796   1.093  0.00  0.00    -0.278 N 
ATOM      7 BR   UNL     1       0.043  -0.202   2.845  0.00  0.00    +0.055 Br
ATOM      8  C   UNL     1       0.012  -3.265   1.608  0.00  0.00    +0.078 A 
ATOM      9  C   UNL     1       0.618  -4.490   1.342  0.00  0.00    +0.089 A 
ATOM     10  C   UNL     1       0.592  -5.510   2.418  0.00  0.00    +0.193 A 
ATOM     11  C   UNL     1      -0.087  -5.217   3.621  0.00  0.00    +0.069 A 
ATOM     12  C   UNL     1      -0.690  -4.022   3.771  0.00  0.00    +0.087 A 
ATOM     13  N   UNL     1      -0.650  -3.082   2.799  0.00  0.00    -0.359 N 
ATOM     14  O   UNL     1       1.150  -6.586   2.267  0.00  0.00    -0.287 OA
ATOM     15  C   UNL     1       1.209  -4.897   0.137  0.00  0.00    +0.169 C 
ATOM     16  O   UNL     1       1.730  -5.994   0.158  0.00  0.00    -0.292 OA
ATOM     17  C   UNL     1       1.288  -4.188  -1.141  0.00  0.00    +0.084 C 
ATOM     18  C   UNL     1       0.065  -3.380  -1.510  0.00  0.00    +0.046 C 
ATOM     19  H   UNL     1      -1.110  -2.242   2.949  0.00  0.00    +0.165 HD
ENDROOT
BRANCH   3  20
ATOM     20  C   UNL     1      -0.007  -0.336  -2.531  0.00  0.00    +0.026 A 
ATOM     21  C   UNL     1       1.190  -0.105  -3.204  0.00  0.00    +0.012 A 
ATOM     22  C   UNL     1       1.171   0.326  -4.515  0.00  0.00    +0.001 A 
ATOM     23  C   UNL     1      -0.033   0.531  -5.164  0.00  0.00    +0.004 A 
ATOM     24  C   UNL     1      -1.227   0.305  -4.505  0.00  0.00    +0.046 A 
ATOM     25  C   UNL     1      -1.222  -0.134  -3.191  0.00  0.00    +0.125 A 
BRANCH  25  26
ATOM     26  O   UNL     1      -2.395  -0.362  -2.543  0.00  0.00    -0.506 OA
ATOM     27  H   UNL     1      -2.745   0.411  -2.080  0.00  0.00    +0.292 HD
ENDBRANCH  25  26
ENDBRANCH   3  20
TORSDOF 2
