REMARK  Name = ZINC39324798
REMARK  11 active torsions:
REMARK  status: ('A' for Active; 'I' for Inactive)
REMARK    1  A    between atoms: C_1  and  C_2
REMARK    2  A    between atoms: C_5  and  C_35
REMARK    3  A    between atoms: C_10  and  C_14
REMARK    4  A    between atoms: C_14  and  N_15
REMARK    5  A    between atoms: N_15  and  C_16
REMARK    6  A    between atoms: N_15  and  S_23
REMARK    7  A    between atoms: C_16  and  C_17
REMARK    8  A    between atoms: S_23  and  C_26
REMARK    9  A    between atoms: C_27  and  C_34
REMARK   10  A    between atoms: C_29  and  C_33
REMARK   11  A    between atoms: C_31  and  C_32
REMARK                            x       y       z     vdW  Elec       q    Type
REMARK                         _______ _______ _______ _____ _____    ______ ____
ROOT
ATOM      1  N   UNL     1      -0.012  -0.678   5.852  0.00  0.00    -0.171 NA
ENDROOT
BRANCH   1   2
ATOM      2  S   UNL     1      -0.543  -2.217   5.550  0.00  0.00    +0.062 S 
ATOM      3  O   UNL     1      -1.591  -2.105   4.597  0.00  0.00    -0.153 OA
ATOM      4  O   UNL     1       0.614  -3.009   5.320  0.00  0.00    -0.153 OA
BRANCH   2   5
ATOM      5  C   UNL     1      -1.276  -2.817   7.036  0.00  0.00    +0.111 A 
ATOM      6  C   UNL     1      -2.576  -2.470   7.354  0.00  0.00    -0.024 A 
ATOM      7  C   UNL     1      -3.151  -2.940   8.520  0.00  0.00    +0.008 A 
ATOM      8  C   UNL     1      -2.427  -3.757   9.367  0.00  0.00    -0.050 A 
ATOM      9  C   UNL     1      -1.128  -4.105   9.048  0.00  0.00    +0.008 A 
ATOM     10  C   UNL     1      -0.554  -3.638   7.880  0.00  0.00    -0.024 A 
ATOM     11  C   UNL     1       0.861  -4.022   7.530  0.00  0.00    +0.046 C 
ATOM     12  C   UNL     1      -3.054  -4.269  10.639  0.00  0.00    +0.044 C 
ATOM     13  C   UNL     1      -3.366  -1.578   6.431  0.00  0.00    +0.046 C 
ENDBRANCH   2   5
ENDBRANCH   1   2
BRANCH   1  14
ATOM     14  C   UNL     1      -0.746   0.469   5.314  0.00  0.00    +0.126 C 
BRANCH  14  24
ATOM     15  C   UNL     1      -1.940   4.890   2.985  0.00  0.00    +0.044 C 
ATOM     16  C   UNL     1      -1.708   3.744   2.035  0.00  0.00    -0.042 A 
ATOM     17  C   UNL     1      -2.110   3.827   0.740  0.00  0.00    +0.004 A 
ATOM     18  C   UNL     1      -1.903   2.776  -0.154  0.00  0.00    +0.005 A 
ATOM     19  C   UNL     1      -1.295   1.616   0.206  0.00  0.00    -0.029 A 
ATOM     20  C   UNL     1      -0.840   1.428   1.525  0.00  0.00    +0.043 A 
ATOM     21  N   UNL     1      -0.245   0.285   1.867  0.00  0.00    -0.284 N 
ATOM     22  C   UNL     1       0.205   0.043   3.086  0.00  0.00    +0.225 C 
ATOM     23  O   UNL     1       0.742  -1.020   3.339  0.00  0.00    -0.275 OA
ATOM     24  C   UNL     1       0.051   1.091   4.165  0.00  0.00    +0.114 C 
ATOM     25  C   UNL     1      -0.626   2.392   3.781  0.00  0.00    -0.003 C 
ATOM     26  C   UNL     1      -1.040   2.523   2.489  0.00  0.00    -0.004 A 
ATOM     27  C   UNL     1      -1.106   0.523  -0.813  0.00  0.00    +0.045 C 
ATOM     28  H   UNL     1      -0.136  -0.400   1.189  0.00  0.00    +0.155 HD
ENDBRANCH  14  24
ENDBRANCH   1  14
BRANCH   1  29
ATOM     29  C   UNL     1       1.193  -0.465   6.658  0.00  0.00    +0.144 C 
BRANCH  29  30
ATOM     30  C   UNL     1       0.816   0.196   7.959  0.00  0.00    -0.032 A 
ATOM     31  C   UNL     1       0.784   1.575   8.050  0.00  0.00    +0.005 A 
ATOM     32  C   UNL     1       0.438   2.181   9.243  0.00  0.00    +0.000 A 
ATOM     33  C   UNL     1       0.124   1.408  10.346  0.00  0.00    +0.000 A 
ATOM     34  C   UNL     1       0.155   0.029  10.254  0.00  0.00    +0.000 A 
ATOM     35  C   UNL     1       0.497  -0.577   9.060  0.00  0.00    +0.005 A 
ENDBRANCH  29  30
ENDBRANCH   1  29
TORSDOF 6
