REMARK  Name = ZINC39668274
REMARK  7 active torsions:
REMARK  status: ('A' for Active; 'I' for Inactive)
REMARK    1  A    between atoms: C_1  and  C_2
REMARK    2  A    between atoms: C_2  and  C_3
REMARK    3  A    between atoms: C_3  and  C_5
REMARK    4  A    between atoms: C_3  and  C_11
REMARK    5  A    between atoms: C_15  and  C_24
REMARK    6  A    between atoms: N_26  and  C_27
REMARK    7  A    between atoms: C_27  and  C_28
REMARK                            x       y       z     vdW  Elec       q    Type
REMARK                         _______ _______ _______ _____ _____    ______ ____
ROOT
ATOM      1  C   UNL     1      -1.256  -1.766   0.167  0.00  0.00    +0.223 C 
ATOM      2  O   UNL     1      -1.747  -2.364  -0.766  0.00  0.00    -0.275 OA
ATOM      3  N   UNL     1      -0.747  -2.447   1.212  0.00  0.00    -0.300 N 
ATOM      4  C   UNL     1      -0.118  -1.897   2.436  0.00  0.00    +0.121 C 
ATOM      5  C   UNL     1      -0.626  -2.806   3.578  0.00  0.00    +0.100 C 
ATOM      6  C   UNL     1      -0.998  -4.130   2.891  0.00  0.00    -0.004 C 
ATOM      7  C   UNL     1      -0.695  -3.917   1.400  0.00  0.00    +0.115 C 
ATOM      8  C   UNL     1      -2.481  -4.428   3.084  0.00  0.00    -0.010 C 
ATOM      9  C   UNL     1      -2.815  -5.777   2.441  0.00  0.00    -0.082 C 
ATOM     10  N   UNL     1      -1.999  -6.830   3.058  0.00  0.00    +0.379 N 
ATOM     11  C   UNL     1      -0.577  -6.585   2.787  0.00  0.00    -0.082 C 
ATOM     12  C   UNL     1      -0.149  -5.270   3.445  0.00  0.00    -0.010 C 
ATOM     13  H   UNL     1      -2.155  -6.833   4.055  0.00  0.00    -0.086 HD
ATOM     14  H   UNL     1      -2.263  -7.726   2.676  0.00  0.00    -0.086 HD
ENDROOT
BRANCH   5  15
ATOM     15  C   UNL     1      -1.837  -2.195   4.235  0.00  0.00    +0.218 C 
ATOM     16  O   UNL     1      -2.589  -1.495   3.590  0.00  0.00    -0.275 OA
ATOM     17  N   UNL     1      -2.085  -2.426   5.540  0.00  0.00    -0.311 N 
ATOM     18  H   UNL     1      -1.484  -2.986   6.056  0.00  0.00    +0.149 HD
BRANCH  17  19
ATOM     19  C   UNL     1      -3.262  -1.833   6.178  0.00  0.00    +0.139 C 
BRANCH  19  20
ATOM     20  C   UNL     1      -3.308  -2.244   7.628  0.00  0.00    -0.030 A 
ATOM     21  C   UNL     1      -3.969  -3.399   8.001  0.00  0.00    +0.009 A 
ATOM     22  C   UNL     1      -4.011  -3.782   9.325  0.00  0.00    +0.046 A 
ATOM     23  C   UNL     1      -3.386  -3.007  10.299  0.00  0.00    +0.124 A 
ATOM     24  C   UNL     1      -2.732  -1.844   9.913  0.00  0.00    -0.002 A 
ATOM     25  C   UNL     1      -2.684  -1.469   8.589  0.00  0.00    +0.012 A 
ATOM     26  C   UNL     1      -2.178  -1.207  11.173  0.00  0.00    +0.080 C 
ATOM     27  C   UNL     1      -2.956  -1.957  12.280  0.00  0.00    +0.234 C 
ATOM     28  O   UNL     1      -3.294  -3.201  11.643  0.00  0.00    -0.491 OA
ENDBRANCH  19  20
ENDBRANCH  17  19
ENDBRANCH   5  15
BRANCH   1  29
ATOM     29  C   UNL     1      -1.216  -0.259   0.159  0.00  0.00    +0.105 C 
BRANCH  29  30
ATOM     30  C   UNL     1      -1.844   0.253  -1.112  0.00  0.00    -0.036 A 
ATOM     31  C   UNL     1      -1.316  -0.107  -2.338  0.00  0.00    +0.004 A 
ATOM     32  C   UNL     1      -1.893   0.363  -3.503  0.00  0.00    +0.000 A 
ATOM     33  C   UNL     1      -2.997   1.192  -3.442  0.00  0.00    +0.000 A 
ATOM     34  C   UNL     1      -3.525   1.551  -2.216  0.00  0.00    +0.000 A 
ATOM     35  C   UNL     1      -2.952   1.078  -1.051  0.00  0.00    +0.004 A 
ENDBRANCH  29  30
BRANCH  29  37
ATOM     36  C   UNL     1       0.274   1.738   0.352  0.00  0.00    +0.005 C 
ATOM     37  C   UNL     1       0.238   0.212   0.235  0.00  0.00    +0.014 C 
ENDBRANCH  29  37
ENDBRANCH   1  29
TORSDOF 6
