REMARK  Name = ZINC13047114
REMARK  12 active torsions:
REMARK  status: ('A' for Active; 'I' for Inactive)
REMARK    1  A    between atoms: C_1  and  C_2
REMARK    2  A    between atoms: C_2  and  O_3
REMARK    3  A    between atoms: O_3  and  C_4
REMARK    4  A    between atoms: C_9  and  N_10
REMARK    5  A    between atoms: C_11  and  C_13
REMARK    6  A    between atoms: C_13  and  S_14
REMARK    7  A    between atoms: S_14  and  C_15
REMARK    8  A    between atoms: C_19  and  C_29
REMARK    9  A    between atoms: N_25  and  C_26
REMARK   10  A    between atoms: C_26  and  C_27
REMARK   11  A    between atoms: C_27  and  O_28
REMARK   12  A    between atoms: C_32  and  C_35
REMARK                            x       y       z     vdW  Elec       q    Type
REMARK                         _______ _______ _______ _____ _____    ______ ____
ROOT
ATOM      1  S   UNL     1       0.747  -6.684   0.270  0.00  0.00    -0.078 S 
ENDROOT
BRANCH   1   2
ATOM      2  C   UNL     1       2.371  -7.360   0.367  0.00  0.00    +0.173 A 
ATOM      3  N   UNL     1       3.392  -6.539   0.338  0.00  0.00    -0.223 NA
ATOM      4  C   UNL     1       4.666  -6.990   0.413  0.00  0.00    +0.080 A 
ATOM      5  C   UNL     1       5.754  -6.112   0.388  0.00  0.00    +0.043 A 
ATOM      6  C   UNL     1       7.044  -6.621   0.463  0.00  0.00    +0.065 A 
ATOM      7  C   UNL     1       7.258  -8.002   0.563  0.00  0.00    +0.016 A 
ATOM      8  C   UNL     1       6.204  -8.869   0.588  0.00  0.00    +0.016 A 
ATOM      9  C   UNL     1       4.900  -8.380   0.514  0.00  0.00    +0.065 A 
ATOM     10  C   UNL     1       3.735  -9.279   0.539  0.00  0.00    +0.262 A 
ATOM     11  O   UNL     1       3.871 -10.485   0.624  0.00  0.00    -0.267 OA
ATOM     12  N   UNL     1       2.508  -8.715   0.463  0.00  0.00    -0.285 N 
BRANCH   6  13
ATOM     13  C   UNL     1       8.200  -5.699   0.437  0.00  0.00    +0.387 C 
ATOM     14  O   UNL     1       8.020  -4.501   0.350  0.00  0.00    -0.241 OA
ATOM     15  O   UNL     1       9.454  -6.187   0.509  0.00  0.00    -0.241 OA
ENDBRANCH   6  13
BRANCH  12  16
ATOM     16  C   UNL     1       1.315  -9.566   0.484  0.00  0.00    +0.155 C 
BRANCH  16  17
ATOM     17  C   UNL     1       0.945  -9.959  -0.948  0.00  0.00    +0.177 C 
BRANCH  17  18
ATOM     18  O   UNL     1       1.980 -10.774  -1.501  0.00  0.00    -0.393 OA
ATOM     19  H   UNL     1       1.812 -11.061  -2.409  0.00  0.00    +0.209 HD
ENDBRANCH  17  18
ENDBRANCH  16  17
ENDBRANCH  12  16
ENDBRANCH   1   2
BRANCH   1  20
ATOM     20  C   UNL     1       1.146  -4.921   0.163  0.00  0.00    +0.173 C 
BRANCH  20  22
ATOM     21  N   UNL     1      -0.077  -2.779  -0.021  0.00  0.00    -0.282 N 
ATOM     22  C   UNL     1      -0.129  -4.123   0.069  0.00  0.00    +0.228 C 
ATOM     23  O   UNL     1      -1.201  -4.689   0.073  0.00  0.00    -0.275 OA
ATOM     24  H   UNL     1       0.779  -2.331  -0.105  0.00  0.00    +0.155 HD
BRANCH  21  30
ATOM     25  C   UNL     1      -1.295  -0.765  -0.575  0.00  0.00    +0.142 A 
ATOM     26  C   UNL     1      -2.470  -0.029  -0.545  0.00  0.00    +0.055 A 
ATOM     27  C   UNL     1      -3.593  -0.548   0.064  0.00  0.00    +0.001 A 
ATOM     28  C   UNL     1      -3.571  -1.808   0.649  0.00  0.00    +0.126 A 
ATOM     29  C   UNL     1      -2.390  -2.544   0.622  0.00  0.00    +0.073 A 
ATOM     30  C   UNL     1      -1.260  -2.029   0.009  0.00  0.00    +0.079 A 
ATOM     31  O   UNL     1      -4.785  -2.128   1.176  0.00  0.00    -0.488 OA
ATOM     32  C   UNL     1      -5.555  -0.928   1.356  0.00  0.00    +0.175 C 
ATOM     33  C   UNL     1      -4.989   0.009   0.262  0.00  0.00    +0.083 C 
ATOM     34  C   UNL     1      -5.322  -0.338   2.748  0.00  0.00    +0.052 C 
BRANCH  25  35
ATOM     35  O   UNL     1      -0.185  -0.257  -1.176  0.00  0.00    -0.490 OA
BRANCH  35  37
ATOM     36  C   UNL     1       1.039   1.443  -2.381  0.00  0.00    +0.048 C 
ATOM     37  C   UNL     1      -0.300   1.043  -1.758  0.00  0.00    +0.226 C 
ENDBRANCH  35  37
ENDBRANCH  25  35
ENDBRANCH  21  30
ENDBRANCH  20  22
ENDBRANCH   1  20
TORSDOF 10
