REMARK  Name = ZINC02202284
REMARK  7 active torsions:
REMARK  status: ('A' for Active; 'I' for Inactive)
REMARK    1  A    between atoms: C_1  and  C_2
REMARK    2  A    between atoms: C_3  and  C_27
REMARK    3  A    between atoms: N_6  and  C_7
REMARK    4  A    between atoms: N_13  and  C_20
REMARK    5  A    between atoms: C_15  and  C_17
REMARK    6  A    between atoms: C_17  and  C_19
REMARK    7  A    between atoms: C_27  and  C_29
REMARK                            x       y       z     vdW  Elec       q    Type
REMARK                         _______ _______ _______ _____ _____    ______ ____
ROOT
ATOM      1  C   UNL     1       3.189   0.782   6.147  0.00  0.00    +0.062 C 
ATOM      2  C   UNL     1       1.699   0.643   6.325  0.00  0.00    +0.028 C 
ATOM      3  C   UNL     1       1.223   0.002   7.428  0.00  0.00    +0.071 C 
ATOM      4  S   UNL     1      -0.553   0.078   7.212  0.00  0.00    -0.061 S 
ATOM      5  C   UNL     1      -0.544   0.982   5.628  0.00  0.00    +0.233 C 
ATOM      6  N   UNL     1       0.875   1.158   5.382  0.00  0.00    -0.262 N 
ATOM      7  N   UNL     1      -1.300   0.306   4.587  0.00  0.00    -0.180 N 
ATOM      8  N   UNL     1      -2.375   1.029   4.095  0.00  0.00    -0.166 NA
ATOM      9  C   UNL     1      -2.680   2.230   4.525  0.00  0.00    +0.162 C 
ATOM     10  S   UNL     1      -1.444   2.562   5.776  0.00  0.00    -0.042 S 
ENDROOT
BRANCH   7  11
ATOM     11  C   UNL     1      -0.973  -0.969   4.125  0.00  0.00    +0.056 A 
ATOM     12  C   UNL     1       0.119  -1.644   4.658  0.00  0.00    +0.026 A 
ATOM     13  C   UNL     1       0.436  -2.908   4.202  0.00  0.00    +0.017 A 
ATOM     14  C   UNL     1      -0.324  -3.498   3.207  0.00  0.00    +0.018 A 
ATOM     15  C   UNL     1      -1.408  -2.826   2.670  0.00  0.00    +0.017 A 
ATOM     16  C   UNL     1      -1.734  -1.564   3.126  0.00  0.00    +0.026 A 
ATOM     17 BR   UNL     1       0.119  -5.226   2.581  0.00  0.00    -0.050 Br
ENDBRANCH   7  11
BRANCH   6  18
ATOM     18  C   UNL     1       1.359   1.815   4.249  0.00  0.00    +0.037 A 
ATOM     19  C   UNL     1       1.755   1.084   3.136  0.00  0.00    +0.023 A 
ATOM     20  C   UNL     1       2.227   1.737   2.014  0.00  0.00    +0.002 A 
ATOM     21  C   UNL     1       2.317   3.117   2.003  0.00  0.00    +0.000 A 
ATOM     22  C   UNL     1       1.930   3.848   3.111  0.00  0.00    +0.002 A 
ATOM     23  C   UNL     1       1.451   3.201   4.234  0.00  0.00    +0.023 A 
ENDBRANCH   6  18
BRANCH   9  24
ATOM     24  C   UNL     1      -3.741   3.067   4.102  0.00  0.00    +0.186 C 
ATOM     25  O   UNL     1      -3.892   4.160   4.609  0.00  0.00    -0.290 OA
ATOM     26  C   UNL     1      -4.684   2.600   3.023  0.00  0.00    +0.094 C 
ENDBRANCH   9  24
BRANCH   3  27
ATOM     27  C   UNL     1       1.950  -0.579   8.482  0.00  0.00    +0.168 C 
ATOM     28  O   UNL     1       3.159  -0.457   8.527  0.00  0.00    -0.292 OA
ATOM     29  C   UNL     1       1.232  -1.354   9.557  0.00  0.00    +0.092 C 
ENDBRANCH   3  27
TORSDOF 4
