REMARK  Name = ZINC56921170
REMARK  7 active torsions:
REMARK  status: ('A' for Active; 'I' for Inactive)
REMARK    1  A    between atoms: C_1  and  C_2
REMARK    2  A    between atoms: C_5  and  N_12
REMARK    3  A    between atoms: C_8  and  C_10
REMARK    4  A    between atoms: C_8  and  C_11
REMARK    5  A    between atoms: C_13  and  C_15
REMARK    6  A    between atoms: C_15  and  C_18
REMARK    7  A    between atoms: C_20  and  C_23
REMARK                            x       y       z     vdW  Elec       q    Type
REMARK                         _______ _______ _______ _____ _____    ______ ____
ROOT
ATOM      1  C   UNL     1       1.470  -3.009  -4.891  0.00  0.00    +0.092 C 
ATOM      2  C   UNL     1       0.823  -4.088  -5.761  0.00  0.00    +0.024 C 
ATOM      3  C   UNL     1       2.099  -4.401  -4.977  0.00  0.00    +0.024 C 
ENDROOT
BRANCH   1   4
ATOM      4  C   UNL     1       2.179  -1.880  -5.594  0.00  0.00    +0.099 A 
ATOM      5  C   UNL     1       1.659  -0.598  -5.821  0.00  0.00    +0.077 A 
ATOM      6  C   UNL     1       2.601   0.128  -6.483  0.00  0.00    +0.168 A 
ATOM      7  O   UNL     1       3.674  -0.666  -6.667  0.00  0.00    -0.354 OA
ATOM      8  N   UNL     1       3.384  -1.927  -6.091  0.00  0.00    -0.082 NA
BRANCH   6   9
ATOM      9  C   UNL     1       2.471   1.533  -6.921  0.00  0.00    +0.024 A 
ATOM     10  C   UNL     1       1.298   2.242  -6.658  0.00  0.00    +0.015 A 
ATOM     11  C   UNL     1       1.178   3.553  -7.068  0.00  0.00    +0.050 A 
ATOM     12  C   UNL     1       2.221   4.172  -7.743  0.00  0.00    +0.166 A 
ATOM     13  C   UNL     1       3.395   3.469  -8.009  0.00  0.00    +0.167 A 
ATOM     14  C   UNL     1       3.523   2.156  -7.595  0.00  0.00    +0.061 A 
ATOM     15  O   UNL     1       4.255   4.293  -8.676  0.00  0.00    -0.453 OA
ATOM     16  C   UNL     1       3.443   5.372  -9.175  0.00  0.00    +0.466 C 
ATOM     17  O   UNL     1       2.347   5.435  -8.244  0.00  0.00    -0.453 OA
ENDBRANCH   6   9
ENDBRANCH   1   4
BRANCH   1  19
ATOM     18  N   UNL     1       1.477  -2.530  -2.464  0.00  0.00    -0.312 N 
ATOM     19  C   UNL     1       0.772  -2.638  -3.607  0.00  0.00    +0.225 C 
ATOM     20  O   UNL     1      -0.424  -2.438  -3.604  0.00  0.00    -0.275 OA
ATOM     21  H   UNL     1       2.419  -2.761  -2.451  0.00  0.00    +0.149 HD
BRANCH  18  25
ATOM     22  C   UNL     1       0.135   1.482   0.094  0.00  0.00    +0.007 C 
ATOM     23  C   UNL     1       0.135  -0.048   0.066  0.00  0.00    -0.012 C 
ATOM     24  C   UNL     1       0.821  -0.534  -1.212  0.00  0.00    +0.025 C 
ATOM     25  C   UNL     1       0.821  -2.064  -1.240  0.00  0.00    +0.074 C 
ATOM     26  C   UNL     1       1.577  -2.596  -0.021  0.00  0.00    +0.028 C 
ATOM     27  C   UNL     1       0.892  -2.110   1.257  0.00  0.00    -0.033 C 
ATOM     28  C   UNL     1       0.892  -0.580   1.285  0.00  0.00    +0.009 C 
ATOM     29  C   UNL     1       1.648  -2.642   2.476  0.00  0.00    +0.011 C 
ATOM     30  C   UNL     1      -0.550  -2.620   1.289  0.00  0.00    +0.011 C 
ENDBRANCH  18  25
ENDBRANCH   1  19
TORSDOF 4
