REMARK  Name = ZINC21529392
REMARK  8 active torsions:
REMARK  status: ('A' for Active; 'I' for Inactive)
REMARK    1  A    between atoms: C_1  and  C_2
REMARK    2  A    between atoms: C_2  and  C_3
REMARK    3  A    between atoms: C_2  and  C_4
REMARK    4  A    between atoms: C_4  and  C_6
REMARK    5  A    between atoms: C_4  and  N_25
REMARK    6  A    between atoms: N_15  and  C_18
REMARK    7  A    between atoms: C_18  and  C_19
REMARK    8  A    between atoms: C_26  and  C_28
REMARK                            x       y       z     vdW  Elec       q    Type
REMARK                         _______ _______ _______ _____ _____    ______ ____
ROOT
ATOM      1  C   UNL     1      -2.074  -0.231  -1.335  0.00  0.00    +0.239 C 
ATOM      2  O   UNL     1      -2.498  -1.081  -2.088  0.00  0.00    -0.273 OA
ATOM      3  N   UNL     1      -2.204   1.073  -1.649  0.00  0.00    -0.263 N 
ATOM      4  C   UNL     1      -2.739   1.442  -2.877  0.00  0.00    +0.165 A 
ATOM      5  N   UNL     1      -3.174   0.665  -3.846  0.00  0.00    -0.229 NA
ATOM      6  C   UNL     1      -3.664   1.162  -4.975  0.00  0.00    +0.050 A 
ATOM      7  C   UNL     1      -3.677   2.520  -5.047  0.00  0.00    -0.002 A 
ATOM      8  S   UNL     1      -2.996   2.994  -3.485  0.00  0.00    -0.059 S 
ATOM      9  C   UNL     1      -4.160   3.351  -6.185  0.00  0.00    -0.033 C 
ATOM     10  N   UNL     1      -4.282   2.482  -7.372  0.00  0.00    +0.386 N 
ATOM     11  C   UNL     1      -5.042   1.275  -7.022  0.00  0.00    -0.072 C 
ATOM     12  C   UNL     1      -4.194   0.346  -6.146  0.00  0.00    +0.038 C 
ATOM     13  H   UNL     1      -1.924   1.754  -1.018  0.00  0.00    +0.157 HD
ATOM     14  H   UNL     1      -3.362   2.219  -7.692  0.00  0.00    -0.081 HD
ENDROOT
BRANCH   1  15
ATOM     15  C   UNL     1      -1.402  -0.632  -0.047  0.00  0.00    +0.162 C 
BRANCH  15  16
ATOM     16  N   UNL     1      -1.770  -2.011   0.287  0.00  0.00    -0.300 N 
ATOM     17  C   UNL     1      -1.734  -2.426   1.569  0.00  0.00    +0.250 C 
ATOM     18  O   UNL     1      -1.396  -1.657   2.448  0.00  0.00    -0.270 OA
ATOM     19  H   UNL     1      -2.040  -2.624  -0.414  0.00  0.00    +0.150 HD
BRANCH  17  20
ATOM     20  C   UNL     1      -2.105  -3.814   1.905  0.00  0.00    +0.107 A 
ATOM     21  C   UNL     1      -1.130  -4.817   1.927  0.00  0.00    +0.138 A 
ATOM     22  C   UNL     1      -1.486  -6.114   2.244  0.00  0.00    +0.039 A 
ATOM     23  C   UNL     1      -2.802  -6.422   2.538  0.00  0.00    +0.006 A 
ATOM     24  C   UNL     1      -3.772  -5.437   2.518  0.00  0.00    +0.039 A 
ATOM     25  C   UNL     1      -3.433  -4.133   2.209  0.00  0.00    +0.138 A 
ATOM     26  F   UNL     1      -4.381  -3.171   2.195  0.00  0.00    -0.205 F 
ATOM     27  F   UNL     1       0.156  -4.518   1.640  0.00  0.00    -0.205 F 
ENDBRANCH  17  20
ENDBRANCH  15  16
BRANCH  15  29
ATOM     28  C   UNL     1       0.796  -0.866   1.118  0.00  0.00    +0.009 C 
ATOM     29  C   UNL     1       0.116  -0.536  -0.212  0.00  0.00    +0.012 C 
ATOM     30  C   UNL     1       0.577  -1.530  -1.280  0.00  0.00    +0.009 C 
ENDBRANCH  15  29
ENDBRANCH   1  15
BRANCH  10  31
ATOM     31  C   UNL     1      -4.982   3.208  -8.440  0.00  0.00    -0.043 C 
BRANCH  31  32
ATOM     32  C   UNL     1      -4.143   4.377  -8.886  0.00  0.00    -0.064 A 
ATOM     33  C   UNL     1      -4.285   5.606  -8.268  0.00  0.00    +0.002 A 
ATOM     34  C   UNL     1      -3.515   6.678  -8.677  0.00  0.00    +0.000 A 
ATOM     35  C   UNL     1      -2.603   6.523  -9.704  0.00  0.00    +0.000 A 
ATOM     36  C   UNL     1      -2.460   5.294 -10.322  0.00  0.00    +0.000 A 
ATOM     37  C   UNL     1      -3.227   4.221  -9.910  0.00  0.00    +0.002 A 
ENDBRANCH  31  32
ENDBRANCH  10  31
TORSDOF 6
