REMARK  Name = ZINC39943286
REMARK  4 active torsions:
REMARK  status: ('A' for Active; 'I' for Inactive)
REMARK    1  A    between atoms: C_1  and  C_2
REMARK    2  A    between atoms: C_4  and  C_12
REMARK    3  A    between atoms: C_13  and  C_14
REMARK    4  A    between atoms: N_24  and  C_25
REMARK                            x       y       z     vdW  Elec       q    Type
REMARK                         _______ _______ _______ _____ _____    ______ ____
ROOT
ATOM      1  C   UNL     1      -4.565  -1.163  -2.005  0.00  0.00    +0.141 A 
ATOM      2  N   UNL     1      -4.254  -0.524  -3.108  0.00  0.00    -0.229 NA
ATOM      3  C   UNL     1      -5.198  -0.067  -3.950  0.00  0.00    +0.079 A 
ATOM      4  C   UNL     1      -4.861   0.614  -5.126  0.00  0.00    +0.029 A 
ATOM      5  C   UNL     1      -5.847   1.063  -5.957  0.00  0.00    +0.016 A 
ATOM      6  C   UNL     1      -7.187   0.856  -5.654  0.00  0.00    +0.014 A 
ATOM      7  C   UNL     1      -7.551   0.189  -4.502  0.00  0.00    +0.029 A 
ATOM      8  C   UNL     1      -6.563  -0.279  -3.640  0.00  0.00    +0.066 A 
ATOM      9  C   UNL     1      -6.892  -0.996  -2.399  0.00  0.00    +0.267 A 
ATOM     10  O   UNL     1      -8.048  -1.208  -2.080  0.00  0.00    -0.267 OA
ATOM     11  N   UNL     1      -5.863  -1.417  -1.628  0.00  0.00    -0.261 N 
ATOM     12  I   UNL     1      -8.668   1.564  -6.956  0.00  0.00    -0.044 I 
ENDROOT
BRANCH  11  13
ATOM     13  C   UNL     1      -6.120  -2.109  -0.440  0.00  0.00    +0.051 A 
ATOM     14  C   UNL     1      -5.934  -1.482   0.785  0.00  0.00    +0.026 A 
ATOM     15  C   UNL     1      -6.189  -2.168   1.957  0.00  0.00    +0.002 A 
ATOM     16  C   UNL     1      -6.630  -3.478   1.911  0.00  0.00    +0.000 A 
ATOM     17  C   UNL     1      -6.817  -4.105   0.692  0.00  0.00    +0.002 A 
ATOM     18  C   UNL     1      -6.568  -3.423  -0.483  0.00  0.00    +0.026 A 
ENDBRANCH  11  13
BRANCH   1  20
ATOM     19  C   UNL     1      -2.192  -1.310  -1.431  0.00  0.00    +0.010 C 
ATOM     20  C   UNL     1      -3.482  -1.630  -1.139  0.00  0.00    +0.047 C 
BRANCH  19  23
ATOM     21  C   UNL     1      -1.847  -4.176  -0.107  0.00  0.00    +0.035 C 
ATOM     22  C   UNL     1      -1.256  -2.875   0.439  0.00  0.00    +0.107 C 
ATOM     23  C   UNL     1      -1.146  -1.848  -0.667  0.00  0.00    -0.016 C 
ATOM     24  C   UNL     1       0.209  -1.550  -0.767  0.00  0.00    +0.003 A 
ATOM     25  C   UNL     1       0.935  -0.674  -1.605  0.00  0.00    +0.010 A 
ATOM     26  C   UNL     1       2.283  -0.585  -1.478  0.00  0.00    +0.001 A 
ATOM     27  C   UNL     1       2.983  -1.342  -0.532  0.00  0.00    +0.002 A 
ATOM     28  C   UNL     1       2.355  -2.201   0.304  0.00  0.00    +0.026 A 
ATOM     29  C   UNL     1       0.942  -2.350   0.232  0.00  0.00    +0.043 A 
ATOM     30  N   UNL     1       0.111  -3.103   0.919  0.00  0.00    -0.378 N 
ATOM     31  H   UNL     1       0.361  -3.713   1.630  0.00  0.00    +0.160 HD
ENDBRANCH  19  23
ENDBRANCH   1  20
TORSDOF 3
