REMARK  Name = ZINC22741634
REMARK  13 active torsions:
REMARK  status: ('A' for Active; 'I' for Inactive)
REMARK    1  A    between atoms: C_1  and  C_2
REMARK    2  A    between atoms: C_2  and  C_3
REMARK    3  A    between atoms: C_2  and  C_4
REMARK    4  A    between atoms: C_4  and  C_5
REMARK    5  A    between atoms: C_5  and  C_27
REMARK    6  A    between atoms: N_8  and  C_12
REMARK    7  A    between atoms: C_12  and  C_13
REMARK    8  A    between atoms: N_15  and  C_16
REMARK    9  A    between atoms: N_15  and  C_23
REMARK   10  A    between atoms: C_16  and  C_17
REMARK   11  A    between atoms: C_23  and  C_24
REMARK   12  A    between atoms: C_23  and  C_25
REMARK   13  A    between atoms: C_23  and  C_26
REMARK                            x       y       z     vdW  Elec       q    Type
REMARK                         _______ _______ _______ _____ _____    ______ ____
ROOT
ATOM      1  C   UNL     1       0.901   4.295   3.186  0.00  0.00    +0.138 C 
ATOM      2  C   UNL     1      -0.011   3.928   4.341  0.00  0.00    +0.251 C 
ATOM      3  O   UNL     1       0.013   4.381   5.465  0.00  0.00    -0.272 OA
ATOM      4  N   UNL     1      -0.853   2.993   3.857  0.00  0.00    -0.215 N 
ATOM      5  C   UNL     1      -0.602   2.721   2.572  0.00  0.00    +0.310 C 
ATOM      6  O   UNL     1      -1.230   1.911   1.918  0.00  0.00    -0.252 OA
ATOM      7  N   UNL     1       0.422   3.444   2.083  0.00  0.00    -0.281 N 
ATOM      8  H   UNL     1       0.908   3.496   1.098  0.00  0.00    +0.152 HD
ENDROOT
BRANCH   1   9
ATOM      9  C   UNL     1       2.335   3.973   3.520  0.00  0.00    -0.015 A 
ATOM     10  C   UNL     1       3.163   4.955   4.029  0.00  0.00    +0.006 A 
ATOM     11  C   UNL     1       4.480   4.662   4.329  0.00  0.00    +0.000 A 
ATOM     12  C   UNL     1       4.968   3.385   4.122  0.00  0.00    +0.000 A 
ATOM     13  C   UNL     1       4.140   2.402   3.614  0.00  0.00    +0.000 A 
ATOM     14  C   UNL     1       2.823   2.696   3.313  0.00  0.00    +0.006 A 
ENDBRANCH   1   9
BRANCH   1  15
ATOM     15  C   UNL     1       0.753   5.774   2.828  0.00  0.00    +0.043 C 
BRANCH  15  17
ATOM     16  C   UNL     1      -0.899   7.603   2.416  0.00  0.00    +0.007 C 
ATOM     17  C   UNL     1      -0.722   6.091   2.568  0.00  0.00    -0.014 C 
ATOM     18  C   UNL     1      -1.175   5.393   1.284  0.00  0.00    +0.007 C 
ENDBRANCH  15  17
ENDBRANCH   1  15
BRANCH   4  19
ATOM     19  C   UNL     1      -1.912   2.355   4.643  0.00  0.00    +0.213 C 
BRANCH  19  20
ATOM     20  C   UNL     1      -1.368   1.115   5.306  0.00  0.00    +0.234 C 
ATOM     21  O   UNL     1      -0.180   0.875   5.260  0.00  0.00    -0.274 OA
ATOM     22  N   UNL     1      -2.201   0.275   5.949  0.00  0.00    -0.291 N 
BRANCH  22  23
ATOM     23  C   UNL     1      -3.648   0.498   5.901  0.00  0.00    +0.029 C 
ATOM     24  C   UNL     1      -4.154   0.259   4.478  0.00  0.00    +0.031 C 
ATOM     25  C   UNL     1      -4.346  -0.469   6.860  0.00  0.00    +0.031 C 
ATOM     26  C   UNL     1      -3.956   1.938   6.317  0.00  0.00    +0.031 C 
ENDBRANCH  22  23
BRANCH  22  27
ATOM     27  C   UNL     1      -1.660  -0.863   6.697  0.00  0.00    +0.143 C 
BRANCH  27  28
ATOM     28  C   UNL     1      -1.278  -0.416   8.085  0.00  0.00    -0.030 A 
ATOM     29  C   UNL     1      -0.045   0.169   8.307  0.00  0.00    +0.005 A 
ATOM     30  C   UNL     1       0.304   0.583   9.579  0.00  0.00    +0.000 A 
ATOM     31  C   UNL     1      -0.575   0.404  10.630  0.00  0.00    +0.000 A 
ATOM     32  C   UNL     1      -1.806  -0.185  10.409  0.00  0.00    +0.000 A 
ATOM     33  C   UNL     1      -2.157  -0.596   9.136  0.00  0.00    +0.005 A 
ENDBRANCH  27  28
ENDBRANCH  22  27
ENDBRANCH  19  20
ENDBRANCH   4  19
TORSDOF 8
