REMARK  Name = ZINC39327068
REMARK  11 active torsions:
REMARK  status: ('A' for Active; 'I' for Inactive)
REMARK    1  A    between atoms: C_1  and  C_2
REMARK    2  A    between atoms: C_3  and  C_26
REMARK    3  A    between atoms: C_4  and  C_16
REMARK    4  A    between atoms: C_7  and  N_15
REMARK    5  A    between atoms: C_8  and  C_12
REMARK    6  A    between atoms: C_19  and  O_24
REMARK    7  A    between atoms: C_20  and  O_22
REMARK    8  A    between atoms: O_22  and  C_23
REMARK    9  A    between atoms: O_24  and  C_25
REMARK   10  A    between atoms: C_26  and  O_28
REMARK   11  A    between atoms: O_28  and  C_29
REMARK                            x       y       z     vdW  Elec       q    Type
REMARK                         _______ _______ _______ _____ _____    ______ ____
ROOT
ATOM      1  C   UNL     1      -0.018   1.503   0.010  0.00  0.00    +0.061 C 
ATOM      2  C   UNL     1       0.002  -0.004   0.002  0.00  0.00    +0.016 C 
ATOM      3  C   UNL     1      -1.159  -0.672   0.004  0.00  0.00    +0.065 C 
ATOM      4  C   UNL     1      -1.283  -2.167   0.016  0.00  0.00    +0.092 C 
ATOM      5  C   UNL     1       0.068  -2.797  -0.298  0.00  0.00    +0.014 A 
ATOM      6  C   UNL     1       0.254  -4.133  -0.606  0.00  0.00    +0.050 A 
ATOM      7  C   UNL     1       1.543  -4.596  -0.872  0.00  0.00    +0.096 A 
ATOM      8  S   UNL     1       2.515  -3.108  -0.685  0.00  0.00    -0.067 S 
ATOM      9  C   UNL     1       1.196  -2.003  -0.281  0.00  0.00    +0.076 A 
ATOM     10  N   UNL     1       1.212  -0.657  -0.013  0.00  0.00    -0.312 N 
ATOM     11  H   UNL     1       2.042  -0.187   0.162  0.00  0.00    +0.152 HD
ENDROOT
BRANCH   4  12
ATOM     12  C   UNL     1      -1.743  -2.622   1.377  0.00  0.00    -0.032 A 
ATOM     13  C   UNL     1      -0.980  -2.335   2.494  0.00  0.00    +0.008 A 
ATOM     14  C   UNL     1      -1.397  -2.749   3.745  0.00  0.00    +0.050 A 
ATOM     15  C   UNL     1      -2.582  -3.454   3.882  0.00  0.00    +0.162 A 
ATOM     16  C   UNL     1      -3.350  -3.742   2.758  0.00  0.00    +0.162 A 
ATOM     17  C   UNL     1      -2.929  -3.319   1.508  0.00  0.00    +0.054 A 
BRANCH  16  18
ATOM     18  O   UNL     1      -4.514  -4.433   2.888  0.00  0.00    -0.491 OA
ATOM     19  C   UNL     1      -5.251  -4.693   1.691  0.00  0.00    +0.277 C 
ENDBRANCH  16  18
BRANCH  15  20
ATOM     20  O   UNL     1      -2.994  -3.862   5.112  0.00  0.00    -0.491 OA
ATOM     21  C   UNL     1      -2.155  -3.531   6.220  0.00  0.00    +0.277 C 
ENDBRANCH  15  20
ENDBRANCH   4  12
BRANCH   7  22
ATOM     22  C   UNL     1       1.968  -5.899  -1.204  0.00  0.00    +0.250 C 
ATOM     23  O   UNL     1       1.154  -6.802  -1.289  0.00  0.00    -0.270 OA
ATOM     24  N   UNL     1       3.274  -6.145  -1.428  0.00  0.00    -0.325 N 
ATOM     25  H   UNL     1       3.922  -5.426  -1.360  0.00  0.00    +0.145 HD
ATOM     26  H   UNL     1       3.566  -7.042  -1.656  0.00  0.00    +0.145 HD
ENDBRANCH   7  22
BRANCH   6  27
ATOM     27  N   UNL     1      -0.831  -5.005  -0.647  0.00  0.00    -0.357 N 
ATOM     28  H   UNL     1      -1.724  -4.677  -0.460  0.00  0.00    +0.142 HD
ATOM     29  H   UNL     1      -0.693  -5.941  -0.863  0.00  0.00    +0.142 HD
ENDBRANCH   6  27
BRANCH   3  30
ATOM     30  C   UNL     1      -2.352   0.085  -0.005  0.00  0.00    +0.337 C 
ATOM     31  O   UNL     1      -2.301   1.301  -0.015  0.00  0.00    -0.245 OA
BRANCH  30  32
ATOM     32  O   UNL     1      -3.548  -0.540  -0.004  0.00  0.00    -0.465 OA
ATOM     33  C   UNL     1      -4.713   0.287  -0.013  0.00  0.00    +0.280 C 
ENDBRANCH  30  32
ENDBRANCH   3  30
TORSDOF 7
