REMARK  Name = ZINC12563455
REMARK  12 active torsions:
REMARK  status: ('A' for Active; 'I' for Inactive)
REMARK    1  A    between atoms: C_1  and  C_2
REMARK    2  A    between atoms: C_9  and  C_26
REMARK    3  A    between atoms: N_10  and  C_11
REMARK    4  A    between atoms: C_13  and  C_22
REMARK    5  A    between atoms: C_14  and  O_21
REMARK    6  A    between atoms: C_15  and  C_17
REMARK    7  A    between atoms: C_17  and  C_18
REMARK    8  A    between atoms: C_17  and  C_19
REMARK    9  A    between atoms: C_17  and  C_20
REMARK   10  A    between atoms: C_22  and  C_23
REMARK   11  A    between atoms: C_22  and  C_24
REMARK   12  A    between atoms: C_22  and  C_25
REMARK                            x       y       z     vdW  Elec       q    Type
REMARK                         _______ _______ _______ _____ _____    ______ ____
ROOT
ATOM      1  C   UNL     1       5.079  -6.390  -3.434  0.00  0.00    +0.044 C 
ATOM      2  C   UNL     1       4.309  -5.426  -2.567  0.00  0.00    -0.048 A 
ATOM      3  C   UNL     1       3.030  -5.038  -2.940  0.00  0.00    +0.005 A 
ATOM      4  C   UNL     1       2.311  -4.158  -2.160  0.00  0.00    +0.028 A 
ATOM      5  C   UNL     1       2.872  -3.656  -0.993  0.00  0.00    +0.074 A 
ATOM      6  C   UNL     1       4.169  -4.047  -0.617  0.00  0.00    +0.090 A 
ATOM      7  C   UNL     1       4.881  -4.938  -1.427  0.00  0.00    +0.033 A 
ATOM      8  N   UNL     1       4.455  -3.418   0.549  0.00  0.00    -0.227 NA
ATOM      9  C   UNL     1       3.438  -2.673   0.909  0.00  0.00    +0.148 A 
ATOM     10  N   UNL     1       2.432  -2.783  -0.015  0.00  0.00    -0.292 N 
ENDROOT
BRANCH   9  11
ATOM     11  C   UNL     1       3.384  -1.840   2.129  0.00  0.00    +0.036 A 
ATOM     12  C   UNL     1       2.264  -1.889   2.962  0.00  0.00    +0.014 A 
ATOM     13  C   UNL     1       2.222  -1.114   4.102  0.00  0.00    +0.021 A 
ATOM     14  C   UNL     1       3.281  -0.278   4.415  0.00  0.00    +0.042 A 
ATOM     15  C   UNL     1       4.392  -0.221   3.591  0.00  0.00    +0.040 A 
ATOM     16  C   UNL     1       4.449  -0.996   2.450  0.00  0.00    +0.053 A 
ATOM     17 CL   UNL     1       5.843  -0.924   1.418  0.00  0.00    -0.083 Cl
ATOM     18 CL   UNL     1       3.216   0.700   5.848  0.00  0.00    -0.083 Cl
ENDBRANCH   9  11
BRANCH  10  19
ATOM     19  C   UNL     1       1.189  -2.136   0.025  0.00  0.00    +0.049 A 
ATOM     20  C   UNL     1       0.027  -2.876   0.200  0.00  0.00    +0.034 A 
ATOM     21  C   UNL     1      -1.197  -2.238   0.240  0.00  0.00    +0.002 A 
ATOM     22  C   UNL     1      -1.266  -0.859   0.111  0.00  0.00    +0.124 A 
ATOM     23  C   UNL     1      -0.105  -0.120  -0.069  0.00  0.00    +0.002 A 
ATOM     24  C   UNL     1       1.119  -0.756  -0.109  0.00  0.00    +0.034 A 
BRANCH  23  25
ATOM     25  C   UNL     1      -0.181   1.378  -0.215  0.00  0.00    -0.009 C 
ATOM     26  C   UNL     1       1.229   1.945  -0.394  0.00  0.00    +0.015 C 
ATOM     27  C   UNL     1      -1.030   1.729  -1.439  0.00  0.00    +0.015 C 
ATOM     28  C   UNL     1      -0.818   1.981   1.038  0.00  0.00    +0.015 C 
ENDBRANCH  23  25
BRANCH  21  29
ATOM     29  C   UNL     1      -2.459  -3.041   0.429  0.00  0.00    -0.009 C 
ATOM     30  C   UNL     1      -2.106  -4.524   0.550  0.00  0.00    +0.015 C 
ATOM     31  C   UNL     1      -3.170  -2.580   1.704  0.00  0.00    +0.015 C 
ATOM     32  C   UNL     1      -3.381  -2.832  -0.773  0.00  0.00    +0.015 C 
ENDBRANCH  21  29
BRANCH  22  33
ATOM     33  O   UNL     1      -2.471  -0.231   0.156  0.00  0.00    -0.506 OA
ATOM     34  H   UNL     1      -2.898  -0.139  -0.707  0.00  0.00    +0.292 HD
ENDBRANCH  22  33
ENDBRANCH  10  19
TORSDOF 5
