REMARK  Name = ZINC01126524
REMARK  10 active torsions:
REMARK  status: ('A' for Active; 'I' for Inactive)
REMARK    1  A    between atoms: C_1  and  C_2
REMARK    2  A    between atoms: C_2  and  O_3
REMARK    3  A    between atoms: O_3  and  C_4
REMARK    4  A    between atoms: C_6  and  C_12
REMARK    5  A    between atoms: C_9  and  O_10
REMARK    6  A    between atoms: C_14  and  C_21
REMARK    7  A    between atoms: C_15  and  C_20
REMARK    8  A    between atoms: N_23  and  C_24
REMARK    9  A    between atoms: C_29  and  O_30
REMARK   10  A    between atoms: O_30  and  C_31
REMARK                            x       y       z     vdW  Elec       q    Type
REMARK                         _______ _______ _______ _____ _____    ______ ____
ROOT
ATOM      1  C   UNL     1       6.141   3.299   0.047  0.00  0.00    +0.139 C 
ATOM      2  C   UNL     1       5.958   1.796   0.018  0.00  0.00    +0.056 C 
ATOM      3  C   UNL     1       7.067   1.027   0.069  0.00  0.00    +0.017 C 
ATOM      4  N   UNL     1       8.311   1.586   0.133  0.00  0.00    -0.300 N 
ATOM      5  C   UNL     1       8.530   2.907   0.161  0.00  0.00    +0.135 C 
ATOM      6  S   UNL     1      10.142   3.477   0.248  0.00  0.00    -0.019 S 
ATOM      7  N   UNL     1       7.524   3.802   0.122  0.00  0.00    -0.315 N 
ATOM      8  C   UNL     1       6.929  -0.474   0.049  0.00  0.00    +0.061 C 
ATOM      9  H   UNL     1       9.078   0.994   0.164  0.00  0.00    +0.154 HD
ATOM     10  H   UNL     1       7.705   4.755   0.144  0.00  0.00    +0.149 HD
ENDROOT
BRANCH   1  13
ATOM     11  C   UNL     1       3.497   5.005   2.138  0.00  0.00    +0.163 A 
ATOM     12  C   UNL     1       4.194   4.511   1.047  0.00  0.00    +0.055 A 
ATOM     13  C   UNL     1       5.386   3.837   1.235  0.00  0.00    -0.018 A 
ATOM     14  C   UNL     1       5.884   3.650   2.511  0.00  0.00    +0.025 A 
ATOM     15  C   UNL     1       5.197   4.146   3.604  0.00  0.00    +0.063 A 
ATOM     16  C   UNL     1       4.001   4.822   3.422  0.00  0.00    +0.173 A 
ATOM     17 BR   UNL     1       5.886   3.895   5.347  0.00  0.00    -0.046 Br
BRANCH  16  18
ATOM     18  O   UNL     1       3.321   5.306   4.496  0.00  0.00    -0.503 OA
ATOM     19  H   UNL     1       2.683   4.684   4.871  0.00  0.00    +0.292 HD
ENDBRANCH  16  18
BRANCH  11  20
ATOM     20  O   UNL     1       2.324   5.668   1.954  0.00  0.00    -0.489 OA
BRANCH  20  22
ATOM     21  C   UNL     1       0.524   6.548   0.603  0.00  0.00    +0.048 C 
ATOM     22  C   UNL     1       1.811   5.721   0.622  0.00  0.00    +0.226 C 
ENDBRANCH  20  22
ENDBRANCH  11  20
ENDBRANCH   1  13
BRANCH   2  23
ATOM     23  C   UNL     1       4.668   1.216  -0.053  0.00  0.00    +0.248 C 
ATOM     24  O   UNL     1       4.030   1.276  -1.089  0.00  0.00    -0.270 OA
ATOM     25  N   UNL     1       4.146   0.599   1.025  0.00  0.00    -0.279 N 
ATOM     26  H   UNL     1       4.609   0.636   1.877  0.00  0.00    +0.155 HD
BRANCH  25  27
ATOM     27  C   UNL     1       2.934  -0.095   0.917  0.00  0.00    +0.076 A 
ATOM     28  C   UNL     1       1.984   0.305  -0.012  0.00  0.00    +0.027 A 
ATOM     29  C   UNL     1       0.789  -0.382  -0.117  0.00  0.00    +0.002 A 
ATOM     30  C   UNL     1       0.538  -1.468   0.701  0.00  0.00    +0.004 A 
ATOM     31  C   UNL     1       1.479  -1.872   1.629  0.00  0.00    +0.047 A 
ATOM     32  C   UNL     1       2.679  -1.189   1.741  0.00  0.00    +0.141 A 
BRANCH  32  33
ATOM     33  O   UNL     1       3.606  -1.585   2.654  0.00  0.00    -0.493 OA
ATOM     34  C   UNL     1       3.326  -2.779   3.386  0.00  0.00    +0.277 C 
ENDBRANCH  32  33
ENDBRANCH  25  27
ENDBRANCH   2  23
TORSDOF 7
