REMARK  Name = ZINC03102354
REMARK  8 active torsions:
REMARK  status: ('A' for Active; 'I' for Inactive)
REMARK    1  A    between atoms: C_10  and  C_11
REMARK    2  A    between atoms: C_11  and  O_13
REMARK    3  A    between atoms: O_13  and  C_14
REMARK    4  A    between atoms: C_17  and  C_20
REMARK    5  A    between atoms: N_21  and  N_22
REMARK    6  A    between atoms: C_23  and  C_25
REMARK    7  A    between atoms: C_25  and  O_26
REMARK    8  A    between atoms: O_26  and  C_27
REMARK                            x       y       z     vdW  Elec       q    Type
REMARK                         _______ _______ _______ _____ _____    ______ ____
ROOT
ATOM      1  C   UNL     1      -2.312   1.187  -0.155  0.00  0.00    +0.132 A 
ATOM      2  C   UNL     1      -2.315  -0.199  -0.074  0.00  0.00    +0.047 A 
ATOM      3  C   UNL     1      -3.503  -0.893  -0.144  0.00  0.00    +0.013 A 
ATOM      4  C   UNL     1      -4.706  -0.201  -0.307  0.00  0.00    -0.005 A 
ATOM      5  C   UNL     1      -4.698   1.194  -0.393  0.00  0.00    +0.013 A 
ATOM      6  C   UNL     1      -3.505   1.880  -0.318  0.00  0.00    +0.047 A 
ENDROOT
BRANCH   4   7
ATOM      7  C   UNL     1      -5.979  -0.939  -0.387  0.00  0.00    +0.138 C 
ATOM      8  N   UNL     1      -5.985  -2.234  -0.306  0.00  0.00    -0.188 NA
BRANCH   8   9
ATOM      9  N   UNL     1      -7.195  -2.936  -0.382  0.00  0.00    -0.204 N 
ATOM     10  C   UNL     1      -7.201  -4.281  -0.298  0.00  0.00    +0.270 C 
ATOM     11  O   UNL     1      -6.158  -4.884  -0.157  0.00  0.00    -0.270 OA
ATOM     12  H   UNL     1      -8.029  -2.454  -0.495  0.00  0.00    +0.177 HD
BRANCH  10  13
ATOM     13  C   UNL     1      -8.502  -5.036  -0.380  0.00  0.00    +0.326 C 
BRANCH  13  14
ATOM     14  O   UNL     1      -8.248  -6.438  -0.267  0.00  0.00    -0.481 OA
BRANCH  14  15
ATOM     15  C   UNL     1      -9.325  -7.266  -0.322  0.00  0.00    +0.140 A 
ATOM     16  C   UNL     1     -10.598  -6.741  -0.481  0.00  0.00    +0.048 A 
ATOM     17  C   UNL     1     -11.691  -7.584  -0.537  0.00  0.00    +0.023 A 
ATOM     18  C   UNL     1     -11.516  -8.953  -0.433  0.00  0.00    +0.043 A 
ATOM     19  C   UNL     1     -10.246  -9.480  -0.274  0.00  0.00    +0.043 A 
ATOM     20  C   UNL     1      -9.150  -8.640  -0.224  0.00  0.00    +0.084 A 
ATOM     21 CL   UNL     1      -7.556  -9.301  -0.033  0.00  0.00    -0.080 Cl
ATOM     22 CL   UNL     1     -12.891 -10.011  -0.504  0.00  0.00    -0.083 Cl
ENDBRANCH  14  15
ENDBRANCH  13  14
ENDBRANCH  10  13
ENDBRANCH   8   9
ENDBRANCH   4   7
BRANCH   1  23
ATOM     23  O   UNL     1      -1.139   1.868  -0.081  0.00  0.00    -0.422 OA
BRANCH  23  24
ATOM     24  C   UNL     1      -0.875   2.510   1.075  0.00  0.00    +0.345 C 
ATOM     25  O   UNL     1      -1.626   2.387   2.022  0.00  0.00    -0.245 OA
BRANCH  24  35
ATOM     26  C   UNL     1       1.083   5.671   4.650  0.00  0.00    +0.001 A 
ATOM     27  C   UNL     1      -0.064   4.884   4.578  0.00  0.00    +0.001 A 
ATOM     28  C   UNL     1      -0.327   4.130   3.473  0.00  0.00    +0.009 A 
ATOM     29  C   UNL     1       0.566   4.147   2.395  0.00  0.00    -0.004 A 
ATOM     30  C   UNL     1       1.733   4.947   2.465  0.00  0.00    -0.017 A 
ATOM     31  C   UNL     1       1.973   5.711   3.620  0.00  0.00    +0.008 A 
ATOM     32  C   UNL     1       2.627   4.961   1.381  0.00  0.00    +0.008 A 
ATOM     33  C   UNL     1       2.382   4.215   0.269  0.00  0.00    +0.001 A 
ATOM     34  C   UNL     1       1.255   3.413   0.159  0.00  0.00    +0.015 A 
ATOM     35  C   UNL     1       0.325   3.355   1.190  0.00  0.00    +0.067 A 
ENDBRANCH  24  35
ENDBRANCH  23  24
ENDBRANCH   1  23
TORSDOF 8
