REMARK  Name = ZINC54512422
REMARK  8 active torsions:
REMARK  status: ('A' for Active; 'I' for Inactive)
REMARK    1  A    between atoms: C_1  and  N_2
REMARK    2  A    between atoms: N_2  and  C_3
REMARK    3  A    between atoms: N_2  and  C_4
REMARK    4  A    between atoms: C_4  and  C_6
REMARK    5  A    between atoms: C_4  and  C_24
REMARK    6  A    between atoms: C_6  and  N_7
REMARK    7  A    between atoms: N_10  and  C_11
REMARK    8  A    between atoms: C_13  and  N_18
REMARK                            x       y       z     vdW  Elec       q    Type
REMARK                         _______ _______ _______ _____ _____    ______ ____
ROOT
ATOM      1  N   UNL     1      -0.259  -2.721   0.632  0.00  0.00    -0.300 N 
ATOM      2  C   UNL     1      -0.026  -4.049   0.624  0.00  0.00    +0.304 C 
ATOM      3  O   UNL     1      -0.496  -4.743  -0.257  0.00  0.00    -0.253 OA
ATOM      4  N   UNL     1       0.727  -4.607   1.593  0.00  0.00    -0.267 N 
ATOM      5  H   UNL     1       0.115  -2.167   1.335  0.00  0.00    +0.150 HD
ATOM      6  H   UNL     1       1.059  -4.062   2.323  0.00  0.00    +0.156 HD
ENDROOT
BRANCH   4   7
ATOM      7  C   UNL     1       1.031  -5.973   1.544  0.00  0.00    +0.072 A 
ATOM      8  C   UNL     1       0.188  -6.848   0.875  0.00  0.00    +0.049 A 
ATOM      9  C   UNL     1       0.492  -8.201   0.828  0.00  0.00    +0.041 A 
ATOM     10  C   UNL     1       1.639  -8.676   1.451  0.00  0.00    +0.026 A 
ATOM     11  C   UNL     1       2.477  -7.803   2.117  0.00  0.00    +0.042 A 
ATOM     12  C   UNL     1       2.180  -6.453   2.161  0.00  0.00    +0.145 A 
ATOM     13  F   UNL     1       3.005  -5.601   2.808  0.00  0.00    -0.204 F 
BRANCH   9  14
ATOM     14  N   UNL     1      -0.358  -9.087   0.154  0.00  0.00    -0.234 N 
ATOM     15  C   UNL     1      -0.169 -10.546   0.025  0.00  0.00    +0.158 C 
ATOM     16  C   UNL     1      -1.562 -11.014  -0.460  0.00  0.00    +0.253 C 
ATOM     17  O   UNL     1      -2.083  -9.820  -1.075  0.00  0.00    -0.448 OA
ATOM     18  C   UNL     1      -1.496  -8.763  -0.488  0.00  0.00    +0.407 C 
ATOM     19  O   UNL     1      -1.943  -7.634  -0.534  0.00  0.00    -0.226 OA
ENDBRANCH   9  14
ENDBRANCH   4   7
BRANCH   1  20
ATOM     20  C   UNL     1      -1.078  -2.115  -0.420  0.00  0.00    +0.095 C 
BRANCH  20  21
ATOM     21  C   UNL     1      -1.290  -0.632  -0.111  0.00  0.00    -0.014 C 
BRANCH  21  22
ATOM     22  C   UNL     1      -2.014  -0.491   1.204  0.00  0.00    -0.022 A 
ATOM     23  C   UNL     1      -1.512  -0.198   2.428  0.00  0.00    +0.009 A 
ATOM     24  C   UNL     1      -2.374  -0.120   3.505  0.00  0.00    +0.008 A 
ATOM     25  C   UNL     1      -3.697  -0.338   3.306  0.00  0.00    +0.045 A 
ATOM     26  S   UNL     1      -3.757  -0.660   1.551  0.00  0.00    -0.103 S 
ENDBRANCH  21  22
BRANCH  21  28
ATOM     27  C   UNL     1      -2.205   1.427  -0.937  0.00  0.00    -0.096 C 
ATOM     28  N   UNL     1      -2.091  -0.018  -1.179  0.00  0.00    +0.382 N 
ATOM     29  C   UNL     1      -1.437  -0.247  -2.474  0.00  0.00    -0.096 C 
ATOM     30  H   UNL     1      -3.011  -0.431  -1.188  0.00  0.00    -0.082 HD
ENDBRANCH  21  28
ENDBRANCH  20  21
ENDBRANCH   1  20
TORSDOF 6
