REMARK  Name = ZINC38785184
REMARK  8 active torsions:
REMARK  status: ('A' for Active; 'I' for Inactive)
REMARK    1  A    between atoms: C_1  and  C_2
REMARK    2  A    between atoms: C_2  and  C_3
REMARK    3  A    between atoms: C_2  and  C_4
REMARK    4  A    between atoms: C_7  and  C_10
REMARK    5  A    between atoms: C_14  and  S_18
REMARK    6  A    between atoms: S_18  and  C_19
REMARK    7  A    between atoms: C_19  and  C_20
REMARK    8  A    between atoms: N_22  and  C_23
REMARK                            x       y       z     vdW  Elec       q    Type
REMARK                         _______ _______ _______ _____ _____    ______ ____
ROOT
ATOM      1  C   UNL     1      -5.408  -1.940   0.082  0.00  0.00    -0.015 C 
ATOM      2  C   UNL     1      -6.312  -1.569  -0.878  0.00  0.00    +0.075 C 
ATOM      3  C   UNL     1      -7.668  -2.136  -0.785  0.00  0.00    +0.112 C 
ATOM      4  N   UNL     1      -8.585  -1.824  -1.669  0.00  0.00    -0.217 NA
ATOM      5  C   UNL     1      -8.322  -0.988  -2.673  0.00  0.00    +0.182 C 
ATOM      6  N   UNL     1      -7.140  -0.423  -2.849  0.00  0.00    -0.151 NA
ATOM      7  C   UNL     1      -6.109  -0.644  -2.033  0.00  0.00    +0.272 C 
ATOM      8  O   UNL     1      -5.030  -0.106  -2.224  0.00  0.00    -0.268 OA
ATOM      9  S   UNL     1      -7.633  -3.179   0.650  0.00  0.00    -0.100 S 
ATOM     10  C   UNL     1      -5.884  -2.904   1.144  0.00  0.00    +0.112 C 
ENDROOT
BRANCH   1  14
ATOM     11  C   UNL     1      -1.438  -0.465   0.062  0.00  0.00    -0.045 A 
ATOM     12  C   UNL     1      -2.288  -0.136   1.104  0.00  0.00    +0.004 A 
ATOM     13  C   UNL     1      -3.582  -0.612   1.119  0.00  0.00    +0.008 A 
ATOM     14  C   UNL     1      -4.035  -1.430   0.075  0.00  0.00    -0.020 A 
ATOM     15  C   UNL     1      -3.166  -1.757  -0.976  0.00  0.00    +0.008 A 
ATOM     16  C   UNL     1      -1.878  -1.268  -0.977  0.00  0.00    +0.004 A 
BRANCH  11  18
ATOM     17  C   UNL     1      -0.050   1.591   0.054  0.00  0.00    +0.012 C 
ATOM     18  C   UNL     1      -0.025   0.061   0.055  0.00  0.00    +0.013 C 
ATOM     19  C   UNL     1       0.711  -0.437   1.300  0.00  0.00    +0.012 C 
ENDBRANCH  11  18
ENDBRANCH   1  14
BRANCH   5  20
ATOM     20  S   UNL     1      -9.608  -0.620  -3.819  0.00  0.00    -0.079 S 
BRANCH  20  21
ATOM     21  C   UNL     1      -8.836   0.528  -4.992  0.00  0.00    +0.173 C 
BRANCH  21  22
ATOM     22  C   UNL     1      -9.842   0.928  -6.040  0.00  0.00    +0.228 C 
ATOM     23  O   UNL     1     -10.970   0.482  -5.999  0.00  0.00    -0.275 OA
ATOM     24  N   UNL     1      -9.490   1.781  -7.022  0.00  0.00    -0.284 N 
ATOM     25  H   UNL     1      -8.609   2.188  -7.018  0.00  0.00    +0.155 HD
BRANCH  24  26
ATOM     26  C   UNL     1     -10.394   2.079  -8.048  0.00  0.00    +0.047 A 
ATOM     27  C   UNL     1     -11.754   2.150  -7.778  0.00  0.00    +0.024 A 
ATOM     28  C   UNL     1     -12.644   2.445  -8.792  0.00  0.00    +0.002 A 
ATOM     29  C   UNL     1     -12.182   2.669 -10.076  0.00  0.00    +0.001 A 
ATOM     30  C   UNL     1     -10.828   2.598 -10.350  0.00  0.00    +0.017 A 
ATOM     31  C   UNL     1      -9.932   2.310  -9.338  0.00  0.00    +0.039 A 
ATOM     32 BR   UNL     1      -8.080   2.221  -9.710  0.00  0.00    -0.048 Br
ENDBRANCH  24  26
ENDBRANCH  21  22
ENDBRANCH  20  21
ENDBRANCH   5  20
TORSDOF 6
