REMARK  Name = ZINC22292981
REMARK  11 active torsions:
REMARK  status: ('A' for Active; 'I' for Inactive)
REMARK    1  A    between atoms: C_1  and  C_2
REMARK    2  A    between atoms: C_2  and  O_3
REMARK    3  A    between atoms: O_3  and  C_4
REMARK    4  A    between atoms: C_5  and  O_30
REMARK    5  A    between atoms: C_7  and  C_11
REMARK    6  A    between atoms: C_11  and  N_13
REMARK    7  A    between atoms: C_16  and  C_19
REMARK    8  A    between atoms: C_19  and  N_20
REMARK    9  A    between atoms: C_22  and  C_29
REMARK   10  A    between atoms: C_25  and  C_28
REMARK   11  A    between atoms: O_30  and  C_31
REMARK                            x       y       z     vdW  Elec       q    Type
REMARK                         _______ _______ _______ _____ _____    ______ ____
ROOT
ATOM      1  N   UNL     1       2.199  -6.681   1.248  0.00  0.00    -0.152 NA
ATOM      2  C   UNL     1       2.309  -8.000   1.390  0.00  0.00    +0.163 A 
ATOM      3  N   UNL     1       3.302  -8.819   0.947  0.00  0.00    -0.341 N 
ATOM      4  C   UNL     1       3.216 -10.152   1.204  0.00  0.00    +0.008 A 
ATOM      5  C   UNL     1       2.146 -10.578   1.885  0.00  0.00    +0.067 A 
ATOM      6  S   UNL     1       1.257  -9.058   2.167  0.00  0.00    -0.061 S 
ATOM      7  H   UNL     1       4.057  -8.459   0.457  0.00  0.00    +0.167 HD
ENDROOT
BRANCH   1   8
ATOM      8  C   UNL     1       1.146  -6.039   1.761  0.00  0.00    +0.270 C 
ATOM      9  O   UNL     1       0.285  -6.661   2.358  0.00  0.00    -0.268 OA
BRANCH   8  13
ATOM     10  C   UNL     1       0.802  -1.824   1.306  0.00  0.00    +0.176 A 
ATOM     11  C   UNL     1      -0.185  -2.531   1.989  0.00  0.00    +0.163 A 
ATOM     12  C   UNL     1      -0.076  -3.901   2.138  0.00  0.00    +0.062 A 
ATOM     13  C   UNL     1       1.025  -4.573   1.603  0.00  0.00    +0.044 A 
ATOM     14  C   UNL     1       2.010  -3.860   0.920  0.00  0.00    +0.032 A 
ATOM     15  C   UNL     1       1.893  -2.493   0.769  0.00  0.00    +0.064 A 
ATOM     16 BR   UNL     1       3.226  -1.529  -0.164  0.00  0.00    -0.046 Br
BRANCH  11  17
ATOM     17  O   UNL     1      -1.256  -1.874   2.510  0.00  0.00    -0.491 OA
ATOM     18  C   UNL     1      -2.229  -2.662   3.198  0.00  0.00    +0.277 C 
ENDBRANCH  11  17
BRANCH  10  19
ATOM     19  O   UNL     1       0.693  -0.477   1.160  0.00  0.00    -0.487 OA
BRANCH  19  21
ATOM     20  C   UNL     1      -0.019   1.526   0.010  0.00  0.00    +0.048 C 
ATOM     21  C   UNL     1       0.002  -0.004   0.002  0.00  0.00    +0.226 C 
ENDBRANCH  19  21
ENDBRANCH  10  19
ENDBRANCH   8  13
ENDBRANCH   1   8
BRANCH   4  22
ATOM     22  C   UNL     1       4.282 -11.111   0.740  0.00  0.00    -0.024 C 
BRANCH  22  23
ATOM     23  N   UNL     1       4.304 -11.145  -0.729  0.00  0.00    +0.384 N 
ATOM     24  C   UNL     1       3.035 -11.694  -1.222  0.00  0.00    -0.075 C 
ATOM     25  C   UNL     1       3.020 -11.657  -2.752  0.00  0.00    -0.031 C 
ATOM     26  C   UNL     1       4.184 -12.495  -3.289  0.00  0.00    +0.003 C 
ATOM     27  C   UNL     1       5.496 -11.960  -2.708  0.00  0.00    -0.031 C 
ATOM     28  C   UNL     1       5.419 -11.985  -1.180  0.00  0.00    -0.075 C 
ATOM     29  C   UNL     1       6.658 -12.838  -3.177  0.00  0.00    +0.005 C 
ATOM     30  C   UNL     1       1.697 -12.230  -3.264  0.00  0.00    +0.005 C 
ATOM     31  H   UNL     1       4.424 -10.209  -1.084  0.00  0.00    -0.081 HD
ENDBRANCH  22  23
ENDBRANCH   4  22
TORSDOF 7
