REMARK  Name = ZINC58307285
REMARK  6 active torsions:
REMARK  status: ('A' for Active; 'I' for Inactive)
REMARK    1  A    between atoms: C_3  and  C_9
REMARK    2  A    between atoms: C_9  and  C_11
REMARK    3  A    between atoms: C_9  and  O_24
REMARK    4  A    between atoms: C_11  and  N_12
REMARK    5  A    between atoms: N_12  and  C_13
REMARK    6  A    between atoms: C_13  and  C_14
REMARK                            x       y       z     vdW  Elec       q    Type
REMARK                         _______ _______ _______ _____ _____    ______ ____
ROOT
ATOM      1  N   UNL     1       5.478   2.998  -1.462  0.00  0.00    +0.381 N 
ATOM      2  H   UNL     1       5.407   3.905  -1.028  0.00  0.00    -0.086 HD
ATOM      3  H   UNL     1       6.133   2.428  -0.947  0.00  0.00    -0.086 HD
ENDROOT
BRANCH   1   4
ATOM      4  C   UNL     1       4.159   2.350  -1.462  0.00  0.00    -0.046 C 
BRANCH   4   5
ATOM      5  C   UNL     1       3.671   2.188  -0.021  0.00  0.00    +0.130 C 
BRANCH   5   8
ATOM      6  C   UNL     1      -0.017   1.380   0.010  0.00  0.00    +0.039 A 
ATOM      7  C   UNL     1       1.171   2.088   0.002  0.00  0.00    +0.012 A 
ATOM      8  C   UNL     1       2.377   1.415  -0.013  0.00  0.00    +0.014 A 
ATOM      9  C   UNL     1       2.399   0.030  -0.021  0.00  0.00    +0.132 A 
ATOM     10  C   UNL     1       1.210  -0.679  -0.014  0.00  0.00    +0.077 A 
ATOM     11  C   UNL     1       0.002  -0.004   0.002  0.00  0.00    +0.126 A 
ATOM     12  F   UNL     1      -1.158  -0.696   0.010  0.00  0.00    -0.205 F 
ATOM     13  F   UNL     1       3.579  -0.627  -0.037  0.00  0.00    -0.205 F 
ENDBRANCH   5   8
BRANCH   5  14
ATOM     14  O   UNL     1       3.459   3.478   0.557  0.00  0.00    -0.389 OA
ATOM     15  H   UNL     1       2.803   4.014   0.092  0.00  0.00    +0.210 HD
ENDBRANCH   5  14
ENDBRANCH   4   5
ENDBRANCH   1   4
BRANCH   1  16
ATOM     16  C   UNL     1       5.947   3.153  -2.846  0.00  0.00    -0.076 C 
BRANCH  16  17
ATOM     17  C   UNL     1       7.320   3.827  -2.846  0.00  0.00    +0.010 C 
ATOM     18  C   UNL     1       7.188   5.252  -2.296  0.00  0.00    +0.106 C 
ATOM     19  N   UNL     1       8.532   5.859  -2.240  0.00  0.00    -0.329 N 
ATOM     20  C   UNL     1       9.352   5.641  -3.349  0.00  0.00    +0.117 A 
ATOM     21  C   UNL     1      10.515   6.238  -3.689  0.00  0.00    +0.064 A 
ATOM     22  C   UNL     1      10.947   5.669  -4.895  0.00  0.00    +0.136 A 
ATOM     23  N   UNL     1      10.072   4.764  -5.261  0.00  0.00    -0.178 NA
ATOM     24  N   UNL     1       9.057   4.723  -4.306  0.00  0.00    -0.251 N 
ATOM     25  C   UNL     1       7.865   3.872  -4.278  0.00  0.00    +0.148 C 
ATOM     26  H   UNL     1       8.828   6.380  -1.477  0.00  0.00    +0.147 HD
ENDBRANCH  16  17
ENDBRANCH   1  16
TORSDOF 6
