REMARK  Name = ZINC64797304
REMARK  6 active torsions:
REMARK  status: ('A' for Active; 'I' for Inactive)
REMARK    1  A    between atoms: C_2  and  C_3
REMARK    2  A    between atoms: C_3  and  O_4
REMARK    3  A    between atoms: O_4  and  C_5
REMARK    4  A    between atoms: C_10  and  C_11
REMARK    5  A    between atoms: C_20  and  C_29
REMARK    6  A    between atoms: C_21  and  C_22
REMARK                            x       y       z     vdW  Elec       q    Type
REMARK                         _______ _______ _______ _____ _____    ______ ____
ROOT
ATOM      1  C   UNL     1       1.218  -3.928   2.800  0.00  0.00    +0.070 C 
ATOM      2  C   UNL     1       0.725  -5.354   2.524  0.00  0.00    +0.109 C 
ATOM      3  C   UNL     1      -0.185  -5.821   3.624  0.00  0.00    +0.218 C 
ATOM      4  O   UNL     1      -1.151  -6.495   3.330  0.00  0.00    -0.275 OA
ATOM      5  N   UNL     1       0.023  -5.526   4.918  0.00  0.00    -0.284 N 
ATOM      6  C   UNL     1       1.029  -4.576   5.253  0.00  0.00    +0.053 A 
ATOM      7  C   UNL     1       1.591  -3.831   4.249  0.00  0.00    +0.020 A 
ATOM      8  S   UNL     1       2.720  -2.849   4.978  0.00  0.00    -0.084 S 
ATOM      9  C   UNL     1       2.479  -3.349   6.673  0.00  0.00    +0.110 A 
ATOM     10  C   UNL     1       1.479  -4.324   6.548  0.00  0.00    +0.025 A 
ATOM     11  H   UNL     1      -0.504  -5.952   5.612  0.00  0.00    +0.155 HD
ENDROOT
BRANCH  10  12
ATOM     12  C   UNL     1       0.931  -5.042   7.721  0.00  0.00    -0.012 A 
ATOM     13  C   UNL     1      -0.406  -4.875   8.083  0.00  0.00    +0.009 A 
ATOM     14  C   UNL     1      -0.912  -5.546   9.177  0.00  0.00    +0.003 A 
ATOM     15  C   UNL     1      -0.096  -6.383   9.917  0.00  0.00    +0.038 A 
ATOM     16  C   UNL     1       1.233  -6.553   9.565  0.00  0.00    +0.124 A 
ATOM     17  C   UNL     1       1.749  -5.891   8.467  0.00  0.00    +0.047 A 
ATOM     18  F   UNL     1       2.024  -7.372  10.292  0.00  0.00    -0.205 F 
ENDBRANCH  10  12
BRANCH   1  24
ATOM     19  C   UNL     1       2.392  -2.577   1.044  0.00  0.00    +0.125 A 
ATOM     20  C   UNL     1       3.505  -2.304   0.261  0.00  0.00    +0.046 A 
ATOM     21  C   UNL     1       4.638  -3.086   0.377  0.00  0.00    +0.004 A 
ATOM     22  C   UNL     1       4.663  -4.140   1.271  0.00  0.00    +0.001 A 
ATOM     23  C   UNL     1       3.556  -4.415   2.051  0.00  0.00    +0.008 A 
ATOM     24  C   UNL     1       2.422  -3.632   1.944  0.00  0.00    +0.003 A 
BRANCH  19  25
ATOM     25  O   UNL     1       1.277  -1.809   0.933  0.00  0.00    -0.488 OA
BRANCH  25  26
ATOM     26  C   UNL     1       1.317  -0.740  -0.015  0.00  0.00    +0.256 C 
BRANCH  26  28
ATOM     27  C   UNL     1      -0.016   1.306   0.009  0.00  0.00    +0.007 C 
ATOM     28  C   UNL     1       0.002  -0.004   0.002  0.00  0.00    +0.006 C 
ENDBRANCH  26  28
ENDBRANCH  25  26
ENDBRANCH  19  25
ENDBRANCH   1  24
BRANCH   9  29
ATOM     29  C   UNL     1       3.128  -2.885   7.839  0.00  0.00    +0.394 C 
ATOM     30  O   UNL     1       3.990  -2.018   7.756  0.00  0.00    -0.240 OA
ATOM     31  O   UNL     1       2.830  -3.350   8.933  0.00  0.00    -0.240 OA
ENDBRANCH   9  29
TORSDOF 6
