REMARK  Name = ZINC08386658
REMARK  9 active torsions:
REMARK  status: ('A' for Active; 'I' for Inactive)
REMARK    1  A    between atoms: C_1  and  C_2
REMARK    2  A    between atoms: C_3  and  C_27
REMARK    3  A    between atoms: C_4  and  C_20
REMARK    4  A    between atoms: C_6  and  C_18
REMARK    5  A    between atoms: C_7  and  S_9
REMARK    6  A    between atoms: S_9  and  C_10
REMARK    7  A    between atoms: C_10  and  C_11
REMARK    8  A    between atoms: C_11  and  C_13
REMARK    9  A    between atoms: N_29  and  C_30
REMARK                            x       y       z     vdW  Elec       q    Type
REMARK                         _______ _______ _______ _____ _____    ______ ____
ROOT
ATOM      1  C   UNL     1      -1.420   1.973  -0.056  0.00  0.00    +0.061 C 
ATOM      2  C   UNL     1      -0.069   1.306  -0.042  0.00  0.00    +0.014 C 
ATOM      3  C   UNL     1       0.007  -0.034  -0.011  0.00  0.00    +0.044 C 
ATOM      4  C   UNL     1       1.326  -0.751   0.008  0.00  0.00    +0.100 C 
ATOM      5  C   UNL     1       2.440   0.169  -0.405  0.00  0.00    +0.069 C 
ATOM      6  C   UNL     1       2.270   1.519  -0.423  0.00  0.00    +0.080 C 
ATOM      7  N   UNL     1       1.062   2.076  -0.068  0.00  0.00    -0.312 N 
ATOM      8  H   UNL     1       1.008   3.142   0.196  0.00  0.00    +0.152 HD
ENDROOT
BRANCH   4   9
ATOM      9  C   UNL     1       1.595  -1.260   1.400  0.00  0.00    -0.016 A 
ATOM     10  C   UNL     1       1.678  -0.372   2.457  0.00  0.00    +0.006 A 
ATOM     11  C   UNL     1       1.925  -0.839   3.734  0.00  0.00    +0.000 A 
ATOM     12  C   UNL     1       2.088  -2.194   3.956  0.00  0.00    +0.001 A 
ATOM     13  C   UNL     1       2.005  -3.082   2.901  0.00  0.00    +0.020 A 
ATOM     14  C   UNL     1       1.753  -2.616   1.623  0.00  0.00    +0.045 A 
ATOM     15 CL   UNL     1       1.641  -3.732   0.298  0.00  0.00    -0.083 Cl
ENDBRANCH   4   9
BRANCH   3  16
ATOM     16  C   UNL     1      -1.189  -0.792   0.007  0.00  0.00    +0.247 C 
ATOM     17  O   UNL     1      -1.522  -1.426  -0.978  0.00  0.00    -0.270 OA
ATOM     18  N   UNL     1      -1.959  -0.811   1.113  0.00  0.00    -0.282 N 
ATOM     19  H   UNL     1      -1.693  -0.186   1.979  0.00  0.00    +0.155 HD
BRANCH  18  20
ATOM     20  C   UNL     1      -3.095  -1.625   1.160  0.00  0.00    +0.034 A 
ATOM     21  C   UNL     1      -3.462  -2.239   2.350  0.00  0.00    +0.023 A 
ATOM     22  C   UNL     1      -4.588  -3.038   2.395  0.00  0.00    +0.002 A 
ATOM     23  C   UNL     1      -5.343  -3.235   1.253  0.00  0.00    +0.000 A 
ATOM     24  C   UNL     1      -4.977  -2.629   0.065  0.00  0.00    +0.002 A 
ATOM     25  C   UNL     1      -3.856  -1.825   0.015  0.00  0.00    +0.023 A 
ENDBRANCH  18  20
ENDBRANCH   3  16
BRANCH   5  26
ATOM     26  C   UNL     1       3.704  -0.385  -0.787  0.00  0.00    +0.098 C 
ATOM     27  N   UNL     1       4.707  -0.824  -1.090  0.00  0.00    -0.191 NA
ENDBRANCH   5  26
BRANCH   6  28
ATOM     28  S   UNL     1       3.606   2.562  -0.904  0.00  0.00    -0.101 S 
BRANCH  28  29
ATOM     29  C   UNL     1       2.816   4.182  -0.739  0.00  0.00    +0.155 C 
BRANCH  29  30
ATOM     30  C   UNL     1       3.800   5.261  -1.110  0.00  0.00    +0.180 C 
ATOM     31  O   UNL     1       4.926   4.964  -1.453  0.00  0.00    -0.291 OA
BRANCH  30  32
ATOM     32  C   UNL     1       3.412   6.618  -1.058  0.00  0.00    +0.055 A 
ATOM     33  C   UNL     1       4.157   7.755  -1.356  0.00  0.00    +0.019 A 
ATOM     34  C   UNL     1       3.527   8.964  -1.221  0.00  0.00    +0.008 A 
ATOM     35  C   UNL     1       2.231   8.997  -0.810  0.00  0.00    +0.046 A 
ATOM     36  S   UNL     1       1.837   7.321  -0.602  0.00  0.00    -0.094 S 
ENDBRANCH  30  32
ENDBRANCH  29  30
ENDBRANCH  28  29
ENDBRANCH   6  28
TORSDOF 8
