REMARK  Name = ZINC33937142
REMARK  13 active torsions:
REMARK  status: ('A' for Active; 'I' for Inactive)
REMARK    1  A    between atoms: C_1  and  C_2
REMARK    2  A    between atoms: C_2  and  C_3
REMARK    3  A    between atoms: C_3  and  C_5
REMARK    4  A    between atoms: C_3  and  N_18
REMARK    5  A    between atoms: N_9  and  C_10
REMARK    6  A    between atoms: C_10  and  C_11
REMARK    7  A    between atoms: N_18  and  C_19
REMARK    8  A    between atoms: N_18  and  C_35
REMARK    9  A    between atoms: C_19  and  C_20
REMARK   10  A    between atoms: C_24  and  O_32
REMARK   11  A    between atoms: O_32  and  C_33
REMARK   12  A    between atoms: C_33  and  C_34
REMARK   13  A    between atoms: C_35  and  C_36
REMARK                            x       y       z     vdW  Elec       q    Type
REMARK                         _______ _______ _______ _____ _____    ______ ____
ROOT
ATOM      1  N   UNL     1       2.328  -0.104  -2.144  0.00  0.00    +0.391 N 
ATOM      2  H   UNL     1       3.028  -0.432  -1.497  0.00  0.00    -0.080 HD
ENDROOT
BRANCH   1   3
ATOM      3  C   UNL     1       0.991  -0.363  -1.593  0.00  0.00    +0.003 C 
BRANCH   3   4
ATOM      4  C   UNL     1      -0.053   0.196  -2.525  0.00  0.00    +0.138 A 
ATOM      5  N   UNL     1       0.034   0.296  -3.829  0.00  0.00    -0.115 NA
ATOM      6  N   UNL     1      -1.059   0.823  -4.262  0.00  0.00    -0.023 NA
ATOM      7  N   UNL     1      -1.842   1.062  -3.268  0.00  0.00    -0.044 NA
ATOM      8  N   UNL     1      -1.259   0.684  -2.180  0.00  0.00    -0.226 N 
BRANCH   8   9
ATOM      9  C   UNL     1      -1.807   0.773  -0.824  0.00  0.00    +0.182 C 
BRANCH   9  10
ATOM     10  C   UNL     1      -1.515   2.137  -0.253  0.00  0.00    -0.026 A 
ATOM     11  C   UNL     1      -0.415   2.323   0.564  0.00  0.00    +0.008 A 
ATOM     12  C   UNL     1      -0.146   3.573   1.087  0.00  0.00    +0.038 A 
ATOM     13  C   UNL     1      -0.979   4.640   0.794  0.00  0.00    +0.123 A 
ATOM     14  C   UNL     1      -2.080   4.452  -0.024  0.00  0.00    +0.038 A 
ATOM     15  C   UNL     1      -2.344   3.202  -0.551  0.00  0.00    +0.008 A 
ATOM     16  F   UNL     1      -0.717   5.862   1.306  0.00  0.00    -0.205 F 
ENDBRANCH   9  10
ENDBRANCH   8   9
ENDBRANCH   3   4
BRANCH   3  18
ATOM     17  C   UNL     1       1.811  -2.430  -0.455  0.00  0.00    +0.002 C 
ATOM     18  C   UNL     1       0.785  -1.872  -1.443  0.00  0.00    -0.011 C 
ENDBRANCH   3  18
ENDBRANCH   1   3
BRANCH   1  19
ATOM     19  C   UNL     1       2.475  -0.809  -3.425  0.00  0.00    -0.036 C 
BRANCH  19  20
ATOM     20  C   UNL     1       3.893  -0.668  -3.915  0.00  0.00    +0.001 A 
ATOM     21  C   UNL     1       4.799  -1.642  -3.650  0.00  0.00    +0.017 A 
ATOM     22  C   UNL     1       6.169  -1.476  -4.140  0.00  0.00    +0.002 A 
ATOM     23  C   UNL     1       7.146  -2.447  -3.897  0.00  0.00    +0.055 A 
ATOM     24  C   UNL     1       8.427  -2.259  -4.374  0.00  0.00    +0.121 A 
ATOM     25  C   UNL     1       8.748  -1.110  -5.093  0.00  0.00    +0.047 A 
ATOM     26  C   UNL     1       7.795  -0.147  -5.339  0.00  0.00    +0.030 A 
ATOM     27  C   UNL     1       6.497  -0.316  -4.867  0.00  0.00    +0.049 A 
ATOM     28  N   UNL     1       5.528   0.637  -5.103  0.00  0.00    -0.322 N 
ATOM     29  H   UNL     1       5.756   1.436  -5.604  0.00  0.00    +0.169 HD
ATOM     30  C   UNL     1       4.272   0.473  -4.654  0.00  0.00    +0.251 A 
ATOM     31  O   UNL     1       3.440   1.333  -4.885  0.00  0.00    -0.268 OA
BRANCH  24  32
ATOM     32  O   UNL     1       9.380  -3.200  -4.141  0.00  0.00    -0.492 OA
BRANCH  32  33
ATOM     33  C   UNL     1      10.686  -2.943  -4.662  0.00  0.00    +0.225 C 
ATOM     34  C   UNL     1      11.616  -4.103  -4.302  0.00  0.00    +0.048 C 
ENDBRANCH  32  33
ENDBRANCH  24  32
ENDBRANCH  19  20
ENDBRANCH   1  19
BRANCH   1  35
ATOM     35  C   UNL     1       2.498   1.340  -2.358  0.00  0.00    -0.045 C 
BRANCH  35  36
ATOM     36  C   UNL     1       2.489   2.060  -1.008  0.00  0.00    +0.102 C 
ATOM     37  C   UNL     1       2.568   3.586  -1.228  0.00  0.00    +0.032 C 
ATOM     38  C   UNL     1       3.512   4.036  -0.080  0.00  0.00    +0.030 C 
ATOM     39  C   UNL     1       4.465   2.818   0.011  0.00  0.00    +0.160 C 
ATOM     40  O   UNL     1       3.635   1.671  -0.243  0.00  0.00    -0.378 OA
ENDBRANCH  35  36
ENDBRANCH   1  35
TORSDOF 11
