REMARK  Name = ZINC13881959
REMARK  7 active torsions:
REMARK  status: ('A' for Active; 'I' for Inactive)
REMARK    1  A    between atoms: C_6  and  O_11
REMARK    2  A    between atoms: O_11  and  C_12
REMARK    3  A    between atoms: C_12  and  C_13
REMARK    4  A    between atoms: C_17  and  C_19
REMARK    5  A    between atoms: C_22  and  C_29
REMARK    6  A    between atoms: C_22  and  O_32
REMARK    7  A    between atoms: C_24  and  C_26
REMARK                            x       y       z     vdW  Elec       q    Type
REMARK                         _______ _______ _______ _____ _____    ______ ____
ROOT
ATOM      1  C   UNL     1       1.166   3.161   0.030  0.00  0.00    -0.010 A 
ATOM      2  C   UNL     1       1.175   1.778   0.060  0.00  0.00    +0.007 A 
ATOM      3  C   UNL     1      -0.016   1.073   0.084  0.00  0.00    +0.001 A 
ATOM      4  C   UNL     1      -1.220   1.746   0.074  0.00  0.00    +0.013 A 
ATOM      5  C   UNL     1      -1.235   3.142   0.050  0.00  0.00    +0.039 A 
ATOM      6  C   UNL     1      -0.030   3.847   0.025  0.00  0.00    +0.020 A 
ENDROOT
BRANCH   5   7
ATOM      7  C   UNL     1      -2.522   3.870   0.045  0.00  0.00    +0.269 C 
ATOM      8  O   UNL     1      -2.534   5.083   0.125  0.00  0.00    -0.268 OA
ATOM      9  N   UNL     1      -3.681   3.189  -0.049  0.00  0.00    -0.151 N 
ATOM     10  C   UNL     1      -5.022   3.788  -0.150  0.00  0.00    +0.222 C 
ATOM     11  C   UNL     1      -5.952   2.561  -0.229  0.00  0.00    +0.121 C 
ATOM     12  C   UNL     1      -5.004   1.384  -0.161  0.00  0.00    +0.107 C 
ATOM     13  N   UNL     1      -3.808   1.802  -0.072  0.00  0.00    -0.178 NA
BRANCH  12  14
ATOM     14  C   UNL     1      -5.416  -0.065  -0.201  0.00  0.00    +0.387 C 
ATOM     15  F   UNL     1      -4.500  -0.830   0.528  0.00  0.00    -0.203 F 
ATOM     16  F   UNL     1      -6.690  -0.203   0.360  0.00  0.00    -0.203 F 
ENDBRANCH  12  14
BRANCH  10  17
ATOM     17  C   UNL     1      -5.334   4.627   1.090  0.00  0.00    +0.393 C 
ATOM     18  F   UNL     1      -4.409   5.672   1.191  0.00  0.00    -0.204 F 
ATOM     19  F   UNL     1      -6.625   5.157   0.983  0.00  0.00    -0.204 F 
ENDBRANCH  10  17
BRANCH  10  20
ATOM     20  O   UNL     1      -5.132   4.581  -1.334  0.00  0.00    -0.365 OA
ATOM     21  H   UNL     1      -4.516   5.325  -1.368  0.00  0.00    +0.212 HD
ENDBRANCH  10  20
ENDBRANCH   5   7
BRANCH   1  22
ATOM     22  C   UNL     1       2.468   3.921   0.003  0.00  0.00    +0.264 C 
BRANCH  22  23
ATOM     23  O   UNL     1       2.868   4.132  -1.353  0.00  0.00    -0.487 OA
BRANCH  23  29
ATOM     24  C   UNL     1       8.040   7.117  -3.407  0.00  0.00    +0.001 A 
ATOM     25  C   UNL     1       7.306   6.670  -4.505  0.00  0.00    +0.001 A 
ATOM     26  C   UNL     1       6.138   5.992  -4.338  0.00  0.00    +0.008 A 
ATOM     27  C   UNL     1       5.662   5.736  -3.041  0.00  0.00    -0.014 A 
ATOM     28  C   UNL     1       4.464   5.033  -2.830  0.00  0.00    +0.054 A 
ATOM     29  C   UNL     1       4.029   4.807  -1.555  0.00  0.00    +0.122 A 
ATOM     30  C   UNL     1       4.768   5.256  -0.455  0.00  0.00    +0.046 A 
ATOM     31  C   UNL     1       5.934   5.934  -0.626  0.00  0.00    +0.012 A 
ATOM     32  C   UNL     1       6.408   6.189  -1.924  0.00  0.00    -0.018 A 
ATOM     33  C   UNL     1       7.610   6.887  -2.137  0.00  0.00    +0.008 A 
ENDBRANCH  23  29
ENDBRANCH  22  23
ENDBRANCH   1  22
TORSDOF 7
