REMARK  Name = ZINC36993280
REMARK  5 active torsions:
REMARK  status: ('A' for Active; 'I' for Inactive)
REMARK    1  A    between atoms: C_1  and  C_2
REMARK    2  A    between atoms: C_2  and  C_4
REMARK    3  A    between atoms: C_2  and  N_8
REMARK    4  A    between atoms: C_4  and  C_7
REMARK    5  A    between atoms: N_8  and  C_9
REMARK                            x       y       z     vdW  Elec       q    Type
REMARK                         _______ _______ _______ _____ _____    ______ ____
ROOT
ATOM      1  C   UNL     1      -0.020  -0.613  -2.403  0.00  0.00    +0.050 A 
ATOM      2  C   UNL     1      -1.371  -0.295  -2.451  0.00  0.00    +0.072 A 
ATOM      3  C   UNL     1      -2.069  -0.431  -3.638  0.00  0.00    +0.144 A 
ATOM      4  C   UNL     1      -1.414  -0.887  -4.781  0.00  0.00    +0.077 A 
ATOM      5  C   UNL     1      -0.067  -1.203  -4.731  0.00  0.00    +0.048 A 
ATOM      6  C   UNL     1       0.631  -1.061  -3.546  0.00  0.00    +0.064 A 
ATOM      7 CL   UNL     1       2.322  -1.450  -3.483  0.00  0.00    -0.082 Cl
ATOM      8  N   UNL     1      -2.137  -1.021  -5.978  0.00  0.00    -0.280 N 
ATOM      9  C   UNL     1      -3.342  -0.420  -6.085  0.00  0.00    +0.255 C 
ATOM     10  O   UNL     1      -3.999  -0.548  -7.097  0.00  0.00    -0.272 OA
ATOM     11  C   UNL     1      -3.869   0.409  -4.941  0.00  0.00    +0.325 C 
ATOM     12  O   UNL     1      -3.392  -0.123  -3.703  0.00  0.00    -0.481 OA
ATOM     13  H   UNL     1      -1.777  -1.537  -6.716  0.00  0.00    +0.155 HD
ENDROOT
BRANCH   1  14
ATOM     14  N   UNL     1       0.688  -0.476  -1.203  0.00  0.00    -0.340 N 
ATOM     15  H   UNL     1       1.632  -0.695  -1.170  0.00  0.00    +0.146 HD
BRANCH  14  17
ATOM     16  C   UNL     1      -0.019   1.526   0.010  0.00  0.00    +0.028 C 
ATOM     17  C   UNL     1       0.002  -0.004   0.002  0.00  0.00    +0.073 C 
BRANCH  17  18
ATOM     18  C   UNL     1       0.742  -0.511   1.242  0.00  0.00    -0.014 C 
ATOM     19  C   UNL     1       1.469   0.524   2.103  0.00  0.00    +0.009 C 
ATOM     20  C   UNL     1       0.178  -0.122   2.610  0.00  0.00    +0.009 C 
ATOM     21  C   UNL     1       1.381  -1.895   1.109  0.00  0.00    +0.013 C 
ENDBRANCH  17  18
ENDBRANCH  14  17
ENDBRANCH   1  14
TORSDOF 3
