REMARK  Name = ZINC20830345
REMARK  11 active torsions:
REMARK  status: ('A' for Active; 'I' for Inactive)
REMARK    1  A    between atoms: C_1  and  C_2
REMARK    2  A    between atoms: C_2  and  C_3
REMARK    3  A    between atoms: C_3  and  C_5
REMARK    4  A    between atoms: C_3  and  C_6
REMARK    5  A    between atoms: C_9  and  N_12
REMARK    6  A    between atoms: C_13  and  C_15
REMARK    7  A    between atoms: C_15  and  C_16
REMARK    8  A    between atoms: C_16  and  S_17
REMARK    9  A    between atoms: S_17  and  C_18
REMARK   10  A    between atoms: C_21  and  C_24
REMARK   11  A    between atoms: N_22  and  N_23
REMARK                            x       y       z     vdW  Elec       q    Type
REMARK                         _______ _______ _______ _____ _____    ______ ____
ROOT
ATOM      1  C   UNL     1       3.225   2.856  -0.357  0.00  0.00    +0.086 C 
ENDROOT
BRANCH   1   2
ATOM      2  C   UNL     1       2.413   1.609  -0.002  0.00  0.00    +0.107 C 
BRANCH   2   4
ATOM      3  N   UNL     1       0.034   0.934   0.059  0.00  0.00    -0.285 N 
ATOM      4  C   UNL     1       0.946   1.894  -0.194  0.00  0.00    +0.218 C 
ATOM      5  O   UNL     1       0.585   2.987  -0.577  0.00  0.00    -0.275 OA
ATOM      6  H   UNL     1       0.363  -0.080   0.329  0.00  0.00    +0.155 HD
BRANCH   3  10
ATOM      7  C   UNL     1      -4.032   1.809  -0.179  0.00  0.00    -0.044 A 
ATOM      8  C   UNL     1      -3.577   0.548  -0.518  0.00  0.00    +0.006 A 
ATOM      9  C   UNL     1      -2.229   0.255  -0.441  0.00  0.00    +0.023 A 
ATOM     10  C   UNL     1      -1.332   1.228  -0.021  0.00  0.00    +0.033 A 
ATOM     11  C   UNL     1      -1.793   2.491   0.325  0.00  0.00    +0.023 A 
ATOM     12  C   UNL     1      -3.141   2.780   0.240  0.00  0.00    +0.006 A 
BRANCH   7  13
ATOM     13  C   UNL     1      -5.503   2.126  -0.265  0.00  0.00    +0.016 C 
ATOM     14  C   UNL     1      -5.721   3.277  -1.249  0.00  0.00    +0.012 C 
BRANCH  13  16
ATOM     15  C   UNL     1      -7.535   2.732   1.057  0.00  0.00    +0.004 C 
ATOM     16  C   UNL     1      -6.019   2.532   1.117  0.00  0.00    +0.004 C 
ENDBRANCH  13  16
ENDBRANCH   7  13
ENDBRANCH   3  10
ENDBRANCH   2   4
ENDBRANCH   1   2
BRANCH   1  17
ATOM     17  S   UNL     1       4.988   2.514  -0.126  0.00  0.00    -0.084 S 
BRANCH  17  18
ATOM     18  C   UNL     1       5.665   4.072  -0.591  0.00  0.00    +0.209 A 
ATOM     19  N   UNL     1       4.992   5.128  -0.989  0.00  0.00    -0.121 NA
ATOM     20  N   UNL     1       5.798   6.095  -1.246  0.00  0.00    -0.127 NA
ATOM     21  C   UNL     1       7.036   5.713  -1.038  0.00  0.00    +0.183 A 
ATOM     22  N   UNL     1       6.990   4.406  -0.612  0.00  0.00    -0.224 N 
BRANCH  21  23
ATOM     23  C   UNL     1       8.252   6.533  -1.225  0.00  0.00    +0.035 A 
ATOM     24  C   UNL     1       9.348   6.014  -1.917  0.00  0.00    +0.013 A 
ATOM     25  C   UNL     1      10.479   6.785  -2.088  0.00  0.00    +0.001 A 
ATOM     26  C   UNL     1      10.529   8.070  -1.577  0.00  0.00    +0.001 A 
ATOM     27  C   UNL     1       9.447   8.591  -0.891  0.00  0.00    +0.016 A 
ATOM     28  C   UNL     1       8.307   7.833  -0.716  0.00  0.00    +0.029 A 
ATOM     29 BR   UNL     1       6.825   8.549   0.215  0.00  0.00    -0.050 Br
ENDBRANCH  21  23
BRANCH  22  30
ATOM     30  N   UNL     1       8.047   3.608  -0.280  0.00  0.00    -0.295 N 
ATOM     31  H   UNL     1       9.073   4.001  -0.340  0.00  0.00    +0.163 HD
ATOM     32  H   UNL     1       7.873   2.572   0.048  0.00  0.00    +0.163 HD
ENDBRANCH  22  30
ENDBRANCH  17  18
ENDBRANCH   1  17
TORSDOF 9
