REMARK  Name = ZINC37500791
REMARK  3 active torsions:
REMARK  status: ('A' for Active; 'I' for Inactive)
REMARK    1  A    between atoms: C_4  and  N_8
REMARK    2  A    between atoms: C_9  and  C_11
REMARK    3  A    between atoms: C_17  and  C_19
REMARK                            x       y       z     vdW  Elec       q    Type
REMARK                         _______ _______ _______ _____ _____    ______ ____
ROOT
ATOM      1  N   UNL     1       3.060  -1.686   1.131  0.00  0.00    -0.284 N 
ATOM      2  C   UNL     1       3.593  -2.088  -0.040  0.00  0.00    +0.221 C 
ATOM      3  O   UNL     1       3.061  -1.781  -1.086  0.00  0.00    -0.275 OA
ATOM      4  H   UNL     1       3.528  -1.863   1.962  0.00  0.00    +0.155 HD
ENDROOT
BRANCH   1   8
ATOM      5  C   UNL     1      -0.595   0.315   1.181  0.00  0.00    +0.016 A 
ATOM      6  C   UNL     1       0.305   0.497   2.215  0.00  0.00    +0.018 A 
ATOM      7  C   UNL     1       1.518  -0.165   2.201  0.00  0.00    +0.039 A 
ATOM      8  C   UNL     1       1.832  -1.015   1.147  0.00  0.00    +0.049 A 
ATOM      9  C   UNL     1       0.927  -1.195   0.111  0.00  0.00    +0.039 A 
ATOM     10  C   UNL     1      -0.285  -0.530   0.130  0.00  0.00    +0.020 A 
ATOM     11 BR   UNL     1      -1.519  -0.776  -1.281  0.00  0.00    -0.050 Br
ATOM     12 BR   UNL     1       2.748   0.085   3.615  0.00  0.00    -0.048 Br
ENDBRANCH   1   8
BRANCH   2  13
ATOM     13  C   UNL     1       4.850  -2.919  -0.051  0.00  0.00    +0.093 C 
ATOM     14  C   UNL     1       5.694  -2.561  -1.276  0.00  0.00    +0.040 C 
ATOM     15  C   UNL     1       5.027  -3.056  -2.526  0.00  0.00    -0.030 C 
ATOM     16  C   UNL     1       4.090  -3.950  -2.543  0.00  0.00    -0.030 C 
ATOM     17  C   UNL     1       3.534  -4.608  -1.314  0.00  0.00    +0.042 C 
ATOM     18  C   UNL     1       4.484  -4.407  -0.127  0.00  0.00    +0.118 C 
BRANCH  18  19
ATOM     19  C   UNL     1       3.805  -4.827   1.152  0.00  0.00    +0.360 C 
ATOM     20  O   UNL     1       2.977  -5.722   1.136  0.00  0.00    -0.246 OA
ATOM     21  O   UNL     1       4.085  -4.273   2.201  0.00  0.00    -0.246 OA
ENDBRANCH  18  19
ENDBRANCH   2  13
TORSDOF 3
