REMARK  Name = ZINC12652311
REMARK  5 active torsions:
REMARK  status: ('A' for Active; 'I' for Inactive)
REMARK    1  A    between atoms: C_1  and  C_2
REMARK    2  A    between atoms: C_2  and  C_3
REMARK    3  A    between atoms: C_3  and  N_4
REMARK    4  A    between atoms: C_17  and  C_19
REMARK    5  A    between atoms: C_29  and  C_32
REMARK                            x       y       z     vdW  Elec       q    Type
REMARK                         _______ _______ _______ _____ _____    ______ ____
ROOT
ATOM      1  N   UNL     1       5.701   8.335   2.776  0.00  0.00    -0.299 N 
ATOM      2  C   UNL     1       5.399   7.878   1.545  0.00  0.00    +0.307 C 
ATOM      3  O   UNL     1       6.262   7.817   0.690  0.00  0.00    -0.252 OA
ATOM      4  N   UNL     1       4.141   7.488   1.261  0.00  0.00    -0.242 N 
ATOM      5  C   UNL     1       3.158   7.562   2.249  0.00  0.00    +0.060 A 
ATOM      6  C   UNL     1       2.747   8.777   2.773  0.00  0.00    +0.025 A 
ATOM      7  C   UNL     1       1.737   8.803   3.719  0.00  0.00    +0.002 A 
ATOM      8  C   UNL     1       1.137   7.629   4.136  0.00  0.00    +0.002 A 
ATOM      9  C   UNL     1       1.557   6.412   3.627  0.00  0.00    +0.025 A 
ATOM     10  C   UNL     1       2.584   6.383   2.699  0.00  0.00    +0.053 A 
ATOM     11  N   UNL     1       3.130   5.193   2.233  0.00  0.00    -0.316 N 
ATOM     12  C   UNL     1       3.104   4.778   0.941  0.00  0.00    +0.017 C 
ATOM     13  C   UNL     1       3.412   5.548  -0.117  0.00  0.00    +0.037 C 
ATOM     14  C   UNL     1       3.828   6.999  -0.066  0.00  0.00    +0.148 C 
ATOM     15  C   UNL     1       3.348   5.017  -1.427  0.00  0.00    +0.163 C 
ATOM     16  O   UNL     1       3.655   5.729  -2.363  0.00  0.00    -0.292 OA
ATOM     17  C   UNL     1       2.915   3.609  -1.701  0.00  0.00    +0.091 C 
ATOM     18  C   UNL     1       1.966   3.163  -0.583  0.00  0.00    +0.068 C 
ATOM     19  C   UNL     1       2.703   3.326   0.745  0.00  0.00    +0.063 C 
ATOM     20  H   UNL     1       5.013   8.383   3.458  0.00  0.00    +0.150 HD
ATOM     21  H   UNL     1       3.563   4.614   2.881  0.00  0.00    +0.152 HD
ENDROOT
BRANCH  14  22
ATOM     22  C   UNL     1       2.710   7.837  -0.629  0.00  0.00    -0.022 A 
ATOM     23  C   UNL     1       1.481   7.864   0.004  0.00  0.00    +0.007 A 
ATOM     24  C   UNL     1       0.456   8.637  -0.509  0.00  0.00    +0.020 A 
ATOM     25  C   UNL     1       0.657   9.375  -1.662  0.00  0.00    +0.041 A 
ATOM     26  C   UNL     1       1.886   9.343  -2.298  0.00  0.00    +0.020 A 
ATOM     27  C   UNL     1       2.911   8.574  -1.781  0.00  0.00    +0.007 A 
ATOM     28 CL   UNL     1      -0.631  10.341  -2.311  0.00  0.00    -0.084 Cl
ENDBRANCH  14  22
BRANCH  18  29
ATOM     29  C   UNL     1       1.585   1.718  -0.781  0.00  0.00    +0.109 A 
ATOM     30  C   UNL     1       0.333   1.248  -0.926  0.00  0.00    +0.045 A 
ATOM     31  C   UNL     1       0.438  -0.153  -1.085  0.00  0.00    +0.041 A 
ATOM     32  C   UNL     1       1.747  -0.455  -1.028  0.00  0.00    +0.195 A 
ATOM     33  O   UNL     1       2.437   0.683  -0.844  0.00  0.00    -0.468 OA
ENDBRANCH  18  29
BRANCH   1  34
ATOM     34  C   UNL     1       7.069   8.759   3.085  0.00  0.00    +0.105 C 
BRANCH  34  36
ATOM     35  C   UNL     1       8.569   9.673   4.862  0.00  0.00    +0.005 C 
ATOM     36  C   UNL     1       7.141   9.230   4.539  0.00  0.00    +0.015 C 
ENDBRANCH  34  36
ENDBRANCH   1  34
TORSDOF 4
