REMARK  Name = ZINC09542902
REMARK  6 active torsions:
REMARK  status: ('A' for Active; 'I' for Inactive)
REMARK    1  A    between atoms: C_1  and  O_2
REMARK    2  A    between atoms: O_2  and  C_3
REMARK    3  A    between atoms: C_6  and  C_9
REMARK    4  A    between atoms: C_11  and  C_24
REMARK    5  A    between atoms: C_13  and  C_16
REMARK    6  A    between atoms: C_21  and  O_22
REMARK                            x       y       z     vdW  Elec       q    Type
REMARK                         _______ _______ _______ _____ _____    ______ ____
ROOT
ATOM      1  C   UNL     1       1.514   0.043   6.114  0.00  0.00    +0.040 C 
ATOM      2  N   UNL     1       0.940   0.445   7.186  0.00  0.00    -0.299 NA
ATOM      3  C   UNL     1       1.407   0.132   8.531  0.00  0.00    +0.081 C 
ATOM      4  C   UNL     1       3.395  -0.774   7.507  0.00  0.00    -0.028 C 
ATOM      5  C   UNL     1       2.753  -0.809   6.117  0.00  0.00    +0.044 C 
ATOM      6  N   UNL     1       2.337  -1.007   8.510  0.00  0.00    +0.401 N 
ATOM      7  H   UNL     1       1.822  -1.862   8.269  0.00  0.00    -0.081 HD
ATOM      8  H   UNL     1       2.765  -1.115   9.437  0.00  0.00    -0.081 HD
ENDROOT
BRANCH   3   9
ATOM      9  C   UNL     1       2.110   1.338   9.099  0.00  0.00    -0.039 A 
ATOM     10  C   UNL     1       3.117   1.175  10.033  0.00  0.00    +0.006 A 
ATOM     11  C   UNL     1       3.766   2.279  10.551  0.00  0.00    +0.040 A 
ATOM     12  C   UNL     1       3.401   3.551  10.143  0.00  0.00    +0.137 A 
ATOM     13  C   UNL     1       2.389   3.714   9.211  0.00  0.00    +0.053 A 
ATOM     14  C   UNL     1       1.744   2.607   8.690  0.00  0.00    +0.022 A 
ATOM     15 BR   UNL     1       1.889   5.450   8.652  0.00  0.00    -0.047 Br
ATOM     16  F   UNL     1       4.031   4.631  10.653  0.00  0.00    -0.204 F 
ENDBRANCH   3   9
BRANCH   4  17
ATOM     17  C   UNL     1       4.438  -1.856   7.613  0.00  0.00    -0.018 A 
ATOM     18  C   UNL     1       4.111  -3.079   8.166  0.00  0.00    +0.025 A 
ATOM     19  C   UNL     1       5.067  -4.075   8.259  0.00  0.00    +0.041 A 
ATOM     20  C   UNL     1       6.356  -3.844   7.809  0.00  0.00    +0.023 A 
ATOM     21  C   UNL     1       6.688  -2.620   7.261  0.00  0.00    +0.047 A 
ATOM     22  C   UNL     1       5.729  -1.622   7.162  0.00  0.00    +0.119 A 
ATOM     23 CL   UNL     1       4.653  -5.614   8.947  0.00  0.00    -0.084 Cl
BRANCH  22  24
ATOM     24  O   UNL     1       6.053  -0.417   6.623  0.00  0.00    -0.507 OA
ATOM     25  H   UNL     1       6.374   0.228   7.268  0.00  0.00    +0.292 HD
ENDBRANCH  22  24
ENDBRANCH   4  17
BRANCH   1  29
ATOM     26  C   UNL     1      -0.149   1.183   2.378  0.00  0.00    +0.120 A 
ATOM     27  C   UNL     1       0.992   0.391   2.416  0.00  0.00    +0.046 A 
ATOM     28  C   UNL     1       1.538   0.024   3.626  0.00  0.00    +0.013 A 
ATOM     29  C   UNL     1       0.936   0.439   4.817  0.00  0.00    -0.004 A 
ATOM     30  C   UNL     1      -0.215   1.230   4.774  0.00  0.00    +0.013 A 
ATOM     31  C   UNL     1      -0.751   1.597   3.560  0.00  0.00    +0.046 A 
BRANCH  26  33
ATOM     32  C   UNL     1      -0.013   1.086   0.008  0.00  0.00    +0.277 C 
ATOM     33  O   UNL     1      -0.682   1.547   1.184  0.00  0.00    -0.495 OA
ENDBRANCH  26  33
ENDBRANCH   1  29
TORSDOF 5
