REMARK  Name = ZINC35887761
REMARK  11 active torsions:
REMARK  status: ('A' for Active; 'I' for Inactive)
REMARK    1  A    between atoms: C_1  and  C_2
REMARK    2  A    between atoms: C_5  and  C_8
REMARK    3  A    between atoms: N_10  and  C_11
REMARK    4  A    between atoms: N_10  and  C_35
REMARK    5  A    between atoms: C_11  and  C_12
REMARK    6  A    between atoms: N_15  and  C_25
REMARK    7  A    between atoms: C_17  and  C_19
REMARK    8  A    between atoms: C_25  and  C_26
REMARK    9  A    between atoms: C_35  and  C_36
REMARK   10  A    between atoms: C_36  and  C_37
REMARK   11  A    between atoms: C_36  and  C_38
REMARK                            x       y       z     vdW  Elec       q    Type
REMARK                         _______ _______ _______ _____ _____    ______ ____
ROOT
ATOM      1  C   UNL     1       1.238  -7.123   1.295  0.00  0.00    -0.005 C 
ATOM      2  C   UNL     1       1.704  -7.052   2.765  0.00  0.00    -0.073 C 
ATOM      3  N   UNL     1       1.217  -8.317   3.373  0.00  0.00    +0.383 N 
ATOM      4  C   UNL     1       1.442  -9.339   2.319  0.00  0.00    -0.070 C 
ATOM      5  C   UNL     1       1.067  -8.627   0.999  0.00  0.00    +0.005 C 
ATOM      6  H   UNL     1       0.235  -8.248   3.594  0.00  0.00    -0.081 HD
ENDROOT
BRANCH   5   7
ATOM      7  C   UNL     1       1.996  -9.052  -0.110  0.00  0.00    -0.046 A 
ATOM      8  C   UNL     1       3.363  -8.913   0.043  0.00  0.00    +0.004 A 
ATOM      9  C   UNL     1       4.215  -9.303  -0.973  0.00  0.00    +0.000 A 
ATOM     10  C   UNL     1       3.700  -9.831  -2.142  0.00  0.00    +0.000 A 
ATOM     11  C   UNL     1       2.333  -9.971  -2.295  0.00  0.00    +0.000 A 
ATOM     12  C   UNL     1       1.481  -9.585  -1.276  0.00  0.00    +0.004 A 
ENDBRANCH   5   7
BRANCH   1  13
ATOM     13  C   UNL     1      -0.095  -6.392   1.123  0.00  0.00    +0.110 C 
BRANCH  13  16
ATOM     14  C   UNL     1       0.555  -4.234   0.198  0.00  0.00    +0.247 C 
ATOM     15  O   UNL     1       0.671  -4.765  -0.889  0.00  0.00    -0.270 OA
ATOM     16  N   UNL     1       0.119  -4.949   1.254  0.00  0.00    -0.297 N 
BRANCH  14  21
ATOM     17  C   UNL     1       1.870   1.332   0.837  0.00  0.00    +0.044 C 
ATOM     18  C   UNL     1       1.526  -0.126   0.669  0.00  0.00    -0.050 A 
ATOM     19  C   UNL     1       0.347  -0.620   1.199  0.00  0.00    +0.004 A 
ATOM     20  C   UNL     1       0.026  -1.954   1.049  0.00  0.00    +0.013 A 
ATOM     21  C   UNL     1       0.893  -2.804   0.361  0.00  0.00    +0.037 A 
ATOM     22  C   UNL     1       2.080  -2.299  -0.171  0.00  0.00    +0.013 A 
ATOM     23  C   UNL     1       2.387  -0.962  -0.019  0.00  0.00    +0.004 A 
ENDBRANCH  14  21
BRANCH  16  24
ATOM     24  C   UNL     1      -0.141  -4.282   2.532  0.00  0.00    +0.111 C 
BRANCH  24  25
ATOM     25  C   UNL     1      -1.638  -3.996   2.663  0.00  0.00    +0.000 C 
ATOM     26  C   UNL     1      -2.403  -5.317   2.762  0.00  0.00    +0.009 C 
ATOM     27  C   UNL     1      -1.890  -3.164   3.922  0.00  0.00    +0.009 C 
ENDBRANCH  24  25
ENDBRANCH  16  24
ENDBRANCH  13  16
ENDBRANCH   1  13
BRANCH   3  28
ATOM     28  C   UNL     1       1.995  -8.641   4.577  0.00  0.00    -0.043 C 
BRANCH  28  29
ATOM     29  C   UNL     1       1.406  -9.858   5.243  0.00  0.00    -0.060 A 
ATOM     30  C   UNL     1       0.416  -9.711   6.197  0.00  0.00    +0.005 A 
ATOM     31  C   UNL     1      -0.128 -10.824   6.810  0.00  0.00    +0.050 A 
ATOM     32  C   UNL     1       0.320 -12.090   6.471  0.00  0.00    +0.166 A 
ATOM     33  C   UNL     1       1.317 -12.238   5.510  0.00  0.00    +0.166 A 
ATOM     34  C   UNL     1       1.853 -11.119   4.895  0.00  0.00    +0.051 A 
ATOM     35  O   UNL     1       1.580 -13.569   5.356  0.00  0.00    -0.453 OA
ATOM     36  C   UNL     1       1.025 -14.208   6.521  0.00  0.00    +0.466 C 
ATOM     37  O   UNL     1      -0.043 -13.328   6.918  0.00  0.00    -0.453 OA
ENDBRANCH  28  29
ENDBRANCH   3  28
TORSDOF 8
