REMARK  Name = ZINC12885214
REMARK  3 active torsions:
REMARK  status: ('A' for Active; 'I' for Inactive)
REMARK    1  A    between atoms: C_4  and  N_7
REMARK    2  A    between atoms: C_12  and  C_29
REMARK    3  A    between atoms: C_29  and  C_30
REMARK                            x       y       z     vdW  Elec       q    Type
REMARK                         _______ _______ _______ _____ _____    ______ ____
ROOT
ATOM      1  N   UNL     1       6.338   1.849  -3.064  0.00  0.00    -0.210 N 
ATOM      2  C   UNL     1       6.027   1.966  -1.768  0.00  0.00    +0.228 C 
ATOM      3  O   UNL     1       5.937   1.046  -0.984  0.00  0.00    -0.275 OA
ATOM      4  C   UNL     1       5.804   3.424  -1.434  0.00  0.00    +0.074 C 
ATOM      5  C   UNL     1       4.308   3.651  -1.132  0.00  0.00    -0.053 C 
ATOM      6  C   UNL     1       4.690   4.748  -3.159  0.00  0.00    +0.050 C 
ATOM      7  C   UNL     1       6.050   4.143  -2.790  0.00  0.00    +0.088 C 
ATOM      8  C   UNL     1       6.377   3.007  -3.733  0.00  0.00    +0.229 C 
ATOM      9  O   UNL     1       6.636   3.128  -4.911  0.00  0.00    -0.275 OA
ATOM     10  C   UNL     1       4.844   6.076  -3.844  0.00  0.00    -0.026 A 
ATOM     11  C   UNL     1       5.422   7.271  -3.478  0.00  0.00    +0.004 A 
ATOM     12  C   UNL     1       5.404   8.346  -4.349  0.00  0.00    +0.002 A 
ATOM     13  C   UNL     1       4.804   8.217  -5.588  0.00  0.00    +0.022 A 
ATOM     14  C   UNL     1       4.225   7.021  -5.961  0.00  0.00    +0.062 A 
ATOM     15  C   UNL     1       4.238   5.934  -5.089  0.00  0.00    +0.054 A 
ATOM     16  N   UNL     1       3.726   4.642  -5.232  0.00  0.00    -0.285 N 
ATOM     17  C   UNL     1       3.951   3.883  -4.143  0.00  0.00    +0.211 C 
ATOM     18  O   UNL     1       3.622   2.726  -3.985  0.00  0.00    -0.277 OA
ATOM     19 CL   UNL     1       3.475   6.871  -7.520  0.00  0.00    -0.082 Cl
ATOM     20  H   UNL     1       3.263   4.328  -6.024  0.00  0.00    +0.155 HD
ATOM     21  N   UNL     1       3.969   4.850  -1.902  0.00  0.00    +0.394 N 
ATOM     22  H   UNL     1       4.260   5.692  -1.393  0.00  0.00    -0.083 HD
ATOM     23  H   UNL     1       2.958   4.886  -2.075  0.00  0.00    -0.083 HD
ENDROOT
BRANCH   1  27
ATOM     24  C   UNL     1       7.118  -1.825  -4.873  0.00  0.00    +0.000 A 
ATOM     25  C   UNL     1       5.845  -1.537  -4.416  0.00  0.00    +0.002 A 
ATOM     26  C   UNL     1       5.583  -0.321  -3.816  0.00  0.00    +0.024 A 
ATOM     27  C   UNL     1       6.600   0.614  -3.673  0.00  0.00    +0.044 A 
ATOM     28  C   UNL     1       7.876   0.324  -4.138  0.00  0.00    +0.024 A 
ATOM     29  C   UNL     1       8.133  -0.896  -4.731  0.00  0.00    +0.002 A 
ENDBRANCH   1  27
BRANCH   5  30
ATOM     30  C   UNL     1       4.095   3.871   0.367  0.00  0.00    +0.022 C 
BRANCH  30  31
ATOM     31  C   UNL     1       2.619   3.968   0.656  0.00  0.00    -0.024 A 
ATOM     32  C   UNL     1       1.896   5.095   0.750  0.00  0.00    +0.087 A 
ATOM     33  N   UNL     1       0.590   4.790   1.023  0.00  0.00    -0.360 N 
ATOM     34  H   UNL     1      -0.122   5.439   1.135  0.00  0.00    +0.165 HD
ATOM     35  C   UNL     1       0.437   3.425   1.114  0.00  0.00    +0.047 A 
ATOM     36  C   UNL     1       1.702   2.850   0.889  0.00  0.00    +0.003 A 
ATOM     37  C   UNL     1       1.851   1.462   0.921  0.00  0.00    +0.010 A 
ATOM     38  C   UNL     1       0.767   0.669   1.171  0.00  0.00    +0.001 A 
ATOM     39  C   UNL     1      -0.483   1.231   1.389  0.00  0.00    +0.002 A 
ATOM     40  C   UNL     1      -0.652   2.598   1.367  0.00  0.00    +0.026 A 
ENDBRANCH  30  31
ENDBRANCH   5  30
TORSDOF 3
