REMARK  Name = ZINC08742740
REMARK  6 active torsions:
REMARK  status: ('A' for Active; 'I' for Inactive)
REMARK    1  A    between atoms: C_1  and  C_2
REMARK    2  A    between atoms: C_4  and  C_17
REMARK    3  A    between atoms: C_5  and  C_16
REMARK    4  A    between atoms: N_6  and  C_7
REMARK    5  A    between atoms: C_11  and  N_13
REMARK    6  A    between atoms: N_23  and  C_24
REMARK                            x       y       z     vdW  Elec       q    Type
REMARK                         _______ _______ _______ _____ _____    ______ ____
ROOT
ATOM      1  C   UNL     1      -0.018   1.503   0.010  0.00  0.00    +0.064 C 
ATOM      2  C   UNL     1       0.002  -0.004   0.002  0.00  0.00    +0.022 A 
ATOM      3  C   UNL     1       0.008  -0.772  -1.099  0.00  0.00    +0.031 A 
ATOM      4  C   UNL     1       0.029  -2.167  -0.634  0.00  0.00    -0.003 A 
ATOM      5  C   UNL     1       0.034  -2.096   0.777  0.00  0.00    +0.028 A 
ATOM      6  N   UNL     1       0.024  -0.803   1.121  0.00  0.00    -0.317 N 
ATOM      7  C   UNL     1       0.053  -3.267   1.725  0.00  0.00    +0.064 C 
ENDROOT
BRANCH   4   8
ATOM      8  C   UNL     1       0.041  -3.322  -1.423  0.00  0.00    +0.030 C 
ATOM      9  C   UNL     1       0.034  -3.215  -2.826  0.00  0.00    +0.078 C 
ATOM     10  C   UNL     1       0.038  -4.298  -3.835  0.00  0.00    +0.256 C 
ATOM     11  O   UNL     1       0.048  -5.478  -3.540  0.00  0.00    -0.269 OA
ATOM     12  N   UNL     1       0.029  -3.867  -5.091  0.00  0.00    -0.260 N 
ATOM     13  C   UNL     1       0.017  -2.514  -5.302  0.00  0.00    +0.166 C 
ATOM     14  N   UNL     1       0.006  -1.883  -6.465  0.00  0.00    -0.226 NA
ATOM     15  S   UNL     1       0.011  -1.828  -3.772  0.00  0.00    -0.049 S 
ATOM     16  H   UNL     1       0.030  -4.489  -5.835  0.00  0.00    +0.157 HD
BRANCH  14  17
ATOM     17  C   UNL     1       0.007  -2.584  -7.609  0.00  0.00    +0.067 A 
ATOM     18  C   UNL     1       0.873  -3.687  -7.767  0.00  0.00    +0.029 A 
ATOM     19  C   UNL     1       0.864  -4.393  -8.934  0.00  0.00    +0.017 A 
ATOM     20  C   UNL     1       0.007  -4.029  -9.966  0.00  0.00    +0.018 A 
ATOM     21  C   UNL     1      -0.850  -2.945  -9.823  0.00  0.00    +0.017 A 
ATOM     22  C   UNL     1      -0.863  -2.228  -8.662  0.00  0.00    +0.029 A 
ATOM     23 BR   UNL     1       0.007  -5.018 -11.579  0.00  0.00    -0.050 Br
ENDBRANCH  14  17
ENDBRANCH   4   8
BRANCH   6  24
ATOM     24  C   UNL     1       0.030  -0.329   2.439  0.00  0.00    +0.049 A 
ATOM     25  C   UNL     1       1.133  -0.551   3.253  0.00  0.00    +0.026 A 
ATOM     26  C   UNL     1       1.136  -0.082   4.552  0.00  0.00    +0.004 A 
ATOM     27  C   UNL     1       0.042   0.608   5.042  0.00  0.00    +0.033 A 
ATOM     28  C   UNL     1      -1.058   0.831   4.234  0.00  0.00    +0.128 A 
ATOM     29  C   UNL     1      -1.065   0.370   2.932  0.00  0.00    +0.058 A 
BRANCH  28  30
ATOM     30  N   UNL     1      -2.227   1.569   4.763  0.00  0.00    +0.056 N 
ATOM     31  O   UNL     1      -2.219   2.014   6.002  0.00  0.00    -0.126 OA
ATOM     32  O   UNL     1      -3.274   1.782   3.994  0.00  0.00    -0.126 OA
ENDBRANCH  28  30
ENDBRANCH   6  24
TORSDOF 4
