REMARK  Name = ZINC16884084
REMARK  3 active torsions:
REMARK  status: ('A' for Active; 'I' for Inactive)
REMARK    1  A    between atoms: C_4  and  C_7
REMARK    2  A    between atoms: C_9  and  C_17
REMARK    3  A    between atoms: C_14  and  O_15
REMARK                            x       y       z     vdW  Elec       q    Type
REMARK                         _______ _______ _______ _____ _____    ______ ____
ROOT
ATOM      1  C   UNL     1       2.451   3.937  -0.001  0.00  0.00    +0.133 C 
ATOM      2  C   UNL     1       2.508   4.829  -1.244  0.00  0.00    +0.155 C 
ATOM      3  N   UNL     1       1.598   5.963  -1.068  0.00  0.00    -0.243 NA
ATOM      4  C   UNL     1       1.407   6.490   0.106  0.00  0.00    +0.211 C 
ATOM      5  N   UNL     1       2.002   5.995   1.219  0.00  0.00    -0.183 NA
ATOM      6  C   UNL     1       2.530   4.803   1.232  0.00  0.00    +0.200 C 
ATOM      7  N   UNL     1       0.573   7.583   0.223  0.00  0.00    -0.328 N 
ATOM      8  H   UNL     1       0.140   7.948  -0.565  0.00  0.00    +0.145 HD
ATOM      9  H   UNL     1       0.421   7.986   1.091  0.00  0.00    +0.145 HD
ENDROOT
BRANCH   2  10
ATOM     10  C   UNL     1       2.092   4.033  -2.454  0.00  0.00    -0.022 A 
ATOM     11  C   UNL     1       0.751   3.813  -2.709  0.00  0.00    +0.007 A 
ATOM     12  C   UNL     1       0.369   3.088  -3.821  0.00  0.00    +0.015 A 
ATOM     13  C   UNL     1       1.328   2.571  -4.673  0.00  0.00    +0.018 A 
ATOM     14  C   UNL     1       2.670   2.787  -4.415  0.00  0.00    +0.015 A 
ATOM     15  C   UNL     1       3.051   3.517  -3.305  0.00  0.00    +0.007 A 
ATOM     16 BR   UNL     1       0.806   1.573  -6.192  0.00  0.00    -0.050 Br
ENDBRANCH   2  10
BRANCH   1  20
ATOM     17  C   UNL     1      -1.219   1.751   0.017  0.00  0.00    +0.000 A 
ATOM     18  C   UNL     1      -0.013   1.076   0.008  0.00  0.00    +0.000 A 
ATOM     19  C   UNL     1       1.175   1.783   0.000  0.00  0.00    +0.004 A 
ATOM     20  C   UNL     1       1.156   3.165   0.008  0.00  0.00    -0.033 A 
ATOM     21  C   UNL     1      -0.050   3.840   0.023  0.00  0.00    +0.004 A 
ATOM     22  C   UNL     1      -1.238   3.133   0.030  0.00  0.00    +0.000 A 
ENDBRANCH   1  20
BRANCH   6  23
ATOM     23  O   UNL     1       3.144   4.346   2.338  0.00  0.00    -0.495 OA
ATOM     24  H   UNL     1       3.169   4.939   3.102  0.00  0.00    +0.293 HD
ENDBRANCH   6  23
TORSDOF 3
