REMARK  Name = ZINC20814640
REMARK  11 active torsions:
REMARK  status: ('A' for Active; 'I' for Inactive)
REMARK    1  A    between atoms: C_1  and  C_2
REMARK    2  A    between atoms: C_2  and  C_3
REMARK    3  A    between atoms: C_2  and  C_4
REMARK    4  A    between atoms: C_4  and  C_5
REMARK    5  A    between atoms: C_8  and  C_26
REMARK    6  A    between atoms: C_9  and  N_11
REMARK    7  A    between atoms: N_14  and  C_17
REMARK    8  A    between atoms: C_17  and  N_19
REMARK    9  A    between atoms: N_19  and  C_20
REMARK   10  A    between atoms: C_29  and  C_32
REMARK   11  A    between atoms: C_29  and  C_33
REMARK                            x       y       z     vdW  Elec       q    Type
REMARK                         _______ _______ _______ _____ _____    ______ ____
ROOT
ATOM      1  C   UNL     1       4.786   5.552  -3.436  0.00  0.00    +0.049 A 
ATOM      2  C   UNL     1       6.063   5.052  -3.638  0.00  0.00    +0.004 A 
ATOM      3  C   UNL     1       6.474   3.945  -2.927  0.00  0.00    -0.017 A 
ATOM      4  C   UNL     1       5.581   3.358  -2.022  0.00  0.00    +0.095 A 
ATOM      5  C   UNL     1       4.302   3.921  -1.875  0.00  0.00    +0.139 A 
ATOM      6  N   UNL     1       3.955   4.984  -2.585  0.00  0.00    -0.235 NA
ATOM      7  C   UNL     1       7.851   3.363  -3.097  0.00  0.00    +0.071 C 
ATOM      8  C   UNL     1       8.476   3.888  -4.392  0.00  0.00    +0.068 C 
ATOM      9  O   UNL     1       8.321   5.312  -4.426  0.00  0.00    -0.369 OA
ATOM     10  C   UNL     1       6.971   5.728  -4.631  0.00  0.00    +0.197 C 
ATOM     11  C   UNL     1       9.963   3.532  -4.426  0.00  0.00    +0.041 C 
ATOM     12  C   UNL     1       7.769   3.261  -5.595  0.00  0.00    +0.041 C 
ENDROOT
BRANCH   5  13
ATOM     13  N   UNL     1       3.398   3.359  -0.989  0.00  0.00    -0.311 N 
ATOM     14  C   UNL     1       2.601   4.396  -0.322  0.00  0.00    +0.125 C 
ATOM     15  C   UNL     1       1.746   3.752   0.775  0.00  0.00    +0.125 C 
ATOM     16  N   UNL     1       0.967   2.657   0.177  0.00  0.00    -0.310 N 
ATOM     17  C   UNL     1       1.682   1.648  -0.619  0.00  0.00    +0.125 C 
ATOM     18  C   UNL     1       2.539   2.379  -1.666  0.00  0.00    +0.125 C 
BRANCH  16  19
ATOM     19  C   UNL     1      -0.366   2.577   0.359  0.00  0.00    +0.133 C 
ATOM     20  S   UNL     1      -1.229   1.217  -0.221  0.00  0.00    -0.019 S 
BRANCH  19  21
ATOM     21  N   UNL     1      -1.019   3.565   1.002  0.00  0.00    -0.324 N 
ATOM     22  H   UNL     1      -0.455   4.398   1.448  0.00  0.00    +0.148 HD
BRANCH  21  23
ATOM     23  C   UNL     1      -2.480   3.530   1.108  0.00  0.00    +0.072 C 
ATOM     24  C   UNL     1      -3.097   4.142  -0.151  0.00  0.00    +0.022 C 
ATOM     25  C   UNL     1      -4.622   4.105  -0.041  0.00  0.00    +0.002 C 
ATOM     26  C   UNL     1      -5.064   4.907   1.185  0.00  0.00    +0.000 C 
ATOM     27  C   UNL     1      -4.447   4.296   2.444  0.00  0.00    +0.002 C 
ATOM     28  C   UNL     1      -2.922   4.332   2.333  0.00  0.00    +0.022 C 
ENDBRANCH  21  23
ENDBRANCH  19  21
ENDBRANCH  16  19
ENDBRANCH   5  13
BRANCH   4  29
ATOM     29  C   UNL     1       5.964   2.207  -1.261  0.00  0.00    +0.103 C 
ATOM     30  N   UNL     1       6.268   1.294  -0.658  0.00  0.00    -0.191 NA
ENDBRANCH   4  29
BRANCH   1  31
ATOM     31  C   UNL     1       4.335   6.764  -4.210  0.00  0.00    +0.059 C 
BRANCH  31  33
ATOM     32  C   UNL     1       2.405   5.537  -5.214  0.00  0.00    +0.007 C 
ATOM     33  C   UNL     1       3.683   6.319  -5.521  0.00  0.00    -0.011 C 
ATOM     34  C   UNL     1       3.339   7.550  -6.362  0.00  0.00    +0.007 C 
ENDBRANCH  31  33
ENDBRANCH   1  31
TORSDOF 7
