REMARK  Name = ZINC08718758
REMARK  12 active torsions:
REMARK  status: ('A' for Active; 'I' for Inactive)
REMARK    1  A    between atoms: C_1  and  C_2
REMARK    2  A    between atoms: C_4  and  C_11
REMARK    3  A    between atoms: C_5  and  C_10
REMARK    4  A    between atoms: N_6  and  C_7
REMARK    5  A    between atoms: N_12  and  C_13
REMARK    6  A    between atoms: C_13  and  C_14
REMARK    7  A    between atoms: C_14  and  C_16
REMARK    8  A    between atoms: C_14  and  C_26
REMARK    9  A    between atoms: C_20  and  O_24
REMARK   10  A    between atoms: C_21  and  O_22
REMARK   11  A    between atoms: O_22  and  C_23
REMARK   12  A    between atoms: O_24  and  C_25
REMARK                            x       y       z     vdW  Elec       q    Type
REMARK                         _______ _______ _______ _____ _____    ______ ____
ROOT
ATOM      1  C   UNL     1       1.820  -6.409  -1.237  0.00  0.00    +0.074 C 
ENDROOT
BRANCH   1   2
ATOM      2  C   UNL     1       2.138  -7.578  -2.134  0.00  0.00    -0.013 A 
ATOM      3  C   UNL     1       3.334  -7.740  -2.963  0.00  0.00    +0.003 A 
ATOM      4  C   UNL     1       4.470  -6.961  -3.191  0.00  0.00    +0.010 A 
ATOM      5  C   UNL     1       5.436  -7.405  -4.050  0.00  0.00    +0.001 A 
ATOM      6  C   UNL     1       5.298  -8.624  -4.697  0.00  0.00    +0.002 A 
ATOM      7  C   UNL     1       4.185  -9.409  -4.487  0.00  0.00    +0.026 A 
ATOM      8  C   UNL     1       3.189  -8.977  -3.617  0.00  0.00    +0.047 A 
ATOM      9  N   UNL     1       1.991  -9.516  -3.206  0.00  0.00    -0.360 N 
ATOM     10  C   UNL     1       1.382  -8.672  -2.318  0.00  0.00    +0.088 A 
ATOM     11  H   UNL     1       1.634 -10.369  -3.498  0.00  0.00    +0.165 HD
ENDBRANCH   1   2
BRANCH   1  12
ATOM     12  C   UNL     1       1.676  -6.890   0.184  0.00  0.00    +0.007 A 
ATOM     13  C   UNL     1       0.714  -7.831   0.501  0.00  0.00    +0.008 A 
ATOM     14  C   UNL     1       0.579  -8.274   1.803  0.00  0.00    +0.004 A 
ATOM     15  C   UNL     1       1.405  -7.778   2.795  0.00  0.00    +0.049 A 
ATOM     16  C   UNL     1       2.371  -6.835   2.484  0.00  0.00    +0.162 A 
ATOM     17  C   UNL     1       2.511  -6.393   1.171  0.00  0.00    +0.165 A 
BRANCH  17  18
ATOM     18  O   UNL     1       3.462  -5.472   0.860  0.00  0.00    -0.491 OA
ATOM     19  C   UNL     1       3.083  -4.096   0.944  0.00  0.00    +0.277 C 
ENDBRANCH  17  18
BRANCH  16  20
ATOM     20  O   UNL     1       3.184  -6.346   3.458  0.00  0.00    -0.491 OA
ATOM     21  C   UNL     1       2.987  -6.849   4.781  0.00  0.00    +0.277 C 
ENDBRANCH  16  20
ENDBRANCH   1  12
BRANCH   1  22
ATOM     22  C   UNL     1       0.512  -5.760  -1.691  0.00  0.00    +0.125 C 
BRANCH  22  24
ATOM     23  C   UNL     1       0.264  -3.391  -1.468  0.00  0.00    +0.088 C 
ATOM     24  N   UNL     1       0.264  -4.554  -0.897  0.00  0.00    -0.389 N 
ATOM     25  H   UNL     1       0.100  -4.626   0.056  0.00  0.00    +0.159 HD
BRANCH  23  29
ATOM     26  C   UNL     1      -0.183  -0.213   2.499  0.00  0.00    +0.063 C 
ATOM     27  C   UNL     1      -0.080  -0.786   1.109  0.00  0.00    +0.017 A 
ATOM     28  C   UNL     1       0.059  -2.090   0.807  0.00  0.00    +0.032 A 
ATOM     29  C   UNL     1       0.116  -2.172  -0.656  0.00  0.00    +0.011 A 
ATOM     30  C   UNL     1       0.005  -0.888  -1.113  0.00  0.00    +0.025 A 
ATOM     31  N   UNL     1      -0.117  -0.067  -0.050  0.00  0.00    -0.345 N 
ATOM     32  C   UNL     1       0.011  -0.464  -2.559  0.00  0.00    +0.064 C 
BRANCH  31  33
ATOM     33  C   UNL     1      -0.266   1.388  -0.129  0.00  0.00    +0.087 C 
ATOM     34  C   UNL     1      -1.371   2.032   0.711  0.00  0.00    +0.027 C 
ATOM     35  C   UNL     1      -1.524   1.934  -0.808  0.00  0.00    +0.027 C 
ENDBRANCH  31  33
ENDBRANCH  23  29
ENDBRANCH  22  24
ENDBRANCH   1  22
TORSDOF 8
