REMARK  Name = ZINC63589242
REMARK  10 active torsions:
REMARK  status: ('A' for Active; 'I' for Inactive)
REMARK    1  A    between atoms: C_1  and  C_2
REMARK    2  A    between atoms: C_5  and  C_9
REMARK    3  A    between atoms: C_9  and  N_11
REMARK    4  A    between atoms: N_13  and  C_14
REMARK    5  A    between atoms: C_17  and  C_20
REMARK    6  A    between atoms: C_20  and  C_21
REMARK    7  A    between atoms: C_20  and  C_22
REMARK    8  A    between atoms: N_23  and  C_24
REMARK    9  A    between atoms: C_24  and  C_25
REMARK   10  A    between atoms: C_25  and  C_26
REMARK                            x       y       z     vdW  Elec       q    Type
REMARK                         _______ _______ _______ _____ _____    ______ ____
ROOT
ATOM      1  N   UNL     1       1.283  -4.869   1.155  0.00  0.00    -0.143 NA
ATOM      2  C   UNL     1       0.650  -6.031   1.100  0.00  0.00    +0.194 C 
ATOM      3  N   UNL     1      -0.064  -6.471   2.177  0.00  0.00    -0.328 N 
ATOM      4  N   UNL     1       0.711  -6.788  -0.033  0.00  0.00    -0.357 N 
ATOM      5  H   UNL     1      -0.454  -7.359   2.171  0.00  0.00    +0.169 HD
ATOM      6  H   UNL     1       1.296  -6.525  -0.761  0.00  0.00    +0.162 HD
ENDROOT
BRANCH   3   7
ATOM      7  C   UNL     1      -0.233  -5.641   3.290  0.00  0.00    +0.042 A 
ATOM      8  C   UNL     1      -0.541  -4.298   3.117  0.00  0.00    +0.026 A 
ATOM      9  C   UNL     1      -0.707  -3.482   4.218  0.00  0.00    +0.006 A 
ATOM     10  C   UNL     1      -0.567  -4.000   5.493  0.00  0.00    -0.045 A 
ATOM     11  C   UNL     1      -0.259  -5.337   5.669  0.00  0.00    +0.006 A 
ATOM     12  C   UNL     1      -0.098  -6.160   4.572  0.00  0.00    +0.026 A 
BRANCH  10  13
ATOM     13  C   UNL     1      -0.748  -3.106   6.692  0.00  0.00    +0.013 C 
ATOM     14  C   UNL     1      -1.893  -3.638   7.556  0.00  0.00    +0.012 C 
ATOM     15  C   UNL     1       0.543  -3.085   7.513  0.00  0.00    +0.012 C 
ENDBRANCH  10  13
ENDBRANCH   3   7
BRANCH   1  16
ATOM     16  C   UNL     1       1.835  -4.354   0.048  0.00  0.00    +0.270 C 
ATOM     17  O   UNL     1       1.826  -4.991  -0.990  0.00  0.00    -0.268 OA
BRANCH  16  22
ATOM     18  C   UNL     1       4.245   0.874   0.193  0.00  0.00    +0.047 C 
ATOM     19  C   UNL     1       3.614  -0.494   0.156  0.00  0.00    -0.015 A 
ATOM     20  C   UNL     1       3.605  -1.217  -1.024  0.00  0.00    +0.007 A 
ATOM     21  C   UNL     1       3.029  -2.470  -1.064  0.00  0.00    +0.013 A 
ATOM     22  C   UNL     1       2.455  -3.009   0.087  0.00  0.00    +0.042 A 
ATOM     23  C   UNL     1       2.466  -2.277   1.274  0.00  0.00    +0.051 A 
ATOM     24  C   UNL     1       3.050  -1.025   1.304  0.00  0.00    +0.127 A 
ATOM     25  F   UNL     1       3.066  -0.316   2.454  0.00  0.00    -0.205 F 
ENDBRANCH  16  22
ENDBRANCH   1  16
BRANCH   4  26
ATOM     26  C   UNL     1      -0.107  -7.998  -0.151  0.00  0.00    +0.120 C 
BRANCH  26  27
ATOM     27  C   UNL     1       0.237  -8.721  -1.454  0.00  0.00    +0.054 C 
BRANCH  27  28
ATOM     28  C   UNL     1      -0.686  -9.898  -1.634  0.00  0.00    -0.040 C 
ATOM     29  C   UNL     1      -1.856  -9.918  -2.312  0.00  0.00    -0.001 A 
ATOM     30  C   UNL     1      -2.592  -8.888  -3.056  0.00  0.00    +0.010 A 
ATOM     31  C   UNL     1      -3.766  -9.215  -3.642  0.00  0.00    +0.001 A 
ATOM     32  C   UNL     1      -4.297 -10.509  -3.557  0.00  0.00    +0.002 A 
ATOM     33  C   UNL     1      -3.680 -11.509  -2.892  0.00  0.00    +0.026 A 
ATOM     34  C   UNL     1      -2.438 -11.277  -2.238  0.00  0.00    +0.043 A 
ATOM     35  N   UNL     1      -1.658 -12.067  -1.541  0.00  0.00    -0.380 N 
ATOM     36  C   UNL     1      -0.489 -11.299  -1.099  0.00  0.00    +0.144 C 
ATOM     37  H   UNL     1      -1.824 -13.004  -1.352  0.00  0.00    +0.160 HD
ENDBRANCH  27  28
ENDBRANCH  26  27
ENDBRANCH   4  26
TORSDOF 7
