REMARK  Name = ZINC02321541
REMARK  3 active torsions:
REMARK  status: ('A' for Active; 'I' for Inactive)
REMARK    1  A    between atoms: C_4  and  C_7
REMARK    2  A    between atoms: C_9  and  C_24
REMARK    3  A    between atoms: C_15  and  C_17
REMARK                            x       y       z     vdW  Elec       q    Type
REMARK                         _______ _______ _______ _____ _____    ______ ____
ROOT
ATOM      1  C   UNL     1       3.691  -0.679  -0.038  0.00  0.00    +0.055 C 
ATOM      2  C   UNL     1       3.681  -2.182  -0.052  0.00  0.00    +0.088 C 
ATOM      3  C   UNL     1       4.862  -2.737  -0.855  0.00  0.00    +0.148 C 
ATOM      4  N   UNL     1       6.050  -1.952  -0.517  0.00  0.00    -0.221 N 
ATOM      5  C   UNL     1       5.982  -0.636  -0.144  0.00  0.00    +0.250 A 
ATOM      6  N   UNL     1       4.795   0.018  -0.046  0.00  0.00    -0.215 NA
ATOM      7  N   UNL     1       7.205  -0.222   0.073  0.00  0.00    -0.189 NA
ATOM      8  C   UNL     1       8.066  -1.228  -0.138  0.00  0.00    +0.183 A 
ATOM      9  N   UNL     1       7.394  -2.306  -0.499  0.00  0.00    -0.147 NA
ENDROOT
BRANCH   8  10
ATOM     10  C   UNL     1       9.540  -1.144   0.010  0.00  0.00    +0.021 A 
ATOM     11  C   UNL     1      10.333  -2.261  -0.244  0.00  0.00    +0.013 A 
ATOM     12  C   UNL     1      11.704  -2.177  -0.105  0.00  0.00    +0.021 A 
ATOM     13  C   UNL     1      12.291  -0.986   0.286  0.00  0.00    +0.041 A 
ATOM     14  C   UNL     1      11.507   0.127   0.541  0.00  0.00    +0.021 A 
ATOM     15  C   UNL     1      10.136   0.054   0.399  0.00  0.00    +0.013 A 
ATOM     16 CL   UNL     1      14.015  -0.887   0.460  0.00  0.00    -0.084 Cl
ENDBRANCH   8  10
BRANCH   3  17
ATOM     17  C   UNL     1       5.088  -4.183  -0.496  0.00  0.00    -0.004 A 
ATOM     18  C   UNL     1       5.376  -4.534   0.810  0.00  0.00    +0.007 A 
ATOM     19  C   UNL     1       5.583  -5.860   1.140  0.00  0.00    +0.000 A 
ATOM     20  C   UNL     1       5.501  -6.836   0.165  0.00  0.00    +0.001 A 
ATOM     21  C   UNL     1       5.213  -6.487  -1.141  0.00  0.00    +0.020 A 
ATOM     22  C   UNL     1       5.000  -5.160  -1.471  0.00  0.00    +0.046 A 
ATOM     23 CL   UNL     1       4.631  -4.721  -3.109  0.00  0.00    -0.083 Cl
ENDBRANCH   3  17
BRANCH   1  27
ATOM     24  C   UNL     1      -0.017   1.380   0.010  0.00  0.00    +0.000 A 
ATOM     25  C   UNL     1       1.168   2.095   0.002  0.00  0.00    +0.001 A 
ATOM     26  C   UNL     1       2.377   1.433  -0.013  0.00  0.00    +0.010 A 
ATOM     27  C   UNL     1       2.405   0.035  -0.021  0.00  0.00    -0.004 A 
ATOM     28  C   UNL     1       1.203  -0.681  -0.013  0.00  0.00    +0.010 A 
ATOM     29  C   UNL     1       0.002  -0.004   0.002  0.00  0.00    +0.001 A 
ENDBRANCH   1  27
TORSDOF 3
