REMARK  Name = ZINC59017017
REMARK  10 active torsions:
REMARK  status: ('A' for Active; 'I' for Inactive)
REMARK    1  A    between atoms: C_1  and  C_2
REMARK    2  A    between atoms: C_2  and  N_3
REMARK    3  A    between atoms: N_3  and  C_4
REMARK    4  A    between atoms: C_4  and  C_5
REMARK    5  A    between atoms: C_6  and  C_8
REMARK    6  A    between atoms: C_8  and  S_9
REMARK    7  A    between atoms: S_9  and  C_10
REMARK    8  A    between atoms: N_15  and  N_16
REMARK    9  A    between atoms: C_17  and  C_18
REMARK   10  A    between atoms: C_23  and  O_24
REMARK                            x       y       z     vdW  Elec       q    Type
REMARK                         _______ _______ _______ _____ _____    ______ ____
ROOT
ATOM      1  C   UNL     1       5.239  -1.954   3.490  0.00  0.00    +0.211 A 
ATOM      2  N   UNL     1       6.534  -2.225   3.689  0.00  0.00    -0.186 NA
ATOM      3  C   UNL     1       6.714  -2.639   4.926  0.00  0.00    +0.232 A 
ATOM      4  N   UNL     1       5.514  -2.639   5.545  0.00  0.00    -0.245 N 
ATOM      5  N   UNL     1       4.579  -2.188   4.599  0.00  0.00    -0.144 NA
ATOM      6  N   UNL     1       7.920  -3.011   5.491  0.00  0.00    -0.205 N 
ATOM      7  H   UNL     1       7.953  -3.304   6.415  0.00  0.00    +0.177 HD
ATOM      8  H   UNL     1       5.334  -2.896   6.462  0.00  0.00    +0.192 HD
ENDROOT
BRANCH   6   9
ATOM      9  N   UNL     1       9.095  -2.963   4.729  0.00  0.00    -0.187 NA
ATOM     10  C   UNL     1      10.227  -3.312   5.259  0.00  0.00    +0.142 C 
BRANCH  10  11
ATOM     11  C   UNL     1      11.463  -3.262   4.458  0.00  0.00    +0.038 A 
ATOM     12  C   UNL     1      12.683  -3.642   5.023  0.00  0.00    +0.028 A 
ATOM     13  C   UNL     1      13.836  -3.592   4.268  0.00  0.00    +0.020 A 
ATOM     14  C   UNL     1      13.790  -3.167   2.950  0.00  0.00    +0.034 A 
ATOM     15  C   UNL     1      12.589  -2.789   2.379  0.00  0.00    +0.061 A 
ATOM     16  C   UNL     1      11.420  -2.838   3.123  0.00  0.00    +0.139 A 
ATOM     17 BR   UNL     1      12.539  -2.210   0.580  0.00  0.00    -0.046 Br
ATOM     18 BR   UNL     1      15.487  -4.107   5.034  0.00  0.00    -0.050 Br
BRANCH  16  19
ATOM     19  O   UNL     1      10.238  -2.473   2.561  0.00  0.00    -0.505 OA
ATOM     20  H   UNL     1      10.031  -1.533   2.659  0.00  0.00    +0.292 HD
ENDBRANCH  16  19
ENDBRANCH  10  11
ENDBRANCH   6   9
BRANCH   1  21
ATOM     21  S   UNL     1       4.536  -1.371   1.983  0.00  0.00    -0.075 S 
BRANCH  21  22
ATOM     22  C   UNL     1       2.771  -1.195   2.363  0.00  0.00    +0.173 C 
BRANCH  22  24
ATOM     23  N   UNL     1       0.711  -0.489   1.189  0.00  0.00    -0.301 N 
ATOM     24  C   UNL     1       2.042  -0.696   1.142  0.00  0.00    +0.226 C 
ATOM     25  O   UNL     1       2.653  -0.480   0.117  0.00  0.00    -0.275 OA
BRANCH  23  27
ATOM     26  C   UNL     1      -0.019   1.526   0.010  0.00  0.00    +0.024 C 
ATOM     27  C   UNL     1       0.002  -0.004   0.002  0.00  0.00    +0.104 C 
ENDBRANCH  23  27
BRANCH  23  28
ATOM     28  C   UNL     1      -0.028  -0.750   2.427  0.00  0.00    +0.104 C 
ATOM     29  C   UNL     1      -0.511  -2.202   2.437  0.00  0.00    +0.024 C 
ENDBRANCH  23  28
ENDBRANCH  22  24
ENDBRANCH  21  22
ENDBRANCH   1  21
TORSDOF 8
