REMARK  Name = ZINC34683949
REMARK  13 active torsions:
REMARK  status: ('A' for Active; 'I' for Inactive)
REMARK    1  A    between atoms: C_1  and  C_2
REMARK    2  A    between atoms: C_5  and  N_8
REMARK    3  A    between atoms: N_8  and  C_9
REMARK    4  A    between atoms: N_8  and  S_28
REMARK    5  A    between atoms: N_12  and  C_15
REMARK    6  A    between atoms: C_15  and  C_16
REMARK    7  A    between atoms: C_19  and  O_26
REMARK    8  A    between atoms: C_20  and  O_24
REMARK    9  A    between atoms: C_21  and  O_22
REMARK   10  A    between atoms: O_22  and  C_23
REMARK   11  A    between atoms: O_24  and  C_25
REMARK   12  A    between atoms: O_26  and  C_27
REMARK   13  A    between atoms: S_28  and  C_31
REMARK                            x       y       z     vdW  Elec       q    Type
REMARK                         _______ _______ _______ _____ _____    ______ ____
ROOT
ATOM      1  C   UNL     1       0.708  -4.897   1.071  0.00  0.00    +0.095 C 
ATOM      2  C   UNL     1       2.152  -4.411   1.224  0.00  0.00    +0.006 C 
ATOM      3  C   UNL     1       2.799  -5.120   2.416  0.00  0.00    -0.077 C 
ATOM      4  N   UNL     1       2.046  -4.816   3.638  0.00  0.00    +0.383 N 
ATOM      5  C   UNL     1       0.681  -5.343   3.527  0.00  0.00    -0.077 C 
ATOM      6  C   UNL     1      -0.048  -4.642   2.378  0.00  0.00    +0.006 C 
ATOM      7  H   UNL     1       2.010  -3.816   3.770  0.00  0.00    -0.081 HD
ENDROOT
BRANCH   1   8
ATOM      8  N   UNL     1       0.058  -4.167  -0.021  0.00  0.00    -0.200 N 
BRANCH   8  13
ATOM      9  C   UNL     1      -0.273   1.491   0.156  0.00  0.00    +0.044 C 
ATOM     10  C   UNL     1      -0.185  -0.013   0.109  0.00  0.00    -0.050 A 
ATOM     11  C   UNL     1      -1.180  -0.780   0.686  0.00  0.00    +0.005 A 
ATOM     12  C   UNL     1      -1.103  -2.159   0.644  0.00  0.00    +0.025 A 
ATOM     13  C   UNL     1      -0.024  -2.774   0.022  0.00  0.00    +0.052 A 
ATOM     14  C   UNL     1       0.974  -2.000  -0.556  0.00  0.00    +0.025 A 
ATOM     15  C   UNL     1       0.888  -0.622  -0.516  0.00  0.00    +0.005 A 
ENDBRANCH   8  13
BRANCH   8  16
ATOM     16  S   UNL     1      -0.579  -4.995  -1.306  0.00  0.00    +0.075 S 
ATOM     17  O   UNL     1      -0.991  -6.261  -0.810  0.00  0.00    -0.150 OA
ATOM     18  O   UNL     1      -1.475  -4.104  -1.958  0.00  0.00    -0.150 OA
BRANCH  16  19
ATOM     19  C   UNL     1       0.739  -5.300  -2.435  0.00  0.00    +0.109 A 
ATOM     20  C   UNL     1       1.027  -4.380  -3.426  0.00  0.00    +0.029 A 
ATOM     21  C   UNL     1       2.061  -4.619  -4.311  0.00  0.00    +0.002 A 
ATOM     22  C   UNL     1       2.808  -5.778  -4.205  0.00  0.00    +0.000 A 
ATOM     23  C   UNL     1       2.520  -6.697  -3.214  0.00  0.00    +0.002 A 
ATOM     24  C   UNL     1       1.489  -6.456  -2.326  0.00  0.00    +0.029 A 
ENDBRANCH  16  19
ENDBRANCH   8  16
ENDBRANCH   1   8
BRANCH   4  25
ATOM     25  C   UNL     1       2.716  -5.434   4.790  0.00  0.00    -0.039 C 
BRANCH  25  26
ATOM     26  C   UNL     1       2.015  -5.022   6.059  0.00  0.00    -0.018 A 
ATOM     27  C   UNL     1       2.538  -4.006   6.838  0.00  0.00    +0.009 A 
ATOM     28  C   UNL     1       1.899  -3.624   8.002  0.00  0.00    +0.050 A 
ATOM     29  C   UNL     1       0.731  -4.259   8.395  0.00  0.00    +0.165 A 
ATOM     30  C   UNL     1       0.202  -5.281   7.615  0.00  0.00    +0.204 A 
ATOM     31  C   UNL     1       0.844  -5.658   6.442  0.00  0.00    +0.167 A 
BRANCH  31  32
ATOM     32  O   UNL     1       0.328  -6.654   5.673  0.00  0.00    -0.491 OA
ATOM     33  C   UNL     1       0.760  -7.985   5.959  0.00  0.00    +0.277 C 
ENDBRANCH  31  32
BRANCH  30  34
ATOM     34  O   UNL     1      -0.945  -5.907   7.997  0.00  0.00    -0.488 OA
ATOM     35  C   UNL     1      -2.175  -5.352   7.525  0.00  0.00    +0.277 C 
ENDBRANCH  30  34
BRANCH  29  36
ATOM     36  O   UNL     1       0.103  -3.883   9.542  0.00  0.00    -0.491 OA
ATOM     37  C   UNL     1       0.704  -2.827  10.293  0.00  0.00    +0.277 C 
ENDBRANCH  29  36
ENDBRANCH  25  26
ENDBRANCH   4  25
TORSDOF 9
