REMARK  Name = ZINC39024662
REMARK  5 active torsions:
REMARK  status: ('A' for Active; 'I' for Inactive)
REMARK    1  A    between atoms: C_1  and  C_2
REMARK    2  A    between atoms: C_7  and  C_14
REMARK    3  A    between atoms: C_15  and  C_16
REMARK    4  A    between atoms: C_16  and  C_18
REMARK    5  A    between atoms: C_19  and  C_30
REMARK                            x       y       z     vdW  Elec       q    Type
REMARK                         _______ _______ _______ _____ _____    ______ ____
ROOT
ATOM      1  C   UNL     1       2.257  -9.350   1.761  0.00  0.00    +0.094 A 
ATOM      2  C   UNL     1       3.398 -10.149   1.911  0.00  0.00    +0.007 A 
ATOM      3  C   UNL     1       3.212 -11.580   2.184  0.00  0.00    +0.008 A 
ATOM      4  C   UNL     1       4.318 -12.423   2.343  0.00  0.00    +0.025 A 
ATOM      5  C   UNL     1       4.124 -13.762   2.598  0.00  0.00    +0.019 A 
ATOM      6  C   UNL     1       2.838 -14.278   2.699  0.00  0.00    +0.017 A 
ATOM      7  C   UNL     1       1.740 -13.461   2.545  0.00  0.00    +0.027 A 
ATOM      8  C   UNL     1       1.911 -12.104   2.285  0.00  0.00    +0.050 A 
ATOM      9  N   UNL     1       0.811 -11.284   2.132  0.00  0.00    -0.321 N 
ATOM     10  C   UNL     1       0.936  -9.969   1.887  0.00  0.00    +0.261 A 
ATOM     11  O   UNL     1      -0.063  -9.283   1.763  0.00  0.00    -0.267 OA
ATOM     12 BR   UNL     1       5.616 -14.904   2.813  0.00  0.00    -0.050 Br
ATOM     13  H   UNL     1      -0.077 -11.667   2.206  0.00  0.00    +0.169 HD
ENDROOT
BRANCH   2  14
ATOM     14  C   UNL     1       4.751  -9.569   1.798  0.00  0.00    -0.016 A 
ATOM     15  C   UNL     1       5.594  -9.953   0.752  0.00  0.00    +0.008 A 
ATOM     16  C   UNL     1       6.857  -9.407   0.653  0.00  0.00    +0.001 A 
ATOM     17  C   UNL     1       7.288  -8.480   1.586  0.00  0.00    +0.000 A 
ATOM     18  C   UNL     1       6.458  -8.095   2.624  0.00  0.00    +0.001 A 
ATOM     19  C   UNL     1       5.191  -8.628   2.733  0.00  0.00    +0.008 A 
ENDBRANCH   2  14
BRANCH   1  20
ATOM     20  C   UNL     1       2.385  -7.913   1.488  0.00  0.00    +0.192 C 
ATOM     21  O   UNL     1       3.479  -7.431   1.260  0.00  0.00    -0.287 OA
BRANCH  20  23
ATOM     22  C   UNL     1       1.287  -5.777   1.132  0.00  0.00    -0.006 C 
ATOM     23  C   UNL     1       1.189  -7.055   1.490  0.00  0.00    +0.048 C 
BRANCH  22  30
ATOM     24  C   UNL     1      -0.216   1.228  -1.022  0.00  0.00    +0.044 C 
ATOM     25  C   UNL     1      -0.195  -0.264  -0.809  0.00  0.00    -0.049 A 
ATOM     26  C   UNL     1      -0.364  -1.101  -1.913  0.00  0.00    +0.004 A 
ATOM     27  C   UNL     1      -0.354  -2.453  -1.784  0.00  0.00    +0.010 A 
ATOM     28  C   UNL     1      -0.161  -3.033  -0.455  0.00  0.00    -0.007 A 
ATOM     29  C   UNL     1      -0.144  -4.385  -0.278  0.00  0.00    -0.001 C 
ATOM     30  C   UNL     1       0.063  -4.898   1.134  0.00  0.00    +0.121 C 
ATOM     31  C   UNL     1       0.232  -3.870   2.229  0.00  0.00    +0.228 C 
ATOM     32  O   UNL     1       0.401  -4.226   3.380  0.00  0.00    -0.274 OA
ATOM     33  N   UNL     1       0.196  -2.582   1.932  0.00  0.00    -0.284 N 
ATOM     34  C   UNL     1       0.015  -2.126   0.692  0.00  0.00    +0.041 A 
ATOM     35  C   UNL     1      -0.007  -0.741   0.449  0.00  0.00    +0.027 A 
ATOM     36  H   UNL     1       0.307  -1.939   2.649  0.00  0.00    +0.155 HD
ENDBRANCH  22  30
ENDBRANCH  20  23
ENDBRANCH   1  20
TORSDOF 4
