REMARK  Name = ZINC11441496
REMARK  10 active torsions:
REMARK  status: ('A' for Active; 'I' for Inactive)
REMARK    1  A    between atoms: C_4  and  N_13
REMARK    2  A    between atoms: C_5  and  C_7
REMARK    3  A    between atoms: N_9  and  C_10
REMARK    4  A    between atoms: C_14  and  C_16
REMARK    5  A    between atoms: C_16  and  O_17
REMARK    6  A    between atoms: O_17  and  C_18
REMARK    7  A    between atoms: C_18  and  C_20
REMARK    8  A    between atoms: C_20  and  C_21
REMARK    9  A    between atoms: C_21  and  N_22
REMARK   10  A    between atoms: N_25  and  C_26
REMARK                            x       y       z     vdW  Elec       q    Type
REMARK                         _______ _______ _______ _____ _____    ______ ____
ROOT
ATOM      1  C   UNL     1       3.630   1.580  -0.035  0.00  0.00    +0.309 C 
ATOM      2  O   UNL     1       3.772   2.780  -0.044  0.00  0.00    -0.251 OA
ENDROOT
BRANCH   1   3
ATOM      3  O   UNL     1       2.396   1.051  -0.016  0.00  0.00    -0.455 OA
BRANCH   3   4
ATOM      4  C   UNL     1       1.280   1.979  -0.008  0.00  0.00    +0.328 C 
BRANCH   4   6
ATOM      5  N   UNL     1      -1.191   1.867   0.017  0.00  0.00    -0.282 N 
ATOM      6  C   UNL     1      -0.015   1.209   0.013  0.00  0.00    +0.255 C 
ATOM      7  O   UNL     1       0.002  -0.004   0.020  0.00  0.00    -0.272 OA
ATOM      8  H   UNL     1      -1.205   2.834   0.092  0.00  0.00    +0.155 HD
BRANCH   5  12
ATOM      9  C   UNL     1      -4.767  -0.255  -0.292  0.00  0.00    +0.001 A 
ATOM     10  C   UNL     1      -3.591  -0.790  -0.794  0.00  0.00    +0.002 A 
ATOM     11  C   UNL     1      -2.407  -0.088  -0.698  0.00  0.00    +0.024 A 
ATOM     12  C   UNL     1      -2.386   1.159  -0.086  0.00  0.00    +0.046 A 
ATOM     13  C   UNL     1      -3.574   1.703   0.423  0.00  0.00    +0.058 A 
ATOM     14  C   UNL     1      -4.766   0.982   0.314  0.00  0.00    +0.015 A 
BRANCH  13  15
ATOM     15  C   UNL     1      -3.565   3.029   1.070  0.00  0.00    +0.246 C 
ATOM     16  O   UNL     1      -2.546   3.692   1.083  0.00  0.00    -0.270 OA
ATOM     17  N   UNL     1      -4.687   3.505   1.647  0.00  0.00    -0.308 N 
ATOM     18  H   UNL     1      -5.499   2.975   1.636  0.00  0.00    +0.149 HD
BRANCH  17  19
ATOM     19  C   UNL     1      -4.678   4.821   2.289  0.00  0.00    +0.073 C 
ATOM     20  C   UNL     1      -5.373   4.950   3.646  0.00  0.00    +0.024 C 
ATOM     21  C   UNL     1      -6.012   5.563   2.398  0.00  0.00    +0.024 C 
ENDBRANCH  17  19
ENDBRANCH  13  15
ENDBRANCH   5  12
ENDBRANCH   4   6
ENDBRANCH   3   4
ENDBRANCH   1   3
BRANCH   1  22
ATOM     22  C   UNL     1       4.837   0.678  -0.044  0.00  0.00    +0.139 C 
BRANCH  22  23
ATOM     23  C   UNL     1       6.109   1.529  -0.065  0.00  0.00    +0.117 C 
BRANCH  23  24
ATOM     24  N   UNL     1       7.282   0.652  -0.074  0.00  0.00    -0.299 N 
ATOM     25  C   UNL     1       8.521   1.184  -0.092  0.00  0.00    +0.300 C 
ATOM     26  O   UNL     1       8.664   2.391  -0.102  0.00  0.00    -0.253 OA
ATOM     27  N   UNL     1       9.600   0.377  -0.101  0.00  0.00    -0.294 N 
ATOM     28  H   UNL     1       7.168  -0.311  -0.066  0.00  0.00    +0.150 HD
ATOM     29  H   UNL     1       9.486  -0.586  -0.093  0.00  0.00    +0.151 HD
BRANCH  27  30
ATOM     30  C   UNL     1      10.946   0.955  -0.121  0.00  0.00    +0.037 C 
ATOM     31  C   UNL     1      11.115   1.811  -1.378  0.00  0.00    +0.029 C 
ATOM     32  C   UNL     1      12.521   2.415  -1.399  0.00  0.00    -0.008 C 
ATOM     33  C   UNL     1      13.558   1.290  -1.404  0.00  0.00    +0.007 C 
ATOM     34  C   UNL     1      13.390   0.434  -0.148  0.00  0.00    -0.008 C 
ATOM     35  C   UNL     1      11.984  -0.169  -0.127  0.00  0.00    +0.029 C 
ATOM     36  C   UNL     1      13.589   1.306   1.094  0.00  0.00    +0.007 C 
ATOM     37  C   UNL     1      12.551   2.430   1.100  0.00  0.00    -0.008 C 
ATOM     38  C   UNL     1      12.720   3.286  -0.157  0.00  0.00    +0.007 C 
ATOM     39  C   UNL     1      11.146   1.827   1.121  0.00  0.00    +0.029 C 
ENDBRANCH  27  30
ENDBRANCH  23  24
ENDBRANCH  22  23
ENDBRANCH   1  22
TORSDOF 10
