REMARK  Name = ZINC35851895
REMARK  4 active torsions:
REMARK  status: ('A' for Active; 'I' for Inactive)
REMARK    1  A    between atoms: C_1  and  C_2
REMARK    2  A    between atoms: C_9  and  C_25
REMARK    3  A    between atoms: C_11  and  C_19
REMARK    4  A    between atoms: C_25  and  C_27
REMARK                            x       y       z     vdW  Elec       q    Type
REMARK                         _______ _______ _______ _____ _____    ______ ____
ROOT
ATOM      1  C   UNL     1      -0.011   1.367  -0.177  0.00  0.00    +0.044 C 
ATOM      2  C   UNL     1       0.042  -0.138  -0.135  0.00  0.00    -0.050 A 
ATOM      3  C   UNL     1       0.098  -0.864  -1.311  0.00  0.00    +0.005 A 
ATOM      4  C   UNL     1       0.146  -2.242  -1.278  0.00  0.00    +0.024 A 
ATOM      5  C   UNL     1       0.138  -2.914  -0.058  0.00  0.00    +0.039 A 
ATOM      6  C   UNL     1       0.082  -2.174   1.118  0.00  0.00    +0.004 A 
ATOM      7  C   UNL     1       0.039  -0.798   1.082  0.00  0.00    +0.011 A 
ATOM      8  C   UNL     1       0.090  -3.176   2.242  0.00  0.00    +0.137 C 
ATOM      9  C   UNL     1       1.305  -2.970   3.151  0.00  0.00    +0.103 C 
ATOM     10  C   UNL     1       0.719  -2.348   4.441  0.00  0.00    +0.050 C 
ATOM     11  C   UNL     1      -0.725  -2.870   4.454  0.00  0.00    +0.077 C 
ATOM     12  N   UNL     1      -1.130  -3.064   3.058  0.00  0.00    -0.271 NA
ATOM     13  C   UNL     1      -1.929  -1.915   2.527  0.00  0.00    +0.155 C 
ATOM     14  S   UNL     1      -2.899  -1.458   4.030  0.00  0.00    -0.144 S 
ATOM     15  C   UNL     1      -1.639  -1.944   5.270  0.00  0.00    +0.090 C 
ATOM     16  C   UNL     1       0.155  -4.518   1.556  0.00  0.00    +0.243 C 
ATOM     17  O   UNL     1       0.180  -5.604   2.095  0.00  0.00    -0.273 OA
ATOM     18  N   UNL     1       0.179  -4.279   0.232  0.00  0.00    -0.283 N 
ATOM     19  H   UNL     1       0.220  -4.974  -0.443  0.00  0.00    +0.155 HD
ENDROOT
BRANCH  10  20
ATOM     20  C   UNL     1       1.474  -2.827   5.654  0.00  0.00    -0.042 A 
ATOM     21  C   UNL     1       1.528  -4.177   5.945  0.00  0.00    +0.004 A 
ATOM     22  C   UNL     1       2.220  -4.617   7.058  0.00  0.00    +0.000 A 
ATOM     23  C   UNL     1       2.859  -3.706   7.879  0.00  0.00    +0.000 A 
ATOM     24  C   UNL     1       2.805  -2.356   7.587  0.00  0.00    +0.000 A 
ATOM     25  C   UNL     1       2.116  -1.917   6.472  0.00  0.00    +0.004 A 
ENDBRANCH  10  20
BRANCH   9  26
ATOM     26  C   UNL     1       2.290  -2.027   2.509  0.00  0.00    +0.170 C 
ATOM     27  O   UNL     1       2.238  -0.839   2.750  0.00  0.00    -0.292 OA
BRANCH  26  28
ATOM     28  C   UNL     1       3.313  -2.546   1.592  0.00  0.00    +0.021 A 
ATOM     29  C   UNL     1       3.371  -3.915   1.308  0.00  0.00    +0.015 A 
ATOM     30  C   UNL     1       4.331  -4.399   0.448  0.00  0.00    +0.050 A 
ATOM     31  C   UNL     1       5.244  -3.532  -0.141  0.00  0.00    +0.166 A 
ATOM     32  C   UNL     1       5.191  -2.165   0.137  0.00  0.00    +0.167 A 
ATOM     33  C   UNL     1       4.229  -1.671   0.994  0.00  0.00    +0.061 A 
ATOM     34  O   UNL     1       6.186  -1.541  -0.560  0.00  0.00    -0.453 OA
ATOM     35  C   UNL     1       7.099  -2.585  -0.944  0.00  0.00    +0.466 C 
ATOM     36  O   UNL     1       6.269  -3.759  -1.011  0.00  0.00    -0.453 OA
ENDBRANCH  26  28
ENDBRANCH   9  26
TORSDOF 3
