REMARK  Name = ZINC09539833
REMARK  9 active torsions:
REMARK  status: ('A' for Active; 'I' for Inactive)
REMARK    1  A    between atoms: C_1  and  C_2
REMARK    2  A    between atoms: C_2  and  O_3
REMARK    3  A    between atoms: O_3  and  C_4
REMARK    4  A    between atoms: C_9  and  N_10
REMARK    5  A    between atoms: C_15  and  N_16
REMARK    6  A    between atoms: C_15  and  N_71
REMARK    7  A    between atoms: N_19  and  C_28
REMARK    8  A    between atoms: C_20  and  C_22
REMARK    9  A    between atoms: C_34  and  C_36
REMARK                            x       y       z     vdW  Elec       q    Type
REMARK                         _______ _______ _______ _____ _____    ______ ____
ROOT
ATOM      1  N   UNL     1       2.094  -4.596   1.082  0.00  0.00    -0.257 N 
ATOM      2  C   UNL     1       3.439  -4.527   1.150  0.00  0.00    +0.177 A 
ATOM      3  S   UNL     1       4.487  -3.986  -0.091  0.00  0.00    -0.011 S 
ATOM      4  N   UNL     1       3.809  -4.959   2.372  0.00  0.00    -0.300 N 
ATOM      5  C   UNL     1       2.671  -5.311   3.070  0.00  0.00    +0.164 A 
ATOM      6  N   UNL     1       1.635  -5.097   2.307  0.00  0.00    -0.152 NA
ENDROOT
BRANCH   4   7
ATOM      7  C   UNL     1       5.183  -5.047   2.871  0.00  0.00    +0.094 C 
ATOM      8  C   UNL     1       5.992  -5.991   1.978  0.00  0.00    +0.025 C 
ATOM      9  C   UNL     1       6.003  -5.452   0.546  0.00  0.00    +0.002 C 
ATOM     10  C   UNL     1       6.642  -4.062   0.529  0.00  0.00    +0.000 C 
ATOM     11  C   UNL     1       5.833  -3.119   1.422  0.00  0.00    +0.005 C 
ATOM     12  C   UNL     1       5.822  -3.657   2.854  0.00  0.00    +0.009 C 
ATOM     13  C   UNL     1       5.014  -2.713   3.747  0.00  0.00    +0.009 C 
ENDBRANCH   4   7
BRANCH   5  14
ATOM     14  C   UNL     1       2.632  -5.840   4.451  0.00  0.00    +0.037 A 
ATOM     15  C   UNL     1       1.563  -5.534   5.301  0.00  0.00    +0.014 A 
ATOM     16  C   UNL     1       1.573  -6.058   6.581  0.00  0.00    +0.020 A 
ATOM     17  C   UNL     1       2.634  -6.851   6.981  0.00  0.00    +0.111 A 
ATOM     18  N   UNL     1       3.631  -7.117   6.160  0.00  0.00    -0.263 NA
ATOM     19  C   UNL     1       3.664  -6.646   4.930  0.00  0.00    +0.122 A 
ENDBRANCH   5  14
BRANCH   1  20
ATOM     20  C   UNL     1       1.264  -4.221  -0.066  0.00  0.00    +0.072 C 
BRANCH  20  26
ATOM     21  N   UNL     1      -0.921  -0.609   0.078  0.00  0.00    -0.331 N 
ATOM     22  C   UNL     1      -0.293  -1.084   1.319  0.00  0.00    +0.087 C 
ATOM     23  C   UNL     1       0.008  -2.579   1.195  0.00  0.00    -0.057 C 
ATOM     24  C   UNL     1       0.262  -2.330  -1.199  0.00  0.00    -0.057 C 
ATOM     25  C   UNL     1      -0.039  -0.835  -1.076  0.00  0.00    +0.087 C 
ATOM     26  N   UNL     1       0.913  -2.789   0.045  0.00  0.00    +0.395 N 
ATOM     27  H   UNL     1       1.772  -2.246   0.193  0.00  0.00    -0.079 HD
BRANCH  21  33
ATOM     28  C   UNL     1      -2.617   1.117   0.112  0.00  0.00    +0.141 A 
ATOM     29  C   UNL     1      -2.964   2.453   0.219  0.00  0.00    +0.047 A 
ATOM     30  C   UNL     1      -1.981   3.412   0.383  0.00  0.00    +0.004 A 
ATOM     31  C   UNL     1      -0.651   3.041   0.446  0.00  0.00    +0.002 A 
ATOM     32  C   UNL     1      -0.297   1.708   0.345  0.00  0.00    +0.027 A 
ATOM     33  C   UNL     1      -1.277   0.741   0.181  0.00  0.00    +0.072 A 
BRANCH  28  34
ATOM     34  O   UNL     1      -3.582   0.173  -0.054  0.00  0.00    -0.490 OA
BRANCH  34  36
ATOM     35  C   UNL     1      -5.870  -0.564  -0.304  0.00  0.00    +0.048 C 
ATOM     36  C   UNL     1      -4.934   0.632  -0.116  0.00  0.00    +0.226 C 
ENDBRANCH  34  36
ENDBRANCH  28  34
ENDBRANCH  21  33
ENDBRANCH  20  26
ENDBRANCH   1  20
TORSDOF 7
