REMARK  Name = ZINC04259938
REMARK  9 active torsions:
REMARK  status: ('A' for Active; 'I' for Inactive)
REMARK    1  A    between atoms: C_3  and  O_12
REMARK    2  A    between atoms: C_6  and  N_7
REMARK    3  A    between atoms: O_12  and  C_13
REMARK    4  A    between atoms: N_17  and  C_18
REMARK    5  A    between atoms: C_28  and  N_30
REMARK    6  A    between atoms: C_31  and  C_33
REMARK    7  A    between atoms: C_33  and  C_34
REMARK    8  A    between atoms: C_34  and  C_39
REMARK    9  A    between atoms: C_39  and  C_40
REMARK                            x       y       z     vdW  Elec       q    Type
REMARK                         _______ _______ _______ _____ _____    ______ ____
ROOT
ATOM      1  C   UNL     1      -2.941   8.308  -3.276  0.00  0.00    +0.171 C 
ATOM      2  C   UNL     1      -3.792   8.415  -1.968  0.00  0.00    +0.190 C 
ATOM      3  O   UNL     1      -3.113   7.571  -1.012  0.00  0.00    -0.370 OA
ATOM      4  C   UNL     1      -2.713   6.404  -1.757  0.00  0.00    +0.171 C 
ATOM      5  C   UNL     1      -2.201   6.960  -3.117  0.00  0.00    +0.176 C 
ATOM      6  O   UNL     1      -0.804   7.222  -2.955  0.00  0.00    -0.370 OA
ATOM      7  C   UNL     1      -0.290   6.567  -1.795  0.00  0.00    +0.185 C 
ATOM      8  C   UNL     1      -1.443   5.803  -1.125  0.00  0.00    +0.130 C 
ENDROOT
BRANCH   1  13
ATOM      9  C   UNL     1      -3.744   9.095  -5.537  0.00  0.00    +0.342 A 
ATOM     10  N   UNL     1      -4.699   8.724  -6.357  0.00  0.00    -0.071 NA
ATOM     11  N   UNL     1      -5.354   7.734  -5.867  0.00  0.00    -0.020 NA
ATOM     12  N   UNL     1      -4.870   7.403  -4.719  0.00  0.00    -0.041 NA
ATOM     13  N   UNL     1      -3.805   8.282  -4.459  0.00  0.00    -0.187 N 
BRANCH   9  14
ATOM     14  O   UNL     1      -2.861  10.104  -5.735  0.00  0.00    -0.423 OA
BRANCH  14  17
ATOM     15  C   UNL     1      -3.915  11.122  -9.065  0.00  0.00    +0.031 A 
ATOM     16  C   UNL     1      -3.888  10.466  -7.850  0.00  0.00    +0.048 A 
ATOM     17  C   UNL     1      -2.888  10.750  -6.930  0.00  0.00    +0.132 A 
ATOM     18  C   UNL     1      -1.919  11.697  -7.229  0.00  0.00    +0.048 A 
ATOM     19  C   UNL     1      -1.942  12.349  -8.445  0.00  0.00    +0.031 A 
ATOM     20  C   UNL     1      -2.942  12.066  -9.366  0.00  0.00    +0.067 A 
BRANCH  20  21
ATOM     21  N   UNL     1      -2.969  12.732 -10.600  0.00  0.00    -0.220 N 
ATOM     22  C   UNL     1      -2.100  13.666 -11.033  0.00  0.00    +0.225 A 
ATOM     23  N   UNL     1      -2.470  14.038 -12.232  0.00  0.00    -0.222 NA
ATOM     24  C   UNL     1      -3.563  13.369 -12.597  0.00  0.00    +0.245 A 
ATOM     25  N   UNL     1      -3.903  12.553 -11.633  0.00  0.00    -0.154 NA
ENDBRANCH  20  21
ENDBRANCH  14  17
ENDBRANCH   9  14
ENDBRANCH   1  13
BRANCH   8  26
ATOM     26  N   UNL     1      -1.350   4.371  -1.422  0.00  0.00    -0.308 N 
ATOM     27  C   UNL     1      -0.622   3.563  -0.625  0.00  0.00    +0.214 C 
ATOM     28  O   UNL     1      -0.044   4.021   0.337  0.00  0.00    -0.276 OA
ATOM     29  H   UNL     1      -1.812   4.004  -2.192  0.00  0.00    +0.149 HD
BRANCH  27  30
ATOM     30  C   UNL     1      -0.527   2.091  -0.931  0.00  0.00    +0.103 C 
BRANCH  30  31
ATOM     31  C   UNL     1       0.248   1.387   0.185  0.00  0.00    -0.011 C 
ATOM     32  C   UNL     1       0.202  -0.141  -0.022  0.00  0.00    +0.008 C 
ATOM     33  C   UNL     1       0.093  -0.715   1.413  0.00  0.00    +0.001 C 
ATOM     34  C   UNL     1      -0.843   0.299   2.117  0.00  0.00    +0.001 C 
ATOM     35  C   UNL     1      -0.417   1.667   1.545  0.00  0.00    +0.008 C 
BRANCH  31  36
ATOM     36  C   UNL     1       1.699   1.871   0.202  0.00  0.00    +0.132 C 
BRANCH  36  37
ATOM     37  C   UNL     1       2.366   1.504  -1.099  0.00  0.00    +0.357 C 
ATOM     38  O   UNL     1       1.736   0.941  -1.963  0.00  0.00    -0.246 OA
ATOM     39  O   UNL     1       3.659   1.804  -1.298  0.00  0.00    -0.246 OA
ENDBRANCH  36  37
ENDBRANCH  31  36
ENDBRANCH  30  31
ENDBRANCH  27  30
ENDBRANCH   8  26
TORSDOF 9
