REMARK  Name = ZINC40923425
REMARK  7 active torsions:
REMARK  status: ('A' for Active; 'I' for Inactive)
REMARK    1  A    between atoms: C_1  and  C_2
REMARK    2  A    between atoms: C_2  and  C_4
REMARK    3  A    between atoms: C_2  and  N_12
REMARK    4  A    between atoms: C_4  and  C_5
REMARK    5  A    between atoms: C_5  and  C_6
REMARK    6  A    between atoms: C_13  and  C_15
REMARK    7  A    between atoms: C_24  and  C_27
REMARK                            x       y       z     vdW  Elec       q    Type
REMARK                         _______ _______ _______ _____ _____    ______ ____
ROOT
ATOM      1  C   UNL     1       0.674  -1.025   3.700  0.00  0.00    +0.078 C 
ATOM      2  C   UNL     1       1.044  -2.459   3.314  0.00  0.00    +0.031 C 
ATOM      3  C   UNL     1       1.927  -3.066   4.408  0.00  0.00    +0.107 C 
ATOM      4  N   UNL     1       1.231  -2.949   5.697  0.00  0.00    -0.314 N 
ATOM      5  C   UNL     1       0.751  -1.627   6.123  0.00  0.00    +0.107 C 
ATOM      6  C   UNL     1      -0.118  -1.036   5.010  0.00  0.00    +0.031 C 
ATOM      7  C   UNL     1       1.030  -4.068   6.498  0.00  0.00    +0.144 A 
ATOM      8  C   UNL     1       1.672  -5.269   6.194  0.00  0.00    +0.047 A 
ATOM      9  C   UNL     1       1.442  -6.355   7.019  0.00  0.00    +0.033 A 
ATOM     10  C   UNL     1       0.579  -6.182   8.107  0.00  0.00    +0.094 A 
ATOM     11  N   UNL     1       0.012  -5.001   8.317  0.00  0.00    -0.147 NA
ATOM     12  N   UNL     1       0.232  -3.994   7.553  0.00  0.00    -0.134 NA
ENDROOT
BRANCH  10  13
ATOM     13  C   UNL     1       0.298  -7.315   9.021  0.00  0.00    +0.006 A 
ATOM     14  C   UNL     1       0.898  -8.554   8.803  0.00  0.00    +0.014 A 
ATOM     15  C   UNL     1       0.637  -9.607   9.655  0.00  0.00    +0.050 A 
ATOM     16  C   UNL     1      -0.223  -9.438  10.730  0.00  0.00    +0.166 A 
ATOM     17  C   UNL     1      -0.827  -8.201  10.953  0.00  0.00    +0.167 A 
ATOM     18  C   UNL     1      -0.562  -7.141  10.105  0.00  0.00    +0.059 A 
ATOM     19  O   UNL     1      -1.619  -8.296  12.060  0.00  0.00    -0.453 OA
ATOM     20  C   UNL     1      -1.814  -9.706  12.274  0.00  0.00    +0.466 C 
ATOM     21  O   UNL     1      -0.638 -10.305  11.699  0.00  0.00    -0.453 OA
ENDBRANCH  10  13
BRANCH   1  23
ATOM     22  N   UNL     1       0.328  -0.297   1.362  0.00  0.00    -0.312 N 
ATOM     23  C   UNL     1      -0.167  -0.412   2.610  0.00  0.00    +0.216 C 
ATOM     24  O   UNL     1      -1.289  -0.023   2.856  0.00  0.00    -0.276 OA
ATOM     25  H   UNL     1       1.226  -0.608   1.165  0.00  0.00    +0.149 HD
BRANCH  22  27
ATOM     26  C   UNL     1      -0.345   1.821   0.342  0.00  0.00    +0.028 C 
ATOM     27  C   UNL     1      -0.489   0.299   0.302  0.00  0.00    +0.070 C 
BRANCH  27  28
ATOM     28  C   UNL     1      -0.019  -0.223  -1.058  0.00  0.00    +0.026 C 
BRANCH  28  29
ATOM     29  C   UNL     1      -0.279  -1.728  -1.145  0.00  0.00    +0.037 C 
BRANCH  29  30
ATOM     30  C   UNL     1       0.184  -2.241  -2.484  0.00  0.00    -0.047 A 
ATOM     31  C   UNL     1      -0.688  -2.258  -3.556  0.00  0.00    +0.003 A 
ATOM     32  C   UNL     1      -0.264  -2.729  -4.785  0.00  0.00    +0.000 A 
ATOM     33  C   UNL     1       1.032  -3.183  -4.941  0.00  0.00    +0.000 A 
ATOM     34  C   UNL     1       1.905  -3.165  -3.869  0.00  0.00    +0.000 A 
ATOM     35  C   UNL     1       1.482  -2.690  -2.641  0.00  0.00    +0.003 A 
ENDBRANCH  29  30
ENDBRANCH  28  29
ENDBRANCH  27  28
ENDBRANCH  22  27
ENDBRANCH   1  23
TORSDOF 6
