REMARK  Name = ZINC06197866
REMARK  9 active torsions:
REMARK  status: ('A' for Active; 'I' for Inactive)
REMARK    1  A    between atoms: C_1  and  C_2
REMARK    2  A    between atoms: C_2  and  C_3
REMARK    3  A    between atoms: C_10  and  C_15
REMARK    4  A    between atoms: C_15  and  N_67
REMARK    5  A    between atoms: C_16  and  C_17
REMARK    6  A    between atoms: C_16  and  N_67
REMARK    7  A    between atoms: N_21  and  C_22
REMARK    8  A    between atoms: C_28  and  C_29
REMARK    9  A    between atoms: C_28  and  N_67
REMARK                            x       y       z     vdW  Elec       q    Type
REMARK                         _______ _______ _______ _____ _____    ______ ____
ROOT
ATOM      1  N   UNL     1       2.374   6.373   1.639  0.00  0.00    +0.389 N 
ATOM      2  H   UNL     1       1.570   5.899   2.066  0.00  0.00    -0.081 HD
ENDROOT
BRANCH   1   3
ATOM      3  C   UNL     1       2.344   6.149   0.178  0.00  0.00    -0.037 C 
BRANCH   3  11
ATOM      4  C   UNL     1      -1.311   1.282  -0.934  0.00  0.00    -0.047 A 
ATOM      5  C   UNL     1      -0.298   0.334  -0.982  0.00  0.00    +0.005 A 
ATOM      6  C   UNL     1       1.017   0.700  -0.796  0.00  0.00    +0.026 A 
ATOM      7  C   UNL     1       1.335   2.034  -0.559  0.00  0.00    +0.049 A 
ATOM      8  C   UNL     1       0.305   2.991  -0.510  0.00  0.00    -0.001 A 
ATOM      9  C   UNL     1      -1.023   2.596  -0.702  0.00  0.00    +0.013 A 
ATOM     10  C   UNL     1       0.650   4.392  -0.260  0.00  0.00    +0.017 A 
ATOM     11  C   UNL     1       1.955   4.716  -0.082  0.00  0.00    +0.001 A 
ATOM     12  C   UNL     1       2.950   3.717  -0.140  0.00  0.00    +0.251 A 
ATOM     13  O   UNL     1       4.117   4.030   0.021  0.00  0.00    -0.268 OA
ATOM     14  N   UNL     1       2.643   2.428  -0.371  0.00  0.00    -0.322 N 
ATOM     15  H   UNL     1       3.373   1.746  -0.406  0.00  0.00    +0.169 HD
BRANCH   4  17
ATOM     16  C   UNL     1      -3.088   0.932  -2.628  0.00  0.00    +0.009 C 
ATOM     17  C   UNL     1      -2.742   0.856  -1.140  0.00  0.00    +0.032 C 
ENDBRANCH   4  17
ENDBRANCH   3  11
ENDBRANCH   1   3
BRANCH   1  18
ATOM     18  C   UNL     1       2.288   7.820   1.929  0.00  0.00    +0.001 C 
BRANCH  18  19
ATOM     19  C   UNL     1       2.203   8.014   3.421  0.00  0.00    +0.135 A 
ATOM     20  N   UNL     1       3.193   8.293   4.232  0.00  0.00    -0.115 NA
ATOM     21  N   UNL     1       2.718   8.380   5.426  0.00  0.00    -0.023 NA
ATOM     22  N   UNL     1       1.449   8.164   5.398  0.00  0.00    -0.044 NA
ATOM     23  N   UNL     1       1.093   7.939   4.178  0.00  0.00    -0.228 N 
BRANCH  23  24
ATOM     24  C   UNL     1      -0.265   7.653   3.707  0.00  0.00    +0.111 C 
ATOM     25  C   UNL     1      -1.182   8.829   4.049  0.00  0.00    +0.027 C 
ATOM     26  C   UNL     1      -2.599   8.530   3.557  0.00  0.00    +0.002 C 
ATOM     27  C   UNL     1      -3.119   7.263   4.239  0.00  0.00    +0.000 C 
ATOM     28  C   UNL     1      -2.202   6.087   3.897  0.00  0.00    +0.002 C 
ATOM     29  C   UNL     1      -0.785   6.386   4.389  0.00  0.00    +0.027 C 
ENDBRANCH  23  24
ENDBRANCH  18  19
ENDBRANCH   1  18
BRANCH   1  30
ATOM     30  C   UNL     1       3.618   5.816   2.210  0.00  0.00    -0.046 C 
BRANCH  30  31
ATOM     31  C   UNL     1       4.835   6.598   1.710  0.00  0.00    +0.102 C 
ATOM     32  C   UNL     1       6.096   6.148   2.472  0.00  0.00    +0.032 C 
ATOM     33  C   UNL     1       7.051   5.645   1.362  0.00  0.00    +0.030 C 
ATOM     34  C   UNL     1       6.483   6.348   0.103  0.00  0.00    +0.160 C 
ATOM     35  O   UNL     1       5.056   6.320   0.317  0.00  0.00    -0.378 OA
ENDBRANCH  30  31
ENDBRANCH   1  30
TORSDOF 8
