REMARK  Name = ZINC27829494
REMARK  11 active torsions:
REMARK  status: ('A' for Active; 'I' for Inactive)
REMARK    1  A    between atoms: C_1  and  C_2
REMARK    2  A    between atoms: C_2  and  C_32
REMARK    3  A    between atoms: N_4  and  C_5
REMARK    4  A    between atoms: C_5  and  C_7
REMARK    5  A    between atoms: C_5  and  C_17
REMARK    6  A    between atoms: C_8  and  C_9
REMARK    7  A    between atoms: C_17  and  C_18
REMARK    8  A    between atoms: C_17  and  C_19
REMARK    9  A    between atoms: C_17  and  C_20
REMARK   10  A    between atoms: N_24  and  C_25
REMARK   11  A    between atoms: C_29  and  O_31
REMARK                            x       y       z     vdW  Elec       q    Type
REMARK                         _______ _______ _______ _____ _____    ______ ____
ROOT
ATOM      1  C   UNL     1       4.282   2.218   2.181  0.00  0.00    +0.039 C 
ATOM      2  C   UNL     1       3.843   0.981   2.967  0.00  0.00    +0.087 C 
ATOM      3  C   UNL     1       2.372   0.697   2.735  0.00  0.00    +0.089 C 
ATOM      4  N   UNL     1       1.371   1.463   3.020  0.00  0.00    -0.327 N 
ATOM      5  N   UNL     1       2.329  -0.553   2.160  0.00  0.00    -0.287 N 
ATOM      6  C   UNL     1       3.561  -1.053   2.006  0.00  0.00    +0.143 C 
ATOM      7  S   UNL     1       3.883  -2.588   1.318  0.00  0.00    -0.018 S 
ATOM      8  N   UNL     1       4.517  -0.223   2.456  0.00  0.00    -0.270 N 
ATOM      9  C   UNL     1       4.125   1.163   4.460  0.00  0.00    +0.039 C 
ATOM     10  H   UNL     1       1.544   2.444   3.486  0.00  0.00    +0.148 HD
ATOM     11  H   UNL     1       1.361  -1.003   1.894  0.00  0.00    +0.155 HD
ENDROOT
BRANCH   8  12
ATOM     12  C   UNL     1       5.896  -0.460   2.442  0.00  0.00    +0.040 A 
ATOM     13  C   UNL     1       6.656  -0.075   1.344  0.00  0.00    +0.024 A 
ATOM     14  C   UNL     1       8.018  -0.305   1.332  0.00  0.00    +0.005 A 
ATOM     15  C   UNL     1       8.627  -0.926   2.406  0.00  0.00    +0.045 A 
ATOM     16  C   UNL     1       7.872  -1.316   3.503  0.00  0.00    +0.119 A 
ATOM     17  C   UNL     1       6.505  -1.083   3.522  0.00  0.00    +0.069 A 
BRANCH  16  18
ATOM     18  O   UNL     1       8.471  -1.927   4.559  0.00  0.00    -0.507 OA
ATOM     19  H   UNL     1       7.872  -2.236   5.428  0.00  0.00    +0.292 HD
ENDBRANCH  16  18
ENDBRANCH   8  12
BRANCH   4  20
ATOM     20  C   UNL     1       0.005   1.024   2.723  0.00  0.00    +0.100 C 
BRANCH  20  21
ATOM     21  C   UNL     1      -0.649   2.013   1.756  0.00  0.00    -0.016 C 
ATOM     22  C   UNL     1       0.161   2.072   0.460  0.00  0.00    +0.013 C 
ATOM     23  C   UNL     1      -0.688   3.402   2.397  0.00  0.00    +0.013 C 
ATOM     24  C   UNL     1      -2.076   1.555   1.446  0.00  0.00    +0.013 C 
ENDBRANCH  20  21
BRANCH  20  25
ATOM     25  C   UNL     1      -0.793   0.967   4.000  0.00  0.00    -0.004 C 
ATOM     26  C   UNL     1      -1.245  -0.197   4.448  0.00  0.00    +0.007 C 
BRANCH  26  27
ATOM     27  C   UNL     1      -2.027  -0.253   5.700  0.00  0.00    -0.007 A 
ATOM     28  C   UNL     1      -2.288   0.916   6.416  0.00  0.00    +0.011 A 
ATOM     29  C   UNL     1      -3.024   0.858   7.582  0.00  0.00    +0.020 A 
ATOM     30  C   UNL     1      -3.495  -0.358   8.047  0.00  0.00    +0.042 A 
ATOM     31  C   UNL     1      -3.235  -1.522   7.345  0.00  0.00    +0.040 A 
ATOM     32  C   UNL     1      -2.504  -1.477   6.174  0.00  0.00    +0.049 A 
ATOM     33 CL   UNL     1      -2.179  -2.937   5.294  0.00  0.00    -0.083 Cl
ATOM     34 CL   UNL     1      -4.415  -0.423   9.518  0.00  0.00    -0.083 Cl
ENDBRANCH  26  27
ENDBRANCH  20  25
ENDBRANCH   4  20
TORSDOF 6
