REMARK  Name = ZINC10166892
REMARK  13 active torsions:
REMARK  status: ('A' for Active; 'I' for Inactive)
REMARK    1  A    between atoms: C_1  and  C_2
REMARK    2  A    between atoms: C_2  and  C_3
REMARK    3  A    between atoms: C_8  and  O_34
REMARK    4  A    between atoms: C_9  and  C_11
REMARK    5  A    between atoms: C_11  and  C_13
REMARK    6  A    between atoms: C_11  and  N_22
REMARK    7  A    between atoms: C_16  and  O_19
REMARK    8  A    between atoms: O_19  and  C_20
REMARK    9  A    between atoms: C_20  and  C_21
REMARK   10  A    between atoms: C_26  and  C_29
REMARK   11  A    between atoms: C_29  and  O_31
REMARK   12  A    between atoms: O_31  and  C_32
REMARK   13  A    between atoms: C_32  and  C_33
REMARK                            x       y       z     vdW  Elec       q    Type
REMARK                         _______ _______ _______ _____ _____    ______ ____
ROOT
ATOM      1  C   UNL     1       4.172  -2.393  -5.702  0.00  0.00    +0.005 C 
ENDROOT
BRANCH   1   8
ATOM      2  C   UNL     1       0.707  -0.490  -1.238  0.00  0.00    +0.152 A 
ATOM      3  N   UNL     1       0.124  -0.743  -2.408  0.00  0.00    -0.205 NA
ATOM      4  C   UNL     1       1.025  -1.146  -3.261  0.00  0.00    +0.199 A 
ATOM      5  N   UNL     1       2.247  -1.167  -2.660  0.00  0.00    -0.173 N 
ATOM      6  N   UNL     1       1.988  -0.724  -1.336  0.00  0.00    -0.147 NA
ATOM      7  C   UNL     1       3.316  -1.572  -3.422  0.00  0.00    +0.225 A 
ATOM      8  C   UNL     1       3.147  -1.926  -4.701  0.00  0.00    +0.045 A 
ATOM      9  S   UNL     1       1.388  -1.698  -4.910  0.00  0.00    -0.050 S 
BRANCH   2  11
ATOM     10  C   UNL     1      -0.019   1.526   0.010  0.00  0.00    +0.012 C 
ATOM     11  C   UNL     1       0.002  -0.004   0.002  0.00  0.00    +0.075 C 
ENDBRANCH   2  11
BRANCH   7  12
ATOM     12  O   UNL     1       4.559  -1.612  -2.870  0.00  0.00    -0.492 OA
ATOM     13  H   UNL     1       4.587  -1.339  -1.943  0.00  0.00    +0.294 HD
ENDBRANCH   7  12
ENDBRANCH   1   8
BRANCH   1  14
ATOM     14  N   UNL     1       4.112  -1.541  -6.898  0.00  0.00    +0.388 N 
ATOM     15  C   UNL     1       5.104  -2.002  -7.876  0.00  0.00    -0.077 C 
ATOM     16  C   UNL     1       4.990  -1.170  -9.155  0.00  0.00    -0.018 C 
ATOM     17  C   UNL     1       5.245   0.303  -8.823  0.00  0.00    +0.011 C 
ATOM     18  C   UNL     1       4.252   0.753  -7.748  0.00  0.00    +0.081 C 
ATOM     19  C   UNL     1       4.393  -0.150  -6.521  0.00  0.00    -0.063 C 
ATOM     20  H   UNL     1       3.190  -1.598  -7.304  0.00  0.00    -0.080 HD
BRANCH  18  21
ATOM     21  C   UNL     1       4.543   2.180  -7.359  0.00  0.00    +0.308 C 
ATOM     22  O   UNL     1       4.830   2.448  -6.217  0.00  0.00    -0.251 OA
BRANCH  21  23
ATOM     23  O   UNL     1       4.482   3.152  -8.283  0.00  0.00    -0.465 OA
BRANCH  23  24
ATOM     24  C   UNL     1       4.770   4.482  -7.844  0.00  0.00    +0.229 C 
ATOM     25  C   UNL     1       4.652   5.445  -9.027  0.00  0.00    +0.048 C 
ENDBRANCH  23  24
ENDBRANCH  21  23
ENDBRANCH  18  21
ENDBRANCH   1  14
BRANCH   1  26
ATOM     26  C   UNL     1       3.884  -3.821  -6.088  0.00  0.00    -0.056 A 
ATOM     27  C   UNL     1       2.902  -4.099  -7.021  0.00  0.00    +0.006 A 
ATOM     28  C   UNL     1       2.636  -5.407  -7.376  0.00  0.00    +0.046 A 
ATOM     29  C   UNL     1       3.354  -6.442  -6.795  0.00  0.00    +0.121 A 
ATOM     30  C   UNL     1       4.338  -6.160  -5.859  0.00  0.00    +0.046 A 
ATOM     31  C   UNL     1       4.605  -4.850  -5.511  0.00  0.00    +0.006 A 
BRANCH  29  32
ATOM     32  O   UNL     1       3.093  -7.730  -7.142  0.00  0.00    -0.492 OA
BRANCH  32  33
ATOM     33  C   UNL     1       3.872  -8.744  -6.503  0.00  0.00    +0.225 C 
ATOM     34  C   UNL     1       3.438 -10.119  -7.017  0.00  0.00    +0.048 C 
ENDBRANCH  32  33
ENDBRANCH  29  32
ENDBRANCH   1  26
TORSDOF 10
