REMARK  Name = ZINC35328011
REMARK  12 active torsions:
REMARK  status: ('A' for Active; 'I' for Inactive)
REMARK    1  A    between atoms: C_1  and  C_2
REMARK    2  A    between atoms: C_2  and  C_4
REMARK    3  A    between atoms: C_2  and  N_16
REMARK    4  A    between atoms: N_16  and  C_17
REMARK    5  A    between atoms: C_17  and  C_18
REMARK    6  A    between atoms: C_18  and  C_19
REMARK    7  A    between atoms: C_19  and  C_20
REMARK    8  A    between atoms: C_20  and  C_21
REMARK    9  A    between atoms: C_21  and  C_22
REMARK   10  A    between atoms: C_22  and  N_23
REMARK   11  A    between atoms: C_24  and  C_26
REMARK   12  A    between atoms: C_29  and  N_33
REMARK                            x       y       z     vdW  Elec       q    Type
REMARK                         _______ _______ _______ _____ _____    ______ ____
ROOT
ATOM      1  N   UNL     1       0.846  -0.995  -1.143  0.00  0.00    -0.288 N 
ATOM      2  C   UNL     1       1.871  -0.218  -1.547  0.00  0.00    +0.249 C 
ATOM      3  O   UNL     1       2.087  -0.065  -2.733  0.00  0.00    -0.270 OA
ENDROOT
BRANCH   2   4
ATOM      4  C   UNL     1       2.732   0.447  -0.547  0.00  0.00    +0.055 A 
ATOM      5  C   UNL     1       2.190   0.896   0.659  0.00  0.00    +0.017 A 
ATOM      6  C   UNL     1       2.999   1.515   1.588  0.00  0.00    +0.033 A 
ATOM      7  C   UNL     1       4.348   1.692   1.328  0.00  0.00    +0.128 A 
ATOM      8  C   UNL     1       4.893   1.251   0.136  0.00  0.00    +0.053 A 
ATOM      9  C   UNL     1       4.095   0.623  -0.801  0.00  0.00    +0.055 A 
ATOM     10 CL   UNL     1       4.782   0.063  -2.294  0.00  0.00    -0.083 Cl
BRANCH   7  11
ATOM     11  N   UNL     1       5.209   2.358   2.330  0.00  0.00    +0.056 N 
ATOM     12  O   UNL     1       4.736   2.746   3.373  0.00  0.00    -0.126 OA
ATOM     13  O   UNL     1       6.387   2.515   2.106  0.00  0.00    -0.126 OA
ENDBRANCH   7  11
ENDBRANCH   2   4
BRANCH   1  15
ATOM     14  C   UNL     1      -0.353   0.789   0.024  0.00  0.00    +0.036 C 
ATOM     15  C   UNL     1       0.117  -0.665   0.084  0.00  0.00    +0.139 C 
BRANCH  15  16
ATOM     16  C   UNL     1       1.025  -0.851   1.273  0.00  0.00    +0.131 A 
ATOM     17  N   UNL     1       0.559  -0.500   2.500  0.00  0.00    -0.309 N 
ATOM     18  H   UNL     1      -0.338  -0.141   2.589  0.00  0.00    +0.170 HD
ATOM     19  C   UNL     1       1.335  -0.648   3.599  0.00  0.00    +0.259 A 
ATOM     20  O   UNL     1       0.930  -0.339   4.705  0.00  0.00    -0.267 OA
ATOM     21  C   UNL     1       2.686  -1.196   3.406  0.00  0.00    +0.065 A 
ATOM     22  C   UNL     1       3.563  -1.387   4.471  0.00  0.00    +0.015 A 
ATOM     23  C   UNL     1       4.817  -1.904   4.233  0.00  0.00    +0.001 A 
ATOM     24  C   UNL     1       5.212  -2.235   2.943  0.00  0.00    +0.002 A 
ATOM     25  C   UNL     1       4.360  -2.054   1.877  0.00  0.00    +0.028 A 
ATOM     26  C   UNL     1       3.083  -1.532   2.093  0.00  0.00    +0.078 A 
ATOM     27  N   UNL     1       2.209  -1.342   1.072  0.00  0.00    -0.232 NA
ENDBRANCH  15  16
ENDBRANCH   1  15
BRANCH   1  28
ATOM     28  C   UNL     1       0.461  -2.167  -1.932  0.00  0.00    +0.109 C 
BRANCH  28  29
ATOM     29  C   UNL     1      -0.589  -1.763  -2.968  0.00  0.00    +0.019 C 
BRANCH  29  30
ATOM     30  C   UNL     1      -0.991  -2.988  -3.792  0.00  0.00    +0.001 C 
BRANCH  30  31
ATOM     31  C   UNL     1      -2.041  -2.583  -4.829  0.00  0.00    -0.002 C 
BRANCH  31  32
ATOM     32  C   UNL     1      -2.444  -3.808  -5.652  0.00  0.00    -0.020 C 
BRANCH  32  33
ATOM     33  C   UNL     1      -3.494  -3.403  -6.689  0.00  0.00    -0.086 C 
BRANCH  33  34
ATOM     34  N   UNL     1      -3.880  -4.579  -7.480  0.00  0.00    +0.378 N 
ATOM     35  H   UNL     1      -3.068  -4.950  -7.950  0.00  0.00    -0.090 HD
ATOM     36  H   UNL     1      -4.265  -5.284  -6.869  0.00  0.00    -0.090 HD
ATOM     37  H   UNL     1      -4.572  -4.312  -8.164  0.00  0.00    -0.090 HD
ENDBRANCH  33  34
ENDBRANCH  32  33
ENDBRANCH  31  32
ENDBRANCH  30  31
ENDBRANCH  29  30
ENDBRANCH  28  29
ENDBRANCH   1  28
TORSDOF 11
