REMARK  Name = ZINC35365955
REMARK  8 active torsions:
REMARK  status: ('A' for Active; 'I' for Inactive)
REMARK    1  A    between atoms: C_1  and  C_2
REMARK    2  A    between atoms: C_9  and  O_20
REMARK    3  A    between atoms: C_12  and  C_14
REMARK    4  A    between atoms: C_23  and  O_40
REMARK    5  A    between atoms: C_24  and  C_31
REMARK    6  A    between atoms: C_27  and  O_30
REMARK    7  A    between atoms: N_32  and  N_33
REMARK    8  A    between atoms: N_33  and  C_34
REMARK                            x       y       z     vdW  Elec       q    Type
REMARK                         _______ _______ _______ _____ _____    ______ ____
ROOT
ATOM      1  C   UNL     1      -0.019   1.530   0.011  0.00  0.00    +0.014 C 
ATOM      2  C   UNL     1       0.002  -0.004   0.002  0.00  0.00    +0.004 C 
ATOM      3  C   UNL     1      -1.408  -0.534   0.114  0.00  0.00    +0.010 C 
ATOM      4  C   UNL     1      -1.987  -0.049   1.462  0.00  0.00    +0.005 C 
ATOM      5  C   UNL     1      -1.169  -0.577   2.629  0.00  0.00    +0.009 C 
ATOM      6  C   UNL     1       0.317  -0.226   2.515  0.00  0.00    +0.025 C 
ATOM      7  C   UNL     1       0.838  -0.590   1.157  0.00  0.00    +0.075 C 
ATOM      8  C   UNL     1       2.251  -0.123   0.776  0.00  0.00    +0.036 C 
ATOM      9  C   UNL     1       2.285  -0.460  -0.743  0.00  0.00    +0.011 C 
ATOM     10  C   UNL     1       0.816  -0.405  -1.234  0.00  0.00    +0.027 C 
ATOM     11  C   UNL     1       0.553   1.203   2.967  0.00  0.00    +0.009 C 
ATOM     12  C   UNL     1       0.296   1.305   4.475  0.00  0.00    +0.036 C 
ATOM     13  C   UNL     1      -0.600   0.173   4.965  0.00  0.00    +0.079 C 
ATOM     14  C   UNL     1      -1.725  -0.136   3.983  0.00  0.00    +0.039 C 
ATOM     15  C   UNL     1      -2.563  -1.297   4.543  0.00  0.00    +0.018 C 
ATOM     16  C   UNL     1      -3.130  -0.954   5.915  0.00  0.00    +0.032 C 
ATOM     17  C   UNL     1      -2.007  -0.592   6.886  0.00  0.00    +0.117 C 
ATOM     18  C   UNL     1      -1.190   0.572   6.326  0.00  0.00    +0.067 C 
ENDROOT
BRANCH  10  19
ATOM     19  C   UNL     1       0.378  -1.727  -1.810  0.00  0.00    -0.022 C 
ATOM     20  C   UNL     1      -0.085  -1.943  -3.039  0.00  0.00    +0.094 C 
ATOM     21  C   UNL     1      -0.394  -3.368  -3.190  0.00  0.00    +0.332 C 
ATOM     22  O   UNL     1      -0.833  -3.886  -4.198  0.00  0.00    -0.246 OA
ATOM     23  O   UNL     1      -0.116  -4.018  -2.044  0.00  0.00    -0.457 OA
ATOM     24  C   UNL     1       0.386  -3.063  -1.104  0.00  0.00    +0.264 C 
ENDBRANCH  10  19
BRANCH   7  25
ATOM     25  O   UNL     1       0.828  -2.038   1.066  0.00  0.00    -0.388 OA
ATOM     26  H   UNL     1       1.334  -2.479   1.761  0.00  0.00    +0.210 HD
ENDBRANCH   7  25
BRANCH  17  27
ATOM     27  O   UNL     1      -2.572  -0.213   8.145  0.00  0.00    -0.392 OA
ATOM     28  H   UNL     1      -3.100  -0.906   8.563  0.00  0.00    +0.210 HD
ENDBRANCH  17  27
BRANCH  14  29
ATOM     29  C   UNL     1      -2.620   1.066   3.826  0.00  0.00    +0.113 C 
ATOM     30  N   UNL     1      -3.847   1.002   4.183  0.00  0.00    -0.194 NA
BRANCH  30  31
ATOM     31  N   UNL     1      -4.679   2.119   4.037  0.00  0.00    -0.238 N 
ATOM     32  H   UNL     1      -4.325   2.942   3.665  0.00  0.00    +0.174 HD
BRANCH  31  33
ATOM     33  C   UNL     1      -6.017   2.049   4.428  0.00  0.00    +0.048 A 
ATOM     34  C   UNL     1      -6.525   0.873   4.966  0.00  0.00    +0.025 A 
ATOM     35  C   UNL     1      -7.850   0.807   5.351  0.00  0.00    +0.002 A 
ATOM     36  C   UNL     1      -8.671   1.910   5.200  0.00  0.00    +0.000 A 
ATOM     37  C   UNL     1      -8.169   3.082   4.665  0.00  0.00    +0.002 A 
ATOM     38  C   UNL     1      -6.844   3.157   4.283  0.00  0.00    +0.025 A 
ENDBRANCH  31  33
ENDBRANCH  30  31
ENDBRANCH  14  29
BRANCH  13  39
ATOM     39  O   UNL     1       0.188  -1.006   5.181  0.00  0.00    -0.388 OA
ATOM     40  H   UNL     1       0.890  -0.896   5.837  0.00  0.00    +0.210 HD
ENDBRANCH  13  39
TORSDOF 7
