REMARK  Name = ZINC09635332
REMARK  8 active torsions:
REMARK  status: ('A' for Active; 'I' for Inactive)
REMARK    1  A    between atoms: C_1  and  C_2
REMARK    2  A    between atoms: C_2  and  C_4
REMARK    3  A    between atoms: C_2  and  N_17
REMARK    4  A    between atoms: N_6  and  C_7
REMARK    5  A    between atoms: N_17  and  C_18
REMARK    6  A    between atoms: C_21  and  N_24
REMARK    7  A    between atoms: N_24  and  S_25
REMARK    8  A    between atoms: S_25  and  C_28
REMARK                            x       y       z     vdW  Elec       q    Type
REMARK                         _______ _______ _______ _____ _____    ______ ____
ROOT
ATOM      1  N   UNL     1       5.106  -1.603  -5.246  0.00  0.00    -0.333 N 
ATOM      2  H   UNL     1       5.352  -2.232  -5.943  0.00  0.00    +0.147 HD
ENDROOT
BRANCH   1   3
ATOM      3  C   UNL     1       4.090  -1.926  -4.339  0.00  0.00    +0.028 A 
ATOM      4  C   UNL     1       3.435  -3.146  -4.435  0.00  0.00    +0.025 A 
ATOM      5  C   UNL     1       2.433  -3.464  -3.540  0.00  0.00    +0.026 A 
ATOM      6  C   UNL     1       2.081  -2.564  -2.543  0.00  0.00    +0.048 A 
ATOM      7  C   UNL     1       2.733  -1.341  -2.450  0.00  0.00    +0.026 A 
ATOM      8  C   UNL     1       3.738  -1.025  -3.342  0.00  0.00    +0.025 A 
BRANCH   6   9
ATOM      9  N   UNL     1       1.064  -2.886  -1.636  0.00  0.00    -0.216 N 
ATOM     10  H   UNL     1       0.195  -2.463  -1.711  0.00  0.00    +0.174 HD
BRANCH   9  11
ATOM     11  S   UNL     1       1.346  -3.991  -0.435  0.00  0.00    +0.072 S 
ATOM     12  O   UNL     1       1.903  -5.139  -1.061  0.00  0.00    -0.150 OA
ATOM     13  O   UNL     1       0.163  -4.050   0.349  0.00  0.00    -0.150 OA
BRANCH  11  14
ATOM     14  C   UNL     1       2.604  -3.323   0.602  0.00  0.00    +0.109 A 
ATOM     15  C   UNL     1       2.269  -2.453   1.623  0.00  0.00    +0.031 A 
ATOM     16  C   UNL     1       3.255  -1.928   2.437  0.00  0.00    +0.040 A 
ATOM     17  C   UNL     1       4.579  -2.274   2.230  0.00  0.00    +0.124 A 
ATOM     18  C   UNL     1       4.914  -3.146   1.208  0.00  0.00    +0.040 A 
ATOM     19  C   UNL     1       3.927  -3.669   0.395  0.00  0.00    +0.031 A 
ATOM     20  F   UNL     1       5.544  -1.762   3.025  0.00  0.00    -0.205 F 
ENDBRANCH  11  14
ENDBRANCH   9  11
ENDBRANCH   6   9
ENDBRANCH   1   3
BRANCH   1  22
ATOM     21  C   UNL     1       4.996   0.754  -5.887  0.00  0.00    +0.038 C 
ATOM     22  C   UNL     1       5.798  -0.316  -5.144  0.00  0.00    +0.154 C 
BRANCH  22  23
ATOM     23  C   UNL     1       7.169  -0.432  -5.758  0.00  0.00    +0.237 C 
ATOM     24  O   UNL     1       7.533  -1.487  -6.234  0.00  0.00    -0.273 OA
ATOM     25  N   UNL     1       7.992   0.635  -5.779  0.00  0.00    -0.283 N 
ATOM     26  H   UNL     1       7.677   1.496  -5.460  0.00  0.00    +0.155 HD
BRANCH  25  27
ATOM     27  C   UNL     1       9.296   0.503  -6.257  0.00  0.00    +0.041 A 
ATOM     28  C   UNL     1       9.574  -0.371  -7.287  0.00  0.00    +0.024 A 
ATOM     29  C   UNL     1      10.870  -0.508  -7.774  0.00  0.00    +0.002 A 
ATOM     30  C   UNL     1      11.900   0.208  -7.244  0.00  0.00    +0.008 A 
ATOM     31  C   UNL     1      11.660   1.106  -6.190  0.00  0.00    -0.016 A 
ATOM     32  C   UNL     1      10.344   1.257  -5.688  0.00  0.00    +0.003 A 
ATOM     33  C   UNL     1      10.106   2.154  -4.635  0.00  0.00    +0.010 A 
ATOM     34  C   UNL     1      11.141   2.866  -4.109  0.00  0.00    +0.001 A 
ATOM     35  C   UNL     1      12.436   2.718  -4.602  0.00  0.00    +0.001 A 
ATOM     36  C   UNL     1      12.703   1.858  -5.622  0.00  0.00    +0.008 A 
ENDBRANCH  25  27
ENDBRANCH  22  23
ENDBRANCH   1  22
TORSDOF 7
