REMARK  Name = ZINC50422138
REMARK  6 active torsions:
REMARK  status: ('A' for Active; 'I' for Inactive)
REMARK    1  A    between atoms: C_1  and  C_2
REMARK    2  A    between atoms: C_2  and  C_4
REMARK    3  A    between atoms: C_2  and  N_10
REMARK    4  A    between atoms: N_8  and  C_9
REMARK    5  A    between atoms: C_11  and  C_13
REMARK    6  A    between atoms: C_13  and  C_16
REMARK                            x       y       z     vdW  Elec       q    Type
REMARK                         _______ _______ _______ _____ _____    ______ ____
ROOT
ATOM      1  N   UNL     1       0.688  -0.476  -1.203  0.00  0.00    -0.305 N 
ATOM      2  C   UNL     1       0.006  -0.608  -2.358  0.00  0.00    +0.231 C 
ATOM      3  O   UNL     1      -1.175  -0.336  -2.400  0.00  0.00    -0.275 OA
ATOM      4  H   UNL     1       1.632  -0.695  -1.170  0.00  0.00    +0.149 HD
ENDROOT
BRANCH   2   5
ATOM      5  C   UNL     1       0.712  -1.094  -3.598  0.00  0.00    +0.147 C 
ATOM      6  C   UNL     1       0.906  -0.093  -4.739  0.00  0.00    +0.029 C 
ATOM      7  C   UNL     1      -0.117  -1.222  -4.878  0.00  0.00    +0.029 C 
BRANCH   5   8
ATOM      8  C   UNL     1       1.801  -2.110  -3.370  0.00  0.00    +0.371 C 
ATOM      9  O   UNL     1       1.772  -2.824  -2.382  0.00  0.00    -0.245 OA
ATOM     10  O   UNL     1       2.712  -2.218  -4.174  0.00  0.00    -0.245 OA
ENDBRANCH   5   8
ENDBRANCH   2   5
BRANCH   1  12
ATOM     11  C   UNL     1      -0.019   1.526   0.010  0.00  0.00    +0.036 C 
ATOM     12  C   UNL     1       0.002  -0.004   0.002  0.00  0.00    +0.138 C 
BRANCH  12  13
ATOM     13  C   UNL     1       0.731  -0.503   1.223  0.00  0.00    +0.153 A 
ATOM     14  N   UNL     1       2.022  -0.483   1.415  0.00  0.00    -0.133 NA
ATOM     15  N   UNL     1       2.296  -0.987   2.566  0.00  0.00    -0.138 NA
ATOM     16  C   UNL     1       1.192  -1.353   3.160  0.00  0.00    +0.224 A 
ATOM     17  N   UNL     1       0.167  -1.051   2.327  0.00  0.00    -0.319 N 
ATOM     18  C   UNL     1      -1.260  -1.275   2.568  0.00  0.00    +0.151 C 
ENDBRANCH  12  13
ENDBRANCH   1  12
TORSDOF 4
