REMARK  Name = ZINC04231379
REMARK  13 active torsions:
REMARK  status: ('A' for Active; 'I' for Inactive)
REMARK    1  A    between atoms: C_1  and  C_2
REMARK    2  A    between atoms: C_5  and  C_8
REMARK    3  A    between atoms: C_8  and  O_10
REMARK    4  A    between atoms: O_10  and  C_11
REMARK    5  A    between atoms: C_14  and  C_19
REMARK    6  A    between atoms: C_16  and  O_17
REMARK    7  A    between atoms: O_17  and  C_18
REMARK    8  A    between atoms: N_20  and  N_21
REMARK    9  A    between atoms: C_22  and  C_24
REMARK   10  A    between atoms: C_24  and  S_25
REMARK   11  A    between atoms: S_25  and  C_26
REMARK   12  A    between atoms: C_29  and  C_37
REMARK   13  A    between atoms: N_30  and  C_31
REMARK                            x       y       z     vdW  Elec       q    Type
REMARK                         _______ _______ _______ _____ _____    ______ ____
ROOT
ATOM      1  C   UNL     1       1.213  -2.157  -0.028  0.00  0.00    +0.138 C 
ATOM      2  N   UNL     1       2.345  -2.793  -0.017  0.00  0.00    -0.188 NA
ENDROOT
BRANCH   1   6
ATOM      3  C   UNL     1       1.172   2.091   0.001  0.00  0.00    +0.173 A 
ATOM      4  C   UNL     1       2.380   1.409   0.013  0.00  0.00    +0.051 A 
ATOM      5  C   UNL     1       2.398   0.031   0.004  0.00  0.00    +0.013 A 
ATOM      6  C   UNL     1       1.197  -0.683  -0.018  0.00  0.00    -0.002 A 
ATOM      7  C   UNL     1      -0.020   0.004  -0.030  0.00  0.00    +0.059 A 
ATOM      8  C   UNL     1      -0.030   1.386  -0.021  0.00  0.00    +0.163 A 
BRANCH   8   9
ATOM      9  O   UNL     1      -1.212   2.058  -0.038  0.00  0.00    -0.491 OA
ATOM     10  C   UNL     1      -2.405   1.271  -0.066  0.00  0.00    +0.277 C 
ENDBRANCH   8   9
BRANCH   3  11
ATOM     11  O   UNL     1       1.160   3.450   0.009  0.00  0.00    -0.419 OA
BRANCH  11  12
ATOM     12  C   UNL     1       0.954   4.053   1.196  0.00  0.00    +0.345 C 
ATOM     13  O   UNL     1       0.887   3.388   2.211  0.00  0.00    -0.245 OA
BRANCH  12  18
ATOM     14  C   UNL     1       0.389   9.772   1.460  0.00  0.00    +0.044 C 
ATOM     15  C   UNL     1       0.537   8.274   1.391  0.00  0.00    -0.050 A 
ATOM     16  C   UNL     1       0.461   7.521   2.549  0.00  0.00    +0.004 A 
ATOM     17  C   UNL     1       0.595   6.149   2.493  0.00  0.00    +0.015 A 
ATOM     18  C   UNL     1       0.809   5.521   1.264  0.00  0.00    +0.059 A 
ATOM     19  C   UNL     1       0.890   6.288   0.100  0.00  0.00    +0.015 A 
ATOM     20  C   UNL     1       0.748   7.659   0.170  0.00  0.00    +0.004 A 
ENDBRANCH  12  18
ENDBRANCH  11  12
ENDBRANCH   3  11
ENDBRANCH   1   6
BRANCH   2  21
ATOM     21  N   UNL     1       2.360  -4.194  -0.026  0.00  0.00    -0.206 N 
ATOM     22  C   UNL     1       3.535  -4.855  -0.014  0.00  0.00    +0.242 C 
ATOM     23  O   UNL     1       4.579  -4.237   0.005  0.00  0.00    -0.273 OA
ATOM     24  H   UNL     1       1.526  -4.689  -0.041  0.00  0.00    +0.177 HD
BRANCH  22  25
ATOM     25  C   UNL     1       3.552  -6.362  -0.025  0.00  0.00    +0.174 C 
BRANCH  25  26
ATOM     26  S   UNL     1       5.265  -6.946  -0.005  0.00  0.00    -0.076 S 
BRANCH  26  27
ATOM     27  C   UNL     1       4.995  -8.687  -0.021  0.00  0.00    +0.197 A 
ATOM     28  N   UNL     1       3.832  -9.297  -0.036  0.00  0.00    -0.122 NA
ATOM     29  N   UNL     1       4.006 -10.570  -0.048  0.00  0.00    -0.133 NA
ATOM     30  C   UNL     1       5.279 -10.850  -0.032  0.00  0.00    +0.135 A 
ATOM     31  N   UNL     1       5.957  -9.660  -0.014  0.00  0.00    -0.274 N 
ATOM     32  C   UNL     1       5.891 -12.227  -0.033  0.00  0.00    +0.088 C 
BRANCH  31  33
ATOM     33  C   UNL     1       7.347  -9.477   0.007  0.00  0.00    +0.050 A 
ATOM     34  C   UNL     1       8.119  -9.887  -1.071  0.00  0.00    +0.026 A 
ATOM     35  C   UNL     1       9.488  -9.702  -1.049  0.00  0.00    +0.002 A 
ATOM     36  C   UNL     1      10.090  -9.117   0.050  0.00  0.00    +0.000 A 
ATOM     37  C   UNL     1       9.324  -8.712   1.128  0.00  0.00    +0.002 A 
ATOM     38  C   UNL     1       7.954  -8.891   1.109  0.00  0.00    +0.026 A 
ENDBRANCH  31  33
ENDBRANCH  26  27
ENDBRANCH  25  26
ENDBRANCH  22  25
ENDBRANCH   2  21
TORSDOF 10
