REMARK  Name = ZINC45511566
REMARK  8 active torsions:
REMARK  status: ('A' for Active; 'I' for Inactive)
REMARK    1  A    between atoms: C_1  and  C_2
REMARK    2  A    between atoms: C_5  and  C_9
REMARK    3  A    between atoms: C_7  and  C_8
REMARK    4  A    between atoms: C_9  and  C_11
REMARK    5  A    between atoms: C_9  and  N_12
REMARK    6  A    between atoms: C_13  and  C_15
REMARK    7  A    between atoms: C_15  and  N_16
REMARK    8  A    between atoms: C_18  and  C_27
REMARK                            x       y       z     vdW  Elec       q    Type
REMARK                         _______ _______ _______ _____ _____    ______ ____
ROOT
ATOM      1  N   UNL     1      -2.740  -7.858  -1.729  0.00  0.00    -0.314 N 
ATOM      2  C   UNL     1      -1.981  -9.047  -2.155  0.00  0.00    +0.160 C 
ATOM      3  C   UNL     1      -1.958 -10.029  -0.975  0.00  0.00    +0.276 C 
ATOM      4  O   UNL     1      -3.304 -10.348  -0.615  0.00  0.00    -0.476 OA
ATOM      5  C   UNL     1      -4.173  -9.318  -0.440  0.00  0.00    +0.143 A 
ATOM      6  C   UNL     1      -3.911  -8.064  -0.984  0.00  0.00    +0.073 A 
ATOM      7  C   UNL     1      -4.806  -7.024  -0.795  0.00  0.00    +0.027 A 
ATOM      8  C   UNL     1      -5.958  -7.231  -0.058  0.00  0.00    +0.002 A 
ATOM      9  C   UNL     1      -6.215  -8.474   0.489  0.00  0.00    +0.004 A 
ATOM     10  C   UNL     1      -5.333  -9.516   0.294  0.00  0.00    +0.047 A 
ENDROOT
BRANCH   3  11
ATOM     11  C   UNL     1      -1.229 -11.285  -1.378  0.00  0.00    +0.258 C 
ATOM     12  O   UNL     1      -1.825 -12.340  -1.436  0.00  0.00    -0.271 OA
ATOM     13  N   UNL     1       0.085 -11.236  -1.674  0.00  0.00    -0.294 N 
ATOM     14  C   UNL     1       0.831  -9.969  -1.605  0.00  0.00    +0.136 C 
ATOM     15  C   UNL     1       2.095 -10.197  -0.769  0.00  0.00    +0.179 C 
ATOM     16  O   UNL     1       2.805 -11.324  -1.288  0.00  0.00    -0.377 OA
ATOM     17  C   UNL     1       2.082 -12.555  -1.216  0.00  0.00    +0.179 C 
ATOM     18  C   UNL     1       0.818 -12.449  -2.070  0.00  0.00    +0.136 C 
ENDBRANCH   3  11
BRANCH   1  19
ATOM     19  C   UNL     1      -2.284  -6.507  -2.067  0.00  0.00    +0.201 C 
BRANCH  19  21
ATOM     20  N   UNL     1      -0.828  -4.769  -1.077  0.00  0.00    -0.307 N 
ATOM     21  C   UNL     1      -1.371  -5.999  -0.981  0.00  0.00    +0.231 C 
ATOM     22  O   UNL     1      -1.125  -6.697  -0.019  0.00  0.00    -0.274 OA
ATOM     23  H   UNL     1      -1.024  -4.212  -1.846  0.00  0.00    +0.149 HD
BRANCH  20  24
ATOM     24  C   UNL     1       0.059  -4.275  -0.021  0.00  0.00    +0.100 C 
ATOM     25  C   UNL     1       1.485  -4.766  -0.282  0.00  0.00    +0.033 C 
BRANCH  24  30
ATOM     26  C   UNL     1      -0.018   1.503   0.010  0.00  0.00    +0.044 C 
ATOM     27  C   UNL     1       0.002  -0.004   0.002  0.00  0.00    -0.048 A 
ATOM     28  C   UNL     1       0.006  -0.689  -1.199  0.00  0.00    +0.004 A 
ATOM     29  C   UNL     1       0.025  -2.071  -1.207  0.00  0.00    +0.006 A 
ATOM     30  C   UNL     1       0.040  -2.768  -0.013  0.00  0.00    -0.027 A 
ATOM     31  C   UNL     1       0.037  -2.084   1.188  0.00  0.00    +0.009 A 
ATOM     32  C   UNL     1       0.023  -0.702   1.195  0.00  0.00    -0.047 A 
ATOM     33  C   UNL     1       0.025   0.045   2.504  0.00  0.00    +0.044 C 
ENDBRANCH  24  30
ENDBRANCH  20  24
ENDBRANCH  19  21
ENDBRANCH   1  19
TORSDOF 5
