REMARK  Name = ZINC13957553
REMARK  4 active torsions:
REMARK  status: ('A' for Active; 'I' for Inactive)
REMARK    1  A    between atoms: C_1  and  C_2
REMARK    2  A    between atoms: C_3  and  N_16
REMARK    3  A    between atoms: C_7  and  N_8
REMARK    4  A    between atoms: C_9  and  C_11
REMARK                            x       y       z     vdW  Elec       q    Type
REMARK                         _______ _______ _______ _____ _____    ______ ____
ROOT
ATOM      1  C   UNL     1      -0.839   6.376  -0.148  0.00  0.00    +0.047 C 
ATOM      2  C   UNL     1      -2.183   5.694  -0.143  0.00  0.00    -0.009 A 
ATOM      3  C   UNL     1      -3.346   6.448  -0.229  0.00  0.00    +0.029 A 
ATOM      4  C   UNL     1      -4.583   5.816  -0.218  0.00  0.00    +0.023 A 
ATOM      5  C   UNL     1      -4.657   4.439  -0.127  0.00  0.00    +0.004 A 
ATOM      6  C   UNL     1      -3.502   3.687  -0.045  0.00  0.00    +0.024 A 
ATOM      7  C   UNL     1      -2.261   4.312  -0.056  0.00  0.00    +0.038 A 
ENDROOT
BRANCH   7   8
ATOM      8  N   UNL     1      -1.092   3.549   0.027  0.00  0.00    -0.279 N 
ATOM      9  C   UNL     1      -1.122   2.330   0.601  0.00  0.00    +0.284 C 
ATOM     10  O   UNL     1      -2.141   1.935   1.137  0.00  0.00    -0.266 OA
ATOM     11  H   UNL     1      -0.260   3.897  -0.330  0.00  0.00    +0.155 HD
BRANCH   9  12
ATOM     12  C   UNL     1       0.073   1.480   0.581  0.00  0.00    +0.189 A 
ATOM     13  C   UNL     1       0.178   0.231   1.123  0.00  0.00    +0.054 A 
ATOM     14  C   UNL     1       1.486  -0.210   0.867  0.00  0.00    +0.042 A 
ATOM     15  C   UNL     1       2.113   0.776   0.189  0.00  0.00    +0.196 A 
ATOM     16  O   UNL     1       1.258   1.793   0.018  0.00  0.00    -0.458 OA
ENDBRANCH   9  12
ENDBRANCH   7   8
BRANCH   3  17
ATOM     17  N   UNL     1      -3.272   7.839  -0.322  0.00  0.00    -0.358 N 
ATOM     18  H   UNL     1      -4.085   8.366  -0.379  0.00  0.00    +0.142 HD
ATOM     19  H   UNL     1      -2.407   8.280  -0.330  0.00  0.00    +0.142 HD
ENDBRANCH   3  17
TORSDOF 3
