REMARK  Name = ZINC35813493
REMARK  7 active torsions:
REMARK  status: ('A' for Active; 'I' for Inactive)
REMARK    1  A    between atoms: C_1  and  C_2
REMARK    2  A    between atoms: C_2  and  O_3
REMARK    3  A    between atoms: O_3  and  C_4
REMARK    4  A    between atoms: C_4  and  C_6
REMARK    5  A    between atoms: C_13  and  C_15
REMARK    6  A    between atoms: C_19  and  C_34
REMARK    7  A    between atoms: N_25  and  C_26
REMARK                            x       y       z     vdW  Elec       q    Type
REMARK                         _______ _______ _______ _____ _____    ______ ____
ROOT
ATOM      1  C   UNL     1       2.773  -4.813  -5.787  0.00  0.00    +0.093 C 
ATOM      2  C   UNL     1       2.160  -6.206  -5.943  0.00  0.00    +0.016 C 
ATOM      3  C   UNL     1       3.028  -7.045  -6.884  0.00  0.00    +0.028 C 
ATOM      4  C   UNL     1       3.070  -6.378  -8.263  0.00  0.00    +0.108 C 
ATOM      5  N   UNL     1       3.521  -4.989  -8.102  0.00  0.00    -0.278 N 
ATOM      6  C   UNL     1       2.813  -4.120  -7.152  0.00  0.00    +0.122 C 
ATOM      7  C   UNL     1       4.566  -4.520  -8.813  0.00  0.00    +0.307 C 
ATOM      8  O   UNL     1       5.174  -5.261  -9.562  0.00  0.00    -0.252 OA
ATOM      9  N   UNL     1       4.937  -3.229  -8.694  0.00  0.00    -0.267 N 
ATOM     10  H   UNL     1       4.507  -2.660  -8.038  0.00  0.00    +0.156 HD
ENDROOT
BRANCH   1  17
ATOM     11  C   UNL     1       4.488  -2.019  -3.410  0.00  0.00    +0.115 C 
ATOM     12  C   UNL     1       3.663  -1.010  -2.608  0.00  0.00    +0.018 C 
ATOM     13  C   UNL     1       2.310  -1.627  -2.246  0.00  0.00    +0.020 C 
ATOM     14  C   UNL     1       1.547  -1.963  -3.531  0.00  0.00    +0.108 C 
ATOM     15  N   UNL     1       2.394  -2.817  -4.375  0.00  0.00    -0.300 N 
ATOM     16  C   UNL     1       3.750  -2.360  -4.708  0.00  0.00    +0.122 C 
ATOM     17  C   UNL     1       1.936  -3.999  -4.834  0.00  0.00    +0.220 C 
ATOM     18  O   UNL     1       0.850  -4.407  -4.481  0.00  0.00    -0.275 OA
BRANCH  11  19
ATOM     19  C   UNL     1       5.832  -1.422  -3.738  0.00  0.00    +0.312 C 
ATOM     20  O   UNL     1       6.167  -1.284  -4.891  0.00  0.00    -0.250 OA
BRANCH  19  21
ATOM     21  O   UNL     1       6.658  -1.044  -2.749  0.00  0.00    -0.465 OA
BRANCH  21  23
ATOM     22  C   UNL     1       8.714  -0.117  -1.880  0.00  0.00    +0.048 C 
ATOM     23  C   UNL     1       7.916  -0.486  -3.133  0.00  0.00    +0.229 C 
ENDBRANCH  21  23
ENDBRANCH  19  21
ENDBRANCH  11  19
ENDBRANCH   1  17
BRANCH   9  24
ATOM     24  C   UNL     1       5.945  -2.711  -9.520  0.00  0.00    +0.070 A 
ATOM     25  C   UNL     1       6.317  -3.389 -10.672  0.00  0.00    +0.029 A 
ATOM     26  C   UNL     1       7.309  -2.877 -11.485  0.00  0.00    +0.040 A 
ATOM     27  C   UNL     1       7.934  -1.687 -11.151  0.00  0.00    +0.126 A 
ATOM     28  C   UNL     1       7.566  -1.008 -10.002  0.00  0.00    +0.078 A 
ATOM     29  C   UNL     1       6.569  -1.514  -9.189  0.00  0.00    +0.147 A 
ATOM     30  F   UNL     1       6.205  -0.848  -8.071  0.00  0.00    -0.203 F 
ATOM     31  F   UNL     1       8.905  -1.189 -11.947  0.00  0.00    -0.205 F 
ENDBRANCH   9  24
BRANCH   4  32
ATOM     32  C   UNL     1       4.028  -7.123  -9.156  0.00  0.00    -0.027 A 
ATOM     33  C   UNL     1       5.321  -7.367  -8.732  0.00  0.00    +0.005 A 
ATOM     34  C   UNL     1       6.199  -8.051  -9.551  0.00  0.00    +0.000 A 
ATOM     35  C   UNL     1       5.785  -8.492 -10.794  0.00  0.00    +0.000 A 
ATOM     36  C   UNL     1       4.492  -8.248 -11.218  0.00  0.00    +0.000 A 
ATOM     37  C   UNL     1       3.612  -7.568 -10.397  0.00  0.00    +0.005 A 
ENDBRANCH   4  32
TORSDOF 6
