REMARK  Name = ZINC23511870
REMARK  12 active torsions:
REMARK  status: ('A' for Active; 'I' for Inactive)
REMARK    1  A    between atoms: C_1  and  C_2
REMARK    2  A    between atoms: C_2  and  C_3
REMARK    3  A    between atoms: C_12  and  C_13
REMARK    4  A    between atoms: C_13  and  C_15
REMARK    5  A    between atoms: C_15  and  C_17
REMARK    6  A    between atoms: C_15  and  O_23
REMARK    7  A    between atoms: O_23  and  C_24
REMARK    8  A    between atoms: C_24  and  C_26
REMARK    9  A    between atoms: C_29  and  O_36
REMARK   10  A    between atoms: C_30  and  S_32
REMARK   11  A    between atoms: S_32  and  N_35
REMARK   12  A    between atoms: O_36  and  C_37
REMARK                            x       y       z     vdW  Elec       q    Type
REMARK                         _______ _______ _______ _____ _____    ______ ____
ROOT
ATOM      1  C   UNL     1      -2.527  -2.787   0.010  0.00  0.00    +0.277 C 
ENDROOT
BRANCH   1   2
ATOM      2  C   UNL     1      -2.958  -3.029   1.434  0.00  0.00    +0.000 A 
ATOM      3  C   UNL     1      -2.015  -3.323   2.401  0.00  0.00    +0.008 A 
ATOM      4  C   UNL     1      -2.410  -3.541   3.708  0.00  0.00    +0.000 A 
ATOM      5  C   UNL     1      -3.749  -3.475   4.045  0.00  0.00    +0.000 A 
ATOM      6  C   UNL     1      -4.692  -3.186   3.077  0.00  0.00    +0.000 A 
ATOM      7  C   UNL     1      -4.297  -2.964   1.771  0.00  0.00    +0.008 A 
ENDBRANCH   1   2
BRANCH   1   8
ATOM      8  C   UNL     1      -2.402  -4.106  -0.708  0.00  0.00    +0.210 C 
ATOM      9  O   UNL     1      -1.310  -4.613  -0.861  0.00  0.00    -0.288 OA
BRANCH   8  19
ATOM     10  C   UNL     1      -5.344  -7.413  -2.899  0.00  0.00    -0.024 A 
ATOM     11  C   UNL     1      -4.384  -8.322  -3.289  0.00  0.00    +0.005 A 
ATOM     12  C   UNL     1      -3.045  -8.101  -3.006  0.00  0.00    +0.001 A 
ATOM     13  C   UNL     1      -2.656  -6.965  -2.329  0.00  0.00    +0.011 A 
ATOM     14  C   UNL     1      -3.615  -6.040  -1.929  0.00  0.00    +0.011 A 
ATOM     15  C   UNL     1      -4.971  -6.261  -2.214  0.00  0.00    +0.050 A 
ATOM     16  N   UNL     1      -5.686  -5.195  -1.706  0.00  0.00    -0.360 N 
ATOM     17  H   UNL     1      -6.779  -5.160  -1.822  0.00  0.00    +0.165 HD
ATOM     18  C   UNL     1      -4.862  -4.311  -1.109  0.00  0.00    +0.095 A 
ATOM     19  C   UNL     1      -3.560  -4.753  -1.207  0.00  0.00    +0.047 A 
BRANCH  10  21
ATOM     20  C   UNL     1      -7.169  -6.952  -4.513  0.00  0.00    +0.009 C 
ATOM     21  C   UNL     1      -6.796  -7.667  -3.213  0.00  0.00    +0.034 C 
ENDBRANCH  10  21
ENDBRANCH   8  19
ENDBRANCH   1   8
BRANCH   1  22
ATOM     22  O   UNL     1      -1.243  -2.108   0.002  0.00  0.00    -0.445 OA
BRANCH  22  23
ATOM     23  C   UNL     1      -1.264  -0.761   0.010  0.00  0.00    +0.340 C 
ATOM     24  O   UNL     1      -2.325  -0.169   0.022  0.00  0.00    -0.245 OA
BRANCH  23  25
ATOM     25  C   UNL     1       0.002  -0.004   0.002  0.00  0.00    +0.061 A 
ATOM     26  C   UNL     1       1.224  -0.683  -0.013  0.00  0.00    +0.018 A 
ATOM     27  C   UNL     1       2.404   0.028  -0.021  0.00  0.00    +0.048 A 
ATOM     28  C   UNL     1       2.380   1.418  -0.013  0.00  0.00    +0.146 A 
ATOM     29  C   UNL     1       1.167   2.096   0.002  0.00  0.00    +0.147 A 
ATOM     30  C   UNL     1      -0.017   1.393   0.010  0.00  0.00    +0.047 A 
BRANCH  29  31
ATOM     31  S   UNL     1       1.145   3.858   0.011  0.00  0.00    +0.059 S 
ATOM     32  O   UNL     1       2.026   4.281  -1.020  0.00  0.00    -0.153 OA
ATOM     33  O   UNL     1      -0.221   4.247   0.053  0.00  0.00    -0.153 OA
BRANCH  31  34
ATOM     34  N   UNL     1       1.821   4.349   1.441  0.00  0.00    -0.203 NA
ATOM     35  H   UNL     1       1.825   5.448   1.486  0.00  0.00    +0.144 HD
ATOM     36  H   UNL     1       2.853   3.975   1.506  0.00  0.00    +0.144 HD
ENDBRANCH  31  34
ENDBRANCH  29  31
BRANCH  28  37
ATOM     37  O   UNL     1       3.545   2.114  -0.021  0.00  0.00    -0.493 OA
ATOM     38  C   UNL     1       4.755   1.354  -0.037  0.00  0.00    +0.277 C 
ENDBRANCH  28  37
ENDBRANCH  23  25
ENDBRANCH  22  23
ENDBRANCH   1  22
TORSDOF 10
