REMARK  Name = ZINC12321479
REMARK  4 active torsions:
REMARK  status: ('A' for Active; 'I' for Inactive)
REMARK    1  A    between atoms: C_6  and  N_7
REMARK    2  A    between atoms: C_12  and  C_14
REMARK    3  A    between atoms: C_12  and  C_25
REMARK    4  A    between atoms: C_12  and  N_44
REMARK                            x       y       z     vdW  Elec       q    Type
REMARK                         _______ _______ _______ _____ _____    ______ ____
ROOT
ATOM      1  C   UNL     1      -2.545   1.335   0.021  0.00  0.00    +0.080 C 
ENDROOT
BRANCH   1   2
ATOM      2  C   UNL     1      -1.122   1.831   0.017  0.00  0.00    -0.025 A 
ATOM      3  C   UNL     1      -0.013   1.076   0.008  0.00  0.00    +0.086 A 
ATOM      4  N   UNL     1       1.097   1.877   0.002  0.00  0.00    -0.360 N 
ATOM      5  H   UNL     1       2.014   1.559  -0.009  0.00  0.00    +0.165 HD
ATOM      6  C   UNL     1       0.719   3.201   0.012  0.00  0.00    +0.048 A 
ATOM      7  C   UNL     1      -0.687   3.230   0.025  0.00  0.00    +0.002 A 
ATOM      8  C   UNL     1      -1.359   4.454   0.037  0.00  0.00    +0.011 A 
ATOM      9  C   UNL     1      -0.645   5.620   0.037  0.00  0.00    +0.021 A 
ATOM     10  C   UNL     1       0.744   5.596   0.024  0.00  0.00    +0.043 A 
ATOM     11  C   UNL     1       1.426   4.398   0.011  0.00  0.00    +0.046 A 
ATOM     12 CL   UNL     1       1.629   7.090   0.024  0.00  0.00    -0.083 Cl
ENDBRANCH   1   2
BRANCH   1  18
ATOM     13  N   UNL     1      -3.328  -2.154  -2.229  0.00  0.00    -0.333 N 
ATOM     14  C   UNL     1      -3.940  -2.042  -0.897  0.00  0.00    +0.086 C 
ATOM     15  C   UNL     1      -3.955  -0.572  -0.469  0.00  0.00    -0.058 C 
ATOM     16  C   UNL     1      -1.968  -0.166  -1.790  0.00  0.00    -0.058 C 
ATOM     17  C   UNL     1      -1.953  -1.635  -2.219  0.00  0.00    +0.086 C 
ATOM     18  N   UNL     1      -2.565  -0.070  -0.442  0.00  0.00    +0.394 N 
ATOM     19  H   UNL     1      -2.015  -0.643   0.209  0.00  0.00    -0.080 HD
BRANCH  13  25
ATOM     20  C   UNL     1      -3.921  -4.470  -1.894  0.00  0.00    +0.024 A 
ATOM     21  C   UNL     1      -3.958  -5.773  -2.350  0.00  0.00    +0.022 A 
ATOM     22  C   UNL     1      -3.429  -6.089  -3.589  0.00  0.00    +0.041 A 
ATOM     23  C   UNL     1      -2.866  -5.101  -4.377  0.00  0.00    +0.022 A 
ATOM     24  C   UNL     1      -2.831  -3.795  -3.928  0.00  0.00    +0.024 A 
ATOM     25  C   UNL     1      -3.362  -3.475  -2.685  0.00  0.00    +0.030 A 
ATOM     26 CL   UNL     1      -3.470  -7.730  -4.156  0.00  0.00    -0.084 Cl
ENDBRANCH  13  25
ENDBRANCH   1  18
BRANCH   1  27
ATOM     27  C   UNL     1      -3.094   1.395   1.423  0.00  0.00    +0.347 C 
ATOM     28  O   UNL     1      -3.476   0.386   1.966  0.00  0.00    -0.248 OA
ATOM     29  O   UNL     1      -3.159   2.571   2.068  0.00  0.00    -0.248 OA
ENDBRANCH   1  27
TORSDOF 4
