REMARK  Name = ZINC23833121
REMARK  4 active torsions:
REMARK  status: ('A' for Active; 'I' for Inactive)
REMARK    1  A    between atoms: C_1  and  C_2
REMARK    2  A    between atoms: C_16  and  O_19
REMARK    3  A    between atoms: O_19  and  C_20
REMARK    4  A    between atoms: C_20  and  C_21
REMARK                            x       y       z     vdW  Elec       q    Type
REMARK                         _______ _______ _______ _____ _____    ______ ____
ROOT
ATOM      1  C   UNL     1       1.680   9.782  -0.010  0.00  0.00    +0.009 C 
ATOM      2  C   UNL     1       0.241   9.263  -0.038  0.00  0.00    +0.003 C 
ATOM      3  C   UNL     1      -0.537   9.850   1.143  0.00  0.00    +0.006 C 
ATOM      4  C   UNL     1      -1.958   9.280   1.142  0.00  0.00    +0.019 C 
ATOM      5  C   UNL     1      -1.889   7.753   1.215  0.00  0.00    +0.106 C 
ATOM      6  N   UNL     1      -1.136   7.240   0.064  0.00  0.00    -0.315 N 
ATOM      7  C   UNL     1       0.246   7.736   0.069  0.00  0.00    +0.109 C 
ATOM      8  C   UNL     1      -1.166   5.853   0.028  0.00  0.00    +0.122 A 
ATOM      9  C   UNL     1      -2.404   5.195   0.011  0.00  0.00    +0.044 A 
ATOM     10  C   UNL     1      -2.449   3.834  -0.025  0.00  0.00    +0.013 A 
ATOM     11  C   UNL     1      -1.229   3.126  -0.044  0.00  0.00    +0.004 A 
ATOM     12  C   UNL     1      -1.203   1.722  -0.086  0.00  0.00    +0.010 A 
ATOM     13  C   UNL     1      -0.008   1.069  -0.098  0.00  0.00    +0.004 A 
ATOM     14  C   UNL     1       1.192   1.774  -0.079  0.00  0.00    +0.048 A 
ATOM     15  C   UNL     1       1.206   3.139  -0.044  0.00  0.00    +0.147 A 
ATOM     16  C   UNL     1      -0.013   3.848  -0.025  0.00  0.00    +0.115 A 
ATOM     17  N   UNL     1      -0.031   5.185   0.010  0.00  0.00    -0.228 NA
ENDROOT
BRANCH  15  18
ATOM     18  O   UNL     1       2.387   3.810  -0.026  0.00  0.00    -0.481 OA
BRANCH  18  19
ATOM     19  C   UNL     1       3.580   3.024  -0.046  0.00  0.00    +0.325 C 
BRANCH  19  20
ATOM     20  C   UNL     1       4.781   3.934  -0.022  0.00  0.00    +0.257 C 
ATOM     21  O   UNL     1       4.633   5.136  -0.082  0.00  0.00    -0.272 OA
ATOM     22  N   UNL     1       6.021   3.412   0.065  0.00  0.00    -0.268 N 
ATOM     23  C   UNL     1       6.220   1.956   0.058  0.00  0.00    +0.114 C 
ATOM     24  C   UNL     1       7.232   1.616   1.160  0.00  0.00    +0.024 C 
ATOM     25  C   UNL     1       8.570   2.274   0.822  0.00  0.00    +0.038 C 
ATOM     26  C   UNL     1       8.378   3.738   0.528  0.00  0.00    -0.026 A 
ATOM     27  C   UNL     1       7.142   4.248   0.160  0.00  0.00    +0.040 A 
ATOM     28  C   UNL     1       7.000   5.604  -0.103  0.00  0.00    +0.024 A 
ATOM     29  C   UNL     1       8.090   6.446  -0.007  0.00  0.00    +0.002 A 
ATOM     30  C   UNL     1       9.323   5.937   0.357  0.00  0.00    +0.000 A 
ATOM     31  C   UNL     1       9.466   4.589   0.623  0.00  0.00    +0.005 A 
ENDBRANCH  19  20
ENDBRANCH  18  19
ENDBRANCH  15  18
TORSDOF 3
