REMARK  Name = ZINC21235415
REMARK  6 active torsions:
REMARK  status: ('A' for Active; 'I' for Inactive)
REMARK    1  A    between atoms: C_1  and  C_2
REMARK    2  A    between atoms: C_2  and  C_3
REMARK    3  A    between atoms: C_2  and  C_4
REMARK    4  A    between atoms: C_2  and  C_5
REMARK    5  A    between atoms: C_8  and  C_11
REMARK    6  A    between atoms: C_16  and  C_22
REMARK                            x       y       z     vdW  Elec       q    Type
REMARK                         _______ _______ _______ _____ _____    ______ ____
ROOT
ATOM      1  C   UNL     1       4.078   2.456  -3.730  0.00  0.00    +0.032 C 
ATOM      2  C   UNL     1       4.816   2.907  -2.469  0.00  0.00    +0.059 C 
ATOM      3  C   UNL     1       4.023   2.514  -1.248  0.00  0.00    +0.018 C 
ATOM      4  C   UNL     1       3.244   1.412  -1.254  0.00  0.00    +0.020 C 
ATOM      5  C   UNL     1       2.466   1.033  -0.017  0.00  0.00    +0.063 C 
ATOM      6  C   UNL     1       3.277   1.401   1.227  0.00  0.00    +0.109 C 
ATOM      7  C   UNL     1       3.780   2.815   1.086  0.00  0.00    +0.218 C 
ATOM      8  O   UNL     1       3.887   3.519   2.067  0.00  0.00    -0.275 OA
ATOM      9  N   UNL     1       4.110   3.297  -0.124  0.00  0.00    -0.289 N 
ATOM     10  C   UNL     1       3.134   0.601  -2.396  0.00  0.00    +0.162 C 
ATOM     11  O   UNL     1       2.430  -0.388  -2.361  0.00  0.00    -0.292 OA
ATOM     12  C   UNL     1       3.875   0.939  -3.662  0.00  0.00    +0.088 C 
ATOM     13  H   UNL     1       4.454   4.338  -0.205  0.00  0.00    +0.155 HD
ENDROOT
BRANCH   5  14
ATOM     14  C   UNL     1       1.155   1.776   0.001  0.00  0.00    -0.039 A 
ATOM     15  C   UNL     1       1.155   3.170   0.008  0.00  0.00    +0.005 A 
ATOM     16  C   UNL     1      -0.011   3.871   0.023  0.00  0.00    +0.009 A 
ATOM     17  C   UNL     1      -1.236   3.183   0.031  0.00  0.00    -0.018 A 
ATOM     18  C   UNL     1      -2.460   3.873   0.047  0.00  0.00    +0.008 A 
ATOM     19  C   UNL     1      -3.627   3.172   0.055  0.00  0.00    +0.001 A 
ATOM     20  C   UNL     1      -3.628   1.779   0.047  0.00  0.00    +0.001 A 
ATOM     21  C   UNL     1      -2.462   1.077   0.031  0.00  0.00    +0.008 A 
ATOM     22  C   UNL     1      -1.237   1.766   0.018  0.00  0.00    -0.018 A 
ATOM     23  C   UNL     1      -0.013   1.076   0.008  0.00  0.00    +0.012 A 
ENDBRANCH   5  14
BRANCH   1  27
ATOM     24  C   UNL     1       6.387   3.441  -7.186  0.00  0.00    -0.042 A 
ATOM     25  C   UNL     1       5.112   3.953  -7.038  0.00  0.00    +0.004 A 
ATOM     26  C   UNL     1       4.364   3.634  -5.919  0.00  0.00    +0.004 A 
ATOM     27  C   UNL     1       4.893   2.803  -4.949  0.00  0.00    -0.043 A 
ATOM     28  C   UNL     1       6.170   2.295  -5.095  0.00  0.00    +0.004 A 
ATOM     29  C   UNL     1       6.915   2.610  -6.216  0.00  0.00    +0.004 A 
BRANCH  24  31
ATOM     30  C   UNL     1       7.402   5.303  -8.471  0.00  0.00    +0.015 C 
ATOM     31  C   UNL     1       7.201   3.788  -8.406  0.00  0.00    -0.013 C 
ATOM     32  C   UNL     1       8.563   3.096  -8.324  0.00  0.00    +0.015 C 
ATOM     33  C   UNL     1       6.465   3.316  -9.662  0.00  0.00    +0.015 C 
ENDBRANCH  24  31
ENDBRANCH   1  27
TORSDOF 3
