REMARK  Name = ZINC13203432
REMARK  11 active torsions:
REMARK  status: ('A' for Active; 'I' for Inactive)
REMARK    1  A    between atoms: C_1  and  C_2
REMARK    2  A    between atoms: C_2  and  C_3
REMARK    3  A    between atoms: C_3  and  C_4
REMARK    4  A    between atoms: C_7  and  S_12
REMARK    5  A    between atoms: N_8  and  C_9
REMARK    6  A    between atoms: C_9  and  C_10
REMARK    7  A    between atoms: S_12  and  C_13
REMARK    8  A    between atoms: C_13  and  C_14
REMARK    9  A    between atoms: N_16  and  C_17
REMARK   10  A    between atoms: N_16  and  C_23
REMARK   11  A    between atoms: C_17  and  C_18
REMARK                            x       y       z     vdW  Elec       q    Type
REMARK                         _______ _______ _______ _____ _____    ______ ____
ROOT
ATOM      1  C   UNL     1       4.778   0.020  -0.156  0.00  0.00    +0.230 C 
ATOM      2  O   UNL     1       4.769   1.233  -0.149  0.00  0.00    -0.274 OA
ATOM      3  N   UNL     1       3.621  -0.663  -0.044  0.00  0.00    -0.266 N 
ENDROOT
BRANCH   3   4
ATOM      4  C   UNL     1       2.401   0.025  -0.020  0.00  0.00    +0.040 A 
ATOM      5  C   UNL     1       1.643   0.054   1.143  0.00  0.00    +0.027 A 
ATOM      6  C   UNL     1       0.440   0.732   1.167  0.00  0.00    +0.051 A 
ATOM      7  C   UNL     1      -0.015   1.385   0.032  0.00  0.00    +0.162 A 
ATOM      8  C   UNL     1       0.743   1.360  -1.133  0.00  0.00    +0.164 A 
ATOM      9  C   UNL     1       1.950   0.678  -1.158  0.00  0.00    +0.073 A 
ATOM     10  O   UNL     1       0.317   2.002  -2.255  0.00  0.00    -0.485 OA
ATOM     11  C   UNL     1      -1.069   2.359  -2.307  0.00  0.00    +0.270 C 
ATOM     12  C   UNL     1      -1.450   2.999  -0.965  0.00  0.00    +0.270 C 
ATOM     13  O   UNL     1      -1.208   2.042   0.072  0.00  0.00    -0.485 OA
ENDBRANCH   3   4
BRANCH   1  14
ATOM     14  C   UNL     1       6.082  -0.724  -0.289  0.00  0.00    +0.173 C 
BRANCH  14  15
ATOM     15  S   UNL     1       7.443   0.463  -0.418  0.00  0.00    -0.077 S 
BRANCH  15  19
ATOM     16  C   UNL     1      10.804  -1.487  -0.762  0.00  0.00    +0.135 A 
ATOM     17  N   UNL     1       9.927  -2.448  -0.680  0.00  0.00    -0.134 NA
ATOM     18  N   UNL     1       8.745  -1.958  -0.560  0.00  0.00    -0.122 NA
ATOM     19  C   UNL     1       8.804  -0.647  -0.559  0.00  0.00    +0.193 A 
ATOM     20  N   UNL     1      10.119  -0.305  -0.693  0.00  0.00    -0.295 N 
BRANCH  16  21
ATOM     21  C   UNL     1      12.295  -1.648  -0.910  0.00  0.00    +0.076 C 
BRANCH  21  23
ATOM     22  C   UNL     1      14.171  -1.858  -2.547  0.00  0.00    +0.004 C 
ATOM     23  C   UNL     1      12.657  -1.695  -2.396  0.00  0.00    +0.004 C 
ENDBRANCH  21  23
ENDBRANCH  16  21
BRANCH  20  24
ATOM     24  C   UNL     1      10.681   1.047  -0.749  0.00  0.00    +0.250 C 
BRANCH  24  25
ATOM     25  C   UNL     1      11.019   1.508   0.645  0.00  0.00    +0.375 C 
ATOM     26  O   UNL     1      10.812   0.783   1.588  0.00  0.00    -0.244 OA
ATOM     27  O   UNL     1      11.550   2.726   0.838  0.00  0.00    -0.244 OA
ENDBRANCH  24  25
ENDBRANCH  20  24
ENDBRANCH  15  19
ENDBRANCH  14  15
ENDBRANCH   1  14
BRANCH   3  28
ATOM     28  C   UNL     1       3.640  -2.125   0.051  0.00  0.00    +0.156 C 
BRANCH  28  29
ATOM     29  C   UNL     1       3.565  -2.720  -1.331  0.00  0.00    +0.007 A 
ATOM     30  C   UNL     1       4.574  -3.047  -2.175  0.00  0.00    +0.013 A 
ATOM     31  C   UNL     1       4.266  -3.587  -3.410  0.00  0.00    +0.008 A 
ATOM     32  C   UNL     1       2.965  -3.774  -3.740  0.00  0.00    +0.045 A 
ATOM     33  S   UNL     1       2.125  -3.183  -2.279  0.00  0.00    -0.100 S 
ENDBRANCH  28  29
ENDBRANCH   3  28
TORSDOF 10
