REMARK  Name = ZINC12208803
REMARK  16 active torsions:
REMARK  status: ('A' for Active; 'I' for Inactive)
REMARK    1  A    between atoms: C_1  and  C_2
REMARK    2  A    between atoms: C_2  and  N_76
REMARK    3  A    between atoms: C_3  and  C_4
REMARK    4  A    between atoms: C_3  and  N_76
REMARK    5  A    between atoms: C_5  and  N_76
REMARK    6  A    between atoms: C_11  and  C_13
REMARK    7  A    between atoms: N_15  and  C_28
REMARK    8  A    between atoms: C_17  and  C_20
REMARK    9  A    between atoms: N_22  and  C_23
REMARK   10  A    between atoms: C_23  and  C_24
REMARK   11  A    between atoms: C_24  and  C_25
REMARK   12  A    between atoms: C_25  and  C_26
REMARK   13  A    between atoms: C_25  and  C_27
REMARK   14  A    between atoms: C_28  and  C_29
REMARK   15  A    between atoms: C_34  and  O_35
REMARK   16  A    between atoms: O_35  and  C_36
REMARK                            x       y       z     vdW  Elec       q    Type
REMARK                         _______ _______ _______ _____ _____    ______ ____
ROOT
ATOM      1  C   UNL     1       0.194   3.879  -0.068  0.00  0.00    +0.100 A 
ATOM      2  C   UNL     1       1.266   3.101   0.315  0.00  0.00    +0.103 A 
ATOM      3  N   UNL     1       1.200   1.760   0.296  0.00  0.00    -0.347 N 
ATOM      4  C   UNL     1       0.108   1.080  -0.089  0.00  0.00    +0.103 A 
ATOM      5  C   UNL     1      -1.035   1.730  -0.502  0.00  0.00    +0.100 A 
ATOM      6  C   UNL     1      -1.039   3.202  -0.503  0.00  0.00    +0.206 A 
ATOM      7  O   UNL     1      -2.021   3.834  -0.854  0.00  0.00    -0.286 OA
ENDROOT
BRANCH   1  13
ATOM      8  C   UNL     1       0.930   7.621   2.768  0.00  0.00    -0.049 C 
ATOM      9  C   UNL     1       1.831   6.428   3.181  0.00  0.00    +0.005 C 
ATOM     10  C   UNL     1       1.400   5.317   2.200  0.00  0.00    +0.106 C 
ATOM     11  N   UNL     1       0.799   5.976   1.031  0.00  0.00    -0.299 N 
ATOM     12  C   UNL     1       0.852   7.435   1.232  0.00  0.00    +0.093 C 
ATOM     13  C   UNL     1       0.281   5.349  -0.044  0.00  0.00    +0.252 C 
ATOM     14  O   UNL     1      -0.115   5.997  -0.994  0.00  0.00    -0.270 OA
BRANCH   8  15
ATOM     15  N   UNL     1       1.589   8.902   3.099  0.00  0.00    +0.382 N 
ATOM     16  H   UNL     1       2.515   8.926   2.656  0.00  0.00    -0.081 HD
BRANCH  15  18
ATOM     17  C   UNL     1      -0.599  10.045   3.242  0.00  0.00    -0.017 C 
ATOM     18  C   UNL     1       0.784  10.031   2.587  0.00  0.00    -0.082 C 
ENDBRANCH  15  18
BRANCH  15  19
ATOM     19  C   UNL     1       1.753   9.022   4.563  0.00  0.00    -0.082 C 
ATOM     20  C   UNL     1       2.726  10.166   4.856  0.00  0.00    -0.017 C 
ENDBRANCH  15  19
ENDBRANCH   8  15
ENDBRANCH   1  13
BRANCH   5  21
ATOM     21  C   UNL     1      -2.223   0.971  -0.928  0.00  0.00    +0.249 C 
ATOM     22  O   UNL     1      -3.224   1.560  -1.289  0.00  0.00    -0.270 OA
ATOM     23  N   UNL     1      -2.202  -0.377  -0.916  0.00  0.00    -0.311 N 
ATOM     24  H   UNL     1      -1.404  -0.847  -0.628  0.00  0.00    +0.149 HD
BRANCH  23  25
ATOM     25  C   UNL     1      -3.384  -1.132  -1.339  0.00  0.00    +0.105 C 
BRANCH  25  26
ATOM     26  C   UNL     1      -3.097  -2.631  -1.232  0.00  0.00    +0.022 C 
BRANCH  26  27
ATOM     27  C   UNL     1      -4.332  -3.419  -1.674  0.00  0.00    -0.016 C 
ATOM     28  C   UNL     1      -4.005  -4.914  -1.686  0.00  0.00    +0.007 C 
ATOM     29  C   UNL     1      -5.481  -3.156  -0.699  0.00  0.00    +0.007 C 
ENDBRANCH  26  27
ENDBRANCH  25  26
ENDBRANCH  23  25
ENDBRANCH   5  21
BRANCH   3  30
ATOM     30  C   UNL     1       2.380   1.000   0.717  0.00  0.00    +0.160 C 
BRANCH  30  31
ATOM     31  C   UNL     1       3.259   0.735  -0.477  0.00  0.00    +0.014 A 
ATOM     32  C   UNL     1       3.151  -0.458  -1.165  0.00  0.00    +0.009 A 
ATOM     33  C   UNL     1       3.954  -0.700  -2.264  0.00  0.00    +0.001 A 
ATOM     34  C   UNL     1       4.875   0.248  -2.672  0.00  0.00    +0.004 A 
ATOM     35  C   UNL     1       4.991   1.440  -1.985  0.00  0.00    +0.046 A 
ATOM     36  C   UNL     1       4.182   1.687  -0.885  0.00  0.00    +0.125 A 
BRANCH  36  37
ATOM     37  O   UNL     1       4.294   2.860  -0.207  0.00  0.00    -0.495 OA
ATOM     38  C   UNL     1       5.266   3.794  -0.683  0.00  0.00    +0.277 C 
ENDBRANCH  36  37
ENDBRANCH  30  31
ENDBRANCH   3  30
TORSDOF 11
