REMARK  Name = ZINC24351272
REMARK  11 active torsions:
REMARK  status: ('A' for Active; 'I' for Inactive)
REMARK    1  A    between atoms: C_1  and  C_2
REMARK    2  A    between atoms: C_2  and  C_3
REMARK    3  A    between atoms: C_3  and  C_4
REMARK    4  A    between atoms: C_4  and  N_5
REMARK    5  A    between atoms: C_6  and  N_37
REMARK    6  A    between atoms: C_7  and  N_14
REMARK    7  A    between atoms: N_14  and  C_15
REMARK    8  A    between atoms: C_15  and  C_16
REMARK    9  A    between atoms: C_22  and  C_24
REMARK   10  A    between atoms: C_31  and  C_36
REMARK   11  A    between atoms: C_33  and  C_35
REMARK                            x       y       z     vdW  Elec       q    Type
REMARK                         _______ _______ _______ _____ _____    ______ ____
ROOT
ATOM      1  N   UNL     1       4.456  -0.865  -1.567  0.00  0.00    -0.256 N 
ATOM      2  C   UNL     1       4.955   0.169  -2.272  0.00  0.00    +0.255 C 
ATOM      3  O   UNL     1       5.099   1.254  -1.741  0.00  0.00    -0.269 OA
ENDROOT
BRANCH   2   4
ATOM      4  C   UNL     1       5.326  -0.015  -3.688  0.00  0.00    +0.079 A 
ATOM      5  C   UNL     1       4.733  -1.029  -4.440  0.00  0.00    +0.017 A 
ATOM      6  C   UNL     1       5.077  -1.202  -5.763  0.00  0.00    +0.001 A 
ATOM      7  C   UNL     1       6.013  -0.365  -6.351  0.00  0.00    +0.007 A 
ATOM      8  C   UNL     1       6.603   0.641  -5.619  0.00  0.00    +0.001 A 
ATOM      9  C   UNL     1       6.275   0.836  -4.284  0.00  0.00    +0.137 A 
ATOM     10  O   UNL     1       6.989   1.859  -3.744  0.00  0.00    -0.487 OA
ATOM     11  C   UNL     1       7.497   2.689  -4.803  0.00  0.00    +0.178 C 
ATOM     12  C   UNL     1       7.628   1.697  -5.983  0.00  0.00    +0.060 C 
ATOM     13  C   UNL     1       9.034   1.098  -6.040  0.00  0.00    +0.016 C 
ATOM     14  C   UNL     1       8.861   3.274  -4.431  0.00  0.00    +0.052 C 
ENDBRANCH   2   4
BRANCH   1  17
ATOM     15  N   UNL     1       5.243  -4.008  -3.300  0.00  0.00    -0.280 N 
ATOM     16  C   UNL     1       5.411  -2.774  -2.715  0.00  0.00    +0.127 A 
ATOM     17  C   UNL     1       4.316  -2.131  -2.174  0.00  0.00    +0.140 A 
ATOM     18  C   UNL     1       3.060  -2.762  -2.232  0.00  0.00    +0.277 A 
ATOM     19  O   UNL     1       2.077  -2.218  -1.758  0.00  0.00    -0.266 OA
ATOM     20  N   UNL     1       2.949  -3.969  -2.821  0.00  0.00    -0.273 N 
ATOM     21  H   UNL     1       1.968  -4.465  -2.879  0.00  0.00    +0.173 HD
ATOM     22  C   UNL     1       4.026  -4.581  -3.344  0.00  0.00    +0.331 A 
ATOM     23  O   UNL     1       3.898  -5.671  -3.866  0.00  0.00    -0.246 OA
BRANCH  16  24
ATOM     24  N   UNL     1       6.654  -2.189  -2.671  0.00  0.00    -0.343 N 
ATOM     25  H   UNL     1       6.780  -1.202  -2.202  0.00  0.00    +0.144 HD
ATOM     26  H   UNL     1       7.521  -2.707  -3.105  0.00  0.00    +0.144 HD
ENDBRANCH  16  24
BRANCH  15  27
ATOM     27  C   UNL     1       6.396  -4.702  -3.879  0.00  0.00    +0.128 C 
BRANCH  27  28
ATOM     28  C   UNL     1       7.051  -5.581  -2.811  0.00  0.00    +0.021 C 
BRANCH  28  30
ATOM     29  C   UNL     1       8.909  -7.184  -2.347  0.00  0.00    +0.004 C 
ATOM     30  C   UNL     1       8.255  -6.306  -3.415  0.00  0.00    -0.002 C 
ENDBRANCH  28  30
ENDBRANCH  27  28
ENDBRANCH  15  27
ENDBRANCH   1  17
BRANCH   1  31
ATOM     31  C   UNL     1       4.059  -0.675  -0.169  0.00  0.00    +0.149 C 
BRANCH  31  32
ATOM     32  C   UNL     1       5.209  -1.040   0.734  0.00  0.00    -0.030 A 
ATOM     33  C   UNL     1       6.110  -0.070   1.132  0.00  0.00    +0.005 A 
ATOM     34  C   UNL     1       7.165  -0.404   1.960  0.00  0.00    +0.000 A 
ATOM     35  C   UNL     1       7.319  -1.709   2.390  0.00  0.00    +0.000 A 
ATOM     36  C   UNL     1       6.419  -2.679   1.992  0.00  0.00    +0.000 A 
ATOM     37  C   UNL     1       5.364  -2.345   1.163  0.00  0.00    +0.005 A 
ENDBRANCH  31  32
ENDBRANCH   1  31
TORSDOF 8
