REMARK  Name = ZINC64684539
REMARK  10 active torsions:
REMARK  status: ('A' for Active; 'I' for Inactive)
REMARK    1  A    between atoms: C_1  and  O_2
REMARK    2  A    between atoms: O_2  and  C_3
REMARK    3  A    between atoms: C_8  and  N_9
REMARK    4  A    between atoms: C_13  and  S_15
REMARK    5  A    between atoms: S_15  and  C_16
REMARK    6  A    between atoms: C_16  and  C_17
REMARK    7  A    between atoms: N_19  and  CA_20
REMARK    8  A    between atoms: CA_20  and  CB_22
REMARK    9  A    between atoms: CA_20  and  C_32
REMARK   10  A    between atoms: CB_22  and  CG_23
REMARK                            x       y       z     vdW  Elec       q    Type
REMARK                         _______ _______ _______ _____ _____    ______ ____
ROOT
ATOM      1  C   UNK A   0      -0.529  -6.702   2.377  0.00  0.00    +0.224 C 
ATOM      2  O   UNK A   0      -1.367  -6.525   3.236  0.00  0.00    -0.275 OA
ATOM      3  N   TRP A   1       0.270  -7.785   2.428  0.00  0.00    -0.301 N 
ATOM      4  H   TRP A   1       0.940  -7.927   1.741  0.00  0.00    +0.150 HD
ENDROOT
BRANCH   1   5
ATOM      5  C   UNK A   0      -0.383  -5.709   1.252  0.00  0.00    +0.168 C 
BRANCH   5   6
ATOM      6  S   UNK A   0      -1.591  -4.373   1.463  0.00  0.00    -0.112 S 
BRANCH   6  11
ATOM      7  N   UNK A   0       0.098  -2.778   0.086  0.00  0.00    -0.288 N 
ATOM      8  C   UNK A   0       0.748  -3.252  -1.152  0.00  0.00    +0.207 C 
ATOM      9  N   UNK A   0      -0.379  -3.484  -2.092  0.00  0.00    -0.237 NA
ATOM     10  N   UNK A   0      -1.430  -4.032  -1.219  0.00  0.00    -0.226 NA
ATOM     11  C   UNK A   0      -1.287  -3.279   0.048  0.00  0.00    +0.217 C 
ATOM     12  H   UNK A   0      -0.122  -4.147  -2.808  0.00  0.00    +0.142 HD
ATOM     13  H   UNK A   0      -1.294  -5.020  -1.065  0.00  0.00    +0.143 HD
BRANCH   7  19
ATOM     14  C   UNK A   0       0.626  -0.619   1.042  0.00  0.00    +0.141 A 
ATOM     15  C   UNK A   0       1.202   0.136   2.051  0.00  0.00    +0.047 A 
ATOM     16  C   UNK A   0       1.837  -0.490   3.107  0.00  0.00    +0.004 A 
ATOM     17  C   UNK A   0       1.899  -1.870   3.162  0.00  0.00    +0.002 A 
ATOM     18  C   UNK A   0       1.326  -2.631   2.160  0.00  0.00    +0.027 A 
ATOM     19  C   UNK A   0       0.683  -2.010   1.099  0.00  0.00    +0.075 A 
BRANCH  14  21
ATOM     20  C   UNK A   0      -0.017   1.425   0.010  0.00  0.00    +0.277 C 
ATOM     21  O   UNK A   0       0.002  -0.004   0.002  0.00  0.00    -0.493 OA
ENDBRANCH  14  21
ENDBRANCH   7  19
ENDBRANCH   6  11
ENDBRANCH   5   6
ENDBRANCH   1   5
BRANCH   3  22
ATOM     22  CA  TRP A   1       0.127  -8.750   3.521  0.00  0.00    +0.190 C 
BRANCH  22  23
ATOM     23  C   TRP A   1       0.926  -8.283   4.710  0.00  0.00    +0.376 C 
ATOM     24  O   TRP A   1       1.557  -7.241   4.650  0.00  0.00    -0.244 OA
ATOM     25  OXT TRP A   1       0.943  -8.947   5.732  0.00  0.00    -0.244 OA
ENDBRANCH  22  23
BRANCH  22  26
ATOM     26  CB  TRP A   1       0.642 -10.117   3.065  0.00  0.00    +0.067 C 
BRANCH  26  27
ATOM     27  CG  TRP A   1      -0.234 -10.639   1.956  0.00  0.00    -0.039 C 
ATOM     28  CD2 TRP A   1      -0.018 -10.523   0.626  0.00  0.00    -0.001 A 
ATOM     29  CE3 TRP A   1       1.056  -9.899  -0.156  0.00  0.00    +0.010 A 
ATOM     30  CZ3 TRP A   1       0.996  -9.944  -1.506  0.00  0.00    +0.001 A 
ATOM     31  CH2 TRP A   1      -0.064 -10.571  -2.176  0.00  0.00    +0.002 A 
ATOM     32  CZ2 TRP A   1      -1.087 -11.166  -1.527  0.00  0.00    +0.026 A 
ATOM     33  CE2 TRP A   1      -1.126 -11.179  -0.105  0.00  0.00    +0.043 A 
ATOM     34  NE1 TRP A   1      -1.993 -11.681   0.740  0.00  0.00    -0.380 N 
ATOM     35  CD1 TRP A   1      -1.530 -11.405   2.105  0.00  0.00    +0.144 C 
ATOM     36  HE1 TRP A   1      -2.804 -12.158   0.503  0.00  0.00    +0.160 HD
ENDBRANCH  26  27
ENDBRANCH  22  26
ENDBRANCH   3  22
TORSDOF 9
