REMARK  Name = ZINC09432571
REMARK  10 active torsions:
REMARK  status: ('A' for Active; 'I' for Inactive)
REMARK    1  A    between atoms: C_1  and  O_2
REMARK    2  A    between atoms: O_2  and  C_3
REMARK    3  A    between atoms: C_3  and  C_4
REMARK    4  A    between atoms: C_4  and  N_5
REMARK    5  A    between atoms: C_6  and  C_31
REMARK    6  A    between atoms: C_8  and  C_18
REMARK    7  A    between atoms: N_20  and  C_21
REMARK    8  A    between atoms: C_26  and  C_27
REMARK    9  A    between atoms: C_27  and  O_29
REMARK   10  A    between atoms: O_29  and  C_30
REMARK                            x       y       z     vdW  Elec       q    Type
REMARK                         _______ _______ _______ _____ _____    ______ ____
ROOT
ATOM      1  N   UNL     1      -0.660  -0.380   1.327  0.00  0.00    -0.287 N 
ATOM      2  C   UNL     1       0.337   0.106   0.375  0.00  0.00    +0.129 C 
ATOM      3  C   UNL     1      -0.032  -0.290  -1.052  0.00  0.00    +0.131 C 
ATOM      4  C   UNL     1      -1.458   0.095  -1.345  0.00  0.00    -0.021 A 
ATOM      5  C   UNL     1      -1.839   0.472  -2.615  0.00  0.00    +0.005 A 
ATOM      6  C   UNL     1      -3.161   0.789  -2.875  0.00  0.00    +0.000 A 
ATOM      7  C   UNL     1      -4.107   0.731  -1.867  0.00  0.00    +0.001 A 
ATOM      8  C   UNL     1      -3.737   0.363  -0.588  0.00  0.00    +0.013 A 
ATOM      9  C   UNL     1      -2.406   0.048  -0.321  0.00  0.00    +0.041 A 
ATOM     10  C   UNL     1      -1.975  -0.335   1.040  0.00  0.00    +0.247 C 
ATOM     11  O   UNL     1      -2.799  -0.607   1.892  0.00  0.00    -0.270 OA
ENDROOT
BRANCH   2  12
ATOM     12  C   UNL     1       0.418   1.608   0.467  0.00  0.00    +0.011 A 
ATOM     13  C   UNL     1       1.510   2.408   0.419  0.00  0.00    +0.013 A 
ATOM     14  C   UNL     1       1.345   3.777   0.524  0.00  0.00    +0.008 A 
ATOM     15  C   UNL     1       0.094   4.278   0.671  0.00  0.00    +0.045 A 
ATOM     16  S   UNL     1      -0.902   2.796   0.658  0.00  0.00    -0.100 S 
ENDBRANCH   2  12
BRANCH   3  17
ATOM     17  C   UNL     1       0.884   0.415  -2.019  0.00  0.00    +0.227 C 
ATOM     18  O   UNL     1       0.630   1.544  -2.381  0.00  0.00    -0.275 OA
ATOM     19  N   UNL     1       1.985  -0.209  -2.481  0.00  0.00    -0.284 N 
ATOM     20  H   UNL     1       2.144  -1.141  -2.260  0.00  0.00    +0.155 HD
BRANCH  19  21
ATOM     21  C   UNL     1       2.896   0.482  -3.276  0.00  0.00    +0.047 A 
ATOM     22  C   UNL     1       2.443   1.339  -4.270  0.00  0.00    +0.024 A 
ATOM     23  C   UNL     1       3.347   2.028  -5.054  0.00  0.00    +0.002 A 
ATOM     24  C   UNL     1       4.710   1.862  -4.864  0.00  0.00    +0.001 A 
ATOM     25  C   UNL     1       5.177   1.011  -3.886  0.00  0.00    +0.017 A 
ATOM     26  C   UNL     1       4.275   0.311  -3.081  0.00  0.00    +0.080 A 
BRANCH  26  27
ATOM     27  C   UNL     1       4.768  -0.601  -2.034  0.00  0.00    +0.341 C 
ATOM     28  O   UNL     1       3.982  -1.158  -1.294  0.00  0.00    -0.245 OA
BRANCH  27  29
ATOM     29  O   UNL     1       6.091  -0.818  -1.897  0.00  0.00    -0.464 OA
ATOM     30  C   UNL     1       6.505  -1.728  -0.845  0.00  0.00    +0.280 C 
ENDBRANCH  27  29
ENDBRANCH  26  27
ENDBRANCH  19  21
ENDBRANCH   3  17
BRANCH   1  31
ATOM     31  C   UNL     1      -0.221  -0.925   2.614  0.00  0.00    +0.137 C 
BRANCH  31  32
ATOM     32  C   UNL     1      -0.151   0.201   3.648  0.00  0.00    +0.178 C 
BRANCH  32  34
ATOM     33  C   UNL     1      -1.509   1.777   4.837  0.00  0.00    +0.194 C 
ATOM     34  O   UNL     1      -1.463   0.715   3.882  0.00  0.00    -0.381 OA
ENDBRANCH  32  34
ENDBRANCH  31  32
ENDBRANCH   1  31
TORSDOF 8
