REMARK  Name = ZINC38671067
REMARK  11 active torsions:
REMARK  status: ('A' for Active; 'I' for Inactive)
REMARK    1  A    between atoms: C_1  and  C_2
REMARK    2  A    between atoms: C_2  and  C_3
REMARK    3  A    between atoms: C_2  and  S_4
REMARK    4  A    between atoms: S_4  and  C_7
REMARK    5  A    between atoms: C_10  and  C_13
REMARK    6  A    between atoms: C_13  and  C_14
REMARK    7  A    between atoms: N_16  and  C_17
REMARK    8  A    between atoms: C_17  and  C_18
REMARK    9  A    between atoms: C_18  and  C_20
REMARK   10  A    between atoms: C_18  and  N_31
REMARK   11  A    between atoms: N_29  and  C_30
REMARK                            x       y       z     vdW  Elec       q    Type
REMARK                         _______ _______ _______ _____ _____    ______ ____
ROOT
ATOM      1  C   UNL     1      -3.676   4.420  -9.439  0.00  0.00    -0.020 C 
ENDROOT
BRANCH   1   2
ATOM      2  C   UNL     1      -2.591   5.242 -10.086  0.00  0.00    -0.059 A 
ATOM      3  C   UNL     1      -2.406   6.560  -9.707  0.00  0.00    +0.004 A 
ATOM      4  C   UNL     1      -1.413   7.313 -10.301  0.00  0.00    +0.023 A 
ATOM      5  C   UNL     1      -0.600   6.748 -11.277  0.00  0.00    +0.033 A 
ATOM      6  C   UNL     1      -0.784   5.427 -11.653  0.00  0.00    -0.026 A 
ATOM      7  C   UNL     1      -1.781   4.677 -11.051  0.00  0.00    +0.007 A 
ATOM      8  C   UNL     1       0.084   4.778 -12.699  0.00  0.00    +0.038 C 
ATOM      9  C   UNL     1       0.751   5.839 -13.574  0.00  0.00    +0.024 C 
ATOM     10  C   UNL     1       1.438   6.869 -12.668  0.00  0.00    +0.105 C 
ATOM     11  N   UNL     1       0.397   7.530 -11.870  0.00  0.00    -0.333 N 
ATOM     12  C   UNL     1       0.403   8.985 -11.697  0.00  0.00    +0.129 C 
ENDBRANCH   1   2
BRANCH   1  13
ATOM     13  N   UNL     1      -4.879   5.245  -9.267  0.00  0.00    +0.385 N 
ATOM     14  C   UNL     1      -5.956   4.425  -8.698  0.00  0.00    -0.078 C 
ATOM     15  C   UNL     1      -7.186   5.298  -8.442  0.00  0.00    -0.019 C 
ATOM     16  C   UNL     1      -7.654   5.912  -9.764  0.00  0.00    -0.004 C 
ATOM     17  C   UNL     1      -6.500   6.704 -10.385  0.00  0.00    -0.019 C 
ATOM     18  C   UNL     1      -5.295   5.779 -10.570  0.00  0.00    -0.078 C 
ATOM     19  H   UNL     1      -4.675   6.010  -8.641  0.00  0.00    -0.081 HD
ENDBRANCH   1  13
BRANCH   1  20
ATOM     20  C   UNL     1      -3.196   3.927  -8.073  0.00  0.00    +0.093 C 
BRANCH  20  23
ATOM     21  C   UNL     1      -1.450   2.483  -7.177  0.00  0.00    +0.217 C 
ATOM     22  O   UNL     1      -1.855   2.735  -6.061  0.00  0.00    -0.275 OA
ATOM     23  N   UNL     1      -2.053   3.029  -8.251  0.00  0.00    -0.316 N 
ATOM     24  H   UNL     1      -1.729   2.828  -9.143  0.00  0.00    +0.149 HD
BRANCH  21  25
ATOM     25  C   UNL     1      -0.274   1.559  -7.361  0.00  0.00    +0.130 C 
BRANCH  25  29
ATOM     26  C   UNL     1       1.103   0.225  -3.543  0.00  0.00    +0.088 A 
ATOM     27  C   UNL     1       0.135  -0.494  -4.219  0.00  0.00    +0.027 A 
ATOM     28  C   UNL     1      -0.310  -0.063  -5.454  0.00  0.00    +0.006 A 
ATOM     29  C   UNL     1       0.211   1.089  -6.013  0.00  0.00    -0.039 A 
ATOM     30  C   UNL     1       1.178   1.809  -5.337  0.00  0.00    +0.006 A 
ATOM     31  C   UNL     1       1.621   1.380  -4.100  0.00  0.00    +0.027 A 
BRANCH  26  32
ATOM     32  S   UNL     1       1.671  -0.325  -1.968  0.00  0.00    -0.001 S 
ATOM     33  O   UNL     1       2.983   0.206  -1.850  0.00  0.00    -0.169 OA
ATOM     34  O   UNL     1       1.455  -1.730  -1.976  0.00  0.00    -0.169 OA
BRANCH  32  36
ATOM     35  C   UNL     1      -0.877   0.031  -1.037  0.00  0.00    +0.032 C 
ATOM     36  C   UNL     1       0.565   0.470  -0.770  0.00  0.00    +0.130 C 
ATOM     37  C   UNL     1       0.969   0.059   0.647  0.00  0.00    +0.032 C 
ENDBRANCH  32  36
ENDBRANCH  26  32
ENDBRANCH  25  29
ENDBRANCH  21  25
ENDBRANCH  20  23
ENDBRANCH   1  20
TORSDOF 8
