REMARK  Name = ZINC27232023
REMARK  16 active torsions:
REMARK  status: ('A' for Active; 'I' for Inactive)
REMARK    1  A    between atoms: C_1  and  C_2
REMARK    2  A    between atoms: C_2  and  O_3
REMARK    3  A    between atoms: O_3  and  C_4
REMARK    4  A    between atoms: C_4  and  C_6
REMARK    5  A    between atoms: C_7  and  C_38
REMARK    6  A    between atoms: C_8  and  C_35
REMARK    7  A    between atoms: C_10  and  N_11
REMARK    8  A    between atoms: C_12  and  C_14
REMARK    9  A    between atoms: C_14  and  N_15
REMARK   10  A    between atoms: C_16  and  C_29
REMARK   11  A    between atoms: C_18  and  C_24
REMARK   12  A    between atoms: C_19  and  C_23
REMARK   13  A    between atoms: C_24  and  O_26
REMARK   14  A    between atoms: O_26  and  C_27
REMARK   15  A    between atoms: C_27  and  C_28
REMARK   16  A    between atoms: C_35  and  C_37
REMARK                            x       y       z     vdW  Elec       q    Type
REMARK                         _______ _______ _______ _____ _____    ______ ____
ROOT
ATOM      1  N   UNL     1       5.871   3.212   0.002  0.00  0.00    -0.265 N 
ATOM      2  C   UNL     1       6.557   3.677   1.219  0.00  0.00    +0.147 C 
ATOM      3  C   UNL     1       7.456   4.888   1.080  0.00  0.00    +0.078 C 
ATOM      4  C   UNL     1       7.565   5.454  -0.141  0.00  0.00    +0.021 C 
ATOM      5  N   UNL     1       6.887   4.949  -1.214  0.00  0.00    -0.273 N 
ATOM      6  C   UNL     1       6.084   3.880  -1.149  0.00  0.00    +0.307 C 
ATOM      7  O   UNL     1       5.526   3.501  -2.160  0.00  0.00    -0.252 OA
ATOM      8  C   UNL     1       8.449   6.660  -0.324  0.00  0.00    +0.061 C 
ATOM      9  H   UNL     1       6.986   5.426  -2.201  0.00  0.00    +0.156 HD
ENDROOT
BRANCH   2  10
ATOM     10  C   UNL     1       7.391   2.538   1.746  0.00  0.00    -0.022 A 
ATOM     11  C   UNL     1       8.078   1.721   0.869  0.00  0.00    +0.006 A 
ATOM     12  C   UNL     1       8.847   0.678   1.352  0.00  0.00    +0.000 A 
ATOM     13  C   UNL     1       8.920   0.447   2.713  0.00  0.00    +0.000 A 
ATOM     14  C   UNL     1       8.228   1.261   3.591  0.00  0.00    +0.000 A 
ATOM     15  C   UNL     1       7.463   2.306   3.107  0.00  0.00    +0.006 A 
ENDBRANCH   2  10
BRANCH   3  16
ATOM     16  C   UNL     1       8.158   5.410   2.192  0.00  0.00    +0.339 C 
ATOM     17  O   UNL     1       8.972   6.301   2.035  0.00  0.00    -0.245 OA
BRANCH  16  18
ATOM     18  O   UNL     1       7.926   4.918   3.427  0.00  0.00    -0.462 OA
BRANCH  18  19
ATOM     19  C   UNL     1       8.671   5.491   4.504  0.00  0.00    +0.229 C 
ATOM     20  C   UNL     1       8.275   4.811   5.816  0.00  0.00    +0.048 C 
ENDBRANCH  18  19
ENDBRANCH  16  18
ENDBRANCH   3  16
BRANCH   1  21
ATOM     21  C   UNL     1       4.982   2.048   0.040  0.00  0.00    +0.206 C 
BRANCH  21  23
ATOM     22  N   UNL     1       2.583   1.593   0.435  0.00  0.00    -0.278 N 
ATOM     23  C   UNL     1       3.577   2.499   0.349  0.00  0.00    +0.235 C 
ATOM     24  O   UNL     1       3.342   3.676   0.520  0.00  0.00    -0.274 OA
ATOM     25  H   UNL     1       2.796   0.526   0.280  0.00  0.00    +0.155 HD
BRANCH  22  30
ATOM     26  C   UNL     1       0.141   1.226   0.847  0.00  0.00    +0.091 A 
ATOM     27  C   UNL     1      -1.048   1.874   1.132  0.00  0.00    -0.017 A 
ATOM     28  C   UNL     1      -1.004   3.249   1.279  0.00  0.00    +0.060 A 
ATOM     29  S   UNL     1       0.719   3.615   1.000  0.00  0.00    -0.070 S 
ATOM     30  C   UNL     1       1.296   2.006   0.718  0.00  0.00    +0.087 A 
ATOM     31  C   UNL     1      -2.340   1.112   1.282  0.00  0.00    +0.046 C 
BRANCH  28  32
ATOM     32  C   UNL     1      -2.058   4.139   1.571  0.00  0.00    +0.167 C 
ATOM     33  O   UNL     1      -3.184   3.714   1.733  0.00  0.00    -0.292 OA
ATOM     34  C   UNL     1      -1.787   5.618   1.682  0.00  0.00    +0.092 C 
ENDBRANCH  28  32
BRANCH  26  35
ATOM     35  C   UNL     1       0.188  -0.231   0.679  0.00  0.00    +0.342 C 
ATOM     36  O   UNL     1       0.398  -0.947   1.639  0.00  0.00    -0.245 OA
BRANCH  35  37
ATOM     37  O   UNL     1      -0.002  -0.776  -0.540  0.00  0.00    -0.461 OA
BRANCH  37  39
ATOM     38  C   UNL     1      -0.179  -2.654  -2.080  0.00  0.00    +0.048 C 
ATOM     39  C   UNL     1       0.058  -2.224  -0.631  0.00  0.00    +0.229 C 
ENDBRANCH  37  39
ENDBRANCH  35  37
ENDBRANCH  26  35
ENDBRANCH  22  30
ENDBRANCH  21  23
ENDBRANCH   1  21
TORSDOF 11
