REMARK  Name = ZINC35539106
REMARK  10 active torsions:
REMARK  status: ('A' for Active; 'I' for Inactive)
REMARK    1  A    between atoms: C_1  and  C_2
REMARK    2  A    between atoms: C_2  and  N_3
REMARK    3  A    between atoms: C_11  and  N_19
REMARK    4  A    between atoms: C_13  and  C_15
REMARK    5  A    between atoms: C_15  and  C_16
REMARK    6  A    between atoms: C_16  and  C_17
REMARK    7  A    between atoms: C_16  and  C_18
REMARK    8  A    between atoms: N_27  and  C_28
REMARK    9  A    between atoms: C_31  and  C_35
REMARK   10  A    between atoms: C_33  and  C_34
REMARK                            x       y       z     vdW  Elec       q    Type
REMARK                         _______ _______ _______ _____ _____    ______ ____
ROOT
ATOM      1  N   UNL     1       3.148   0.595   1.712  0.00  0.00    -0.298 NA
ATOM      2  C   UNL     1       2.964  -0.823   1.373  0.00  0.00    +0.089 C 
ATOM      3  C   UNL     1       3.524  -1.706   2.490  0.00  0.00    +0.052 C 
ATOM      4  C   UNL     1       2.918  -1.246   3.814  0.00  0.00    -0.022 A 
ATOM      5  C   UNL     1       2.349  -0.020   3.900  0.00  0.00    +0.010 A 
ATOM      6  S   UNL     1       1.780   0.114   5.575  0.00  0.00    -0.072 S 
ATOM      7  C   UNL     1       2.304  -1.466   6.159  0.00  0.00    +0.114 A 
ATOM      8  C   UNL     1       2.911  -2.055   5.019  0.00  0.00    +0.051 A 
ATOM      9  C   UNL     1       3.443  -3.366   5.181  0.00  0.00    +0.133 A 
ATOM     10  N   UNL     1       3.312  -3.901   6.393  0.00  0.00    -0.217 NA
ATOM     11  C   UNL     1       2.733  -3.292   7.408  0.00  0.00    +0.133 A 
ATOM     12  N   UNL     1       2.217  -2.071   7.326  0.00  0.00    -0.225 NA
ATOM     13  C   UNL     1       2.236   0.990   2.802  0.00  0.00    +0.127 C 
ENDROOT
BRANCH   9  14
ATOM     14  N   UNL     1       4.059  -4.043   4.143  0.00  0.00    -0.312 N 
ATOM     15  C   UNL     1       5.477  -3.811   3.835  0.00  0.00    +0.125 C 
ATOM     16  C   UNL     1       6.211  -5.157   3.865  0.00  0.00    +0.128 C 
ATOM     17  N   UNL     1       5.458  -6.120   3.050  0.00  0.00    -0.282 N 
ATOM     18  C   UNL     1       4.040  -6.353   3.357  0.00  0.00    +0.128 C 
ATOM     19  C   UNL     1       3.307  -5.011   3.331  0.00  0.00    +0.125 C 
ATOM     20  C   UNL     1       6.058  -6.779   2.038  0.00  0.00    +0.307 C 
ATOM     21  O   UNL     1       7.252  -6.649   1.851  0.00  0.00    -0.252 OA
ATOM     22  N   UNL     1       5.333  -7.582   1.234  0.00  0.00    -0.269 N 
ATOM     23  H   UNL     1       4.373  -7.648   1.353  0.00  0.00    +0.156 HD
BRANCH  22  24
ATOM     24  C   UNL     1       5.966  -8.320   0.228  0.00  0.00    +0.038 A 
ATOM     25  C   UNL     1       7.142  -7.851  -0.344  0.00  0.00    +0.024 A 
ATOM     26  C   UNL     1       7.765  -8.582  -1.336  0.00  0.00    +0.005 A 
ATOM     27  C   UNL     1       7.218  -9.779  -1.762  0.00  0.00    -0.050 A 
ATOM     28  C   UNL     1       6.048 -10.248  -1.196  0.00  0.00    +0.008 A 
ATOM     29  C   UNL     1       5.423  -9.525  -0.198  0.00  0.00    -0.029 A 
ATOM     30  C   UNL     1       4.150 -10.040   0.423  0.00  0.00    +0.045 C 
ATOM     31  C   UNL     1       7.900 -10.574  -2.846  0.00  0.00    +0.044 C 
ENDBRANCH  22  24
ENDBRANCH   9  14
BRANCH   1  33
ATOM     32  C   UNL     1       3.384   2.879   0.862  0.00  0.00    +0.020 C 
ATOM     33  C   UNL     1       2.958   1.448   0.531  0.00  0.00    +0.081 C 
ENDBRANCH   1  33
BRANCH  11  34
ATOM     34  C   UNL     1       2.653  -4.016   8.727  0.00  0.00    +0.079 C 
BRANCH  34  35
ATOM     35  C   UNL     1       3.897  -3.697   9.560  0.00  0.00    -0.010 C 
ATOM     36  C   UNL     1       3.906  -2.209   9.915  0.00  0.00    +0.007 C 
ATOM     37  C   UNL     1       3.877  -4.528  10.845  0.00  0.00    +0.007 C 
ENDBRANCH  34  35
ENDBRANCH  11  34
TORSDOF 5
