REMARK  Name = ZINC59402320
REMARK  4 active torsions:
REMARK  status: ('A' for Active; 'I' for Inactive)
REMARK    1  A    between atoms: C_4  and  N_7
REMARK    2  A    between atoms: C_10  and  C_15
REMARK    3  A    between atoms: C_15  and  C_17
REMARK    4  A    between atoms: C_15  and  N_24
REMARK                            x       y       z     vdW  Elec       q    Type
REMARK                         _______ _______ _______ _____ _____    ______ ____
ROOT
ATOM      1  C   UNL     1       5.731  -2.949  -1.293  0.00  0.00    -0.007 C 
ENDROOT
BRANCH   1   5
ATOM      2  N   UNL     1       4.452  -3.400   1.794  0.00  0.00    -0.220 N 
ATOM      3  C   UNL     1       5.613  -3.051   1.206  0.00  0.00    +0.244 C 
ATOM      4  O   UNL     1       6.734  -3.317   1.584  0.00  0.00    -0.273 OA
ATOM      5  C   UNL     1       5.227  -2.256  -0.025  0.00  0.00    +0.150 C 
ATOM      6  N   UNL     1       3.754  -2.249   0.015  0.00  0.00    -0.316 N 
ATOM      7  C   UNL     1       3.396  -2.946   1.109  0.00  0.00    +0.144 C 
ATOM      8  S   UNL     1       1.771  -3.216   1.575  0.00  0.00    -0.018 S 
ATOM      9  H   UNL     1       3.159  -1.828  -0.624  0.00  0.00    +0.148 HD
BRANCH   2  13
ATOM     10  C   UNL     1       4.180  -5.635   5.302  0.00  0.00    +0.000 A 
ATOM     11  C   UNL     1       4.691  -4.351   5.340  0.00  0.00    +0.002 A 
ATOM     12  C   UNL     1       4.782  -3.608   4.179  0.00  0.00    +0.024 A 
ATOM     13  C   UNL     1       4.361  -4.152   2.973  0.00  0.00    +0.043 A 
ATOM     14  C   UNL     1       3.849  -5.442   2.938  0.00  0.00    +0.024 A 
ATOM     15  C   UNL     1       3.760  -6.180   4.102  0.00  0.00    +0.002 A 
ENDBRANCH   2  13
ENDBRANCH   1   5
BRANCH   1  16
ATOM     16  C   UNL     1       5.094  -4.310  -1.409  0.00  0.00    -0.040 A 
ATOM     17  C   UNL     1       5.753  -5.425  -0.927  0.00  0.00    +0.003 A 
ATOM     18  C   UNL     1       5.169  -6.673  -1.033  0.00  0.00    +0.000 A 
ATOM     19  C   UNL     1       3.925  -6.807  -1.621  0.00  0.00    +0.001 A 
ATOM     20  C   UNL     1       3.265  -5.693  -2.103  0.00  0.00    +0.020 A 
ATOM     21  C   UNL     1       3.846  -4.442  -1.992  0.00  0.00    +0.043 A 
ATOM     22 CL   UNL     1       3.014  -3.041  -2.591  0.00  0.00    -0.083 Cl
ENDBRANCH   1  16
BRANCH   1  23
ATOM     23  N   UNL     1       7.191  -3.096  -1.223  0.00  0.00    +0.386 N 
ATOM     24  C   UNL     1       7.804  -1.779  -1.014  0.00  0.00    -0.078 C 
ATOM     25  C   UNL     1       9.319  -1.936  -0.859  0.00  0.00    -0.019 C 
ATOM     26  C   UNL     1       9.892  -2.572  -2.129  0.00  0.00    -0.004 C 
ATOM     27  C   UNL     1       9.192  -3.911  -2.378  0.00  0.00    -0.019 C 
ATOM     28  C   UNL     1       7.683  -3.681  -2.476  0.00  0.00    -0.078 C 
ATOM     29  H   UNL     1       7.430  -3.703  -0.453  0.00  0.00    -0.081 HD
ENDBRANCH   1  23
TORSDOF 4
