REMARK  Name = ZINC35969904
REMARK  10 active torsions:
REMARK  status: ('A' for Active; 'I' for Inactive)
REMARK    1  A    between atoms: C_1  and  C_2
REMARK    2  A    between atoms: C_6  and  C_8
REMARK    3  A    between atoms: C_10  and  C_32
REMARK    4  A    between atoms: C_11  and  C_31
REMARK    5  A    between atoms: C_15  and  C_18
REMARK    6  A    between atoms: C_19  and  N_21
REMARK    7  A    between atoms: C_32  and  O_34
REMARK    8  A    between atoms: O_34  and  C_35
REMARK    9  A    between atoms: C_35  and  C_36
REMARK   10  A    between atoms: C_35  and  C_37
REMARK                            x       y       z     vdW  Elec       q    Type
REMARK                         _______ _______ _______ _____ _____    ______ ____
ROOT
ATOM      1  C   UNL     1       1.509  -1.864   2.303  0.00  0.00    +0.150 C 
ATOM      2  C   UNL     1       0.232  -1.853   3.114  0.00  0.00    +0.082 C 
ATOM      3  C   UNL     1      -0.212  -3.054   3.632  0.00  0.00    +0.053 C 
ATOM      4  N   UNL     1       0.467  -4.169   3.418  0.00  0.00    -0.230 NA
ATOM      5  C   UNL     1       1.583  -4.247   2.722  0.00  0.00    +0.166 C 
ATOM      6  N   UNL     1       2.187  -3.176   2.127  0.00  0.00    -0.267 N 
ATOM      7  C   UNL     1       3.354  -3.421   1.431  0.00  0.00    +0.048 C 
ATOM      8  C   UNL     1       3.805  -4.695   1.393  0.00  0.00    +0.072 C 
ATOM      9  S   UNL     1       2.571  -5.551   2.348  0.00  0.00    -0.060 S 
ATOM     10  C   UNL     1      -1.479  -3.095   4.447  0.00  0.00    +0.066 C 
ENDROOT
BRANCH   1  16
ATOM     11  C   UNL     1       1.519   1.935  -0.955  0.00  0.00    +0.044 C 
ATOM     12  C   UNL     1       1.198   0.501  -0.624  0.00  0.00    -0.050 A 
ATOM     13  C   UNL     1       0.613  -0.314  -1.576  0.00  0.00    +0.003 A 
ATOM     14  C   UNL     1       0.319  -1.630  -1.273  0.00  0.00    +0.001 A 
ATOM     15  C   UNL     1       0.609  -2.132  -0.017  0.00  0.00    +0.006 A 
ATOM     16  C   UNL     1       1.193  -1.317   0.934  0.00  0.00    -0.022 A 
ATOM     17  C   UNL     1       1.492  -0.002   0.629  0.00  0.00    +0.009 A 
ENDBRANCH   1  16
BRANCH   7  18
ATOM     18  C   UNL     1       4.080  -2.336   0.756  0.00  0.00    +0.091 C 
ATOM     19  C   UNL     1       5.117  -2.623  -0.054  0.00  0.00    +0.242 C 
ATOM     20  O   UNL     1       5.445  -3.913  -0.306  0.00  0.00    -0.271 OA
BRANCH  19  21
ATOM     21  N   UNL     1       5.849  -1.598  -0.631  0.00  0.00    -0.293 N 
ATOM     22  C   UNL     1       7.292  -1.738  -0.888  0.00  0.00    +0.113 C 
ATOM     23  C   UNL     1       7.507  -1.682  -2.400  0.00  0.00    +0.054 C 
ATOM     24  C   UNL     1       6.756  -0.526  -3.006  0.00  0.00    -0.041 A 
ATOM     25  C   UNL     1       7.166  -0.075  -4.255  0.00  0.00    +0.004 A 
ATOM     26  C   UNL     1       6.516   0.974  -4.870  0.00  0.00    +0.000 A 
ATOM     27  C   UNL     1       5.446   1.583  -4.242  0.00  0.00    +0.000 A 
ATOM     28  C   UNL     1       5.039   1.140  -3.001  0.00  0.00    +0.005 A 
ATOM     29  C   UNL     1       5.696   0.088  -2.377  0.00  0.00    -0.027 A 
ATOM     30  C   UNL     1       5.216  -0.332  -1.015  0.00  0.00    +0.143 C 
ENDBRANCH  19  21
ENDBRANCH   7  18
BRANCH   2  31
ATOM     31  C   UNL     1      -0.475  -0.664   3.333  0.00  0.00    +0.339 C 
ATOM     32  O   UNL     1      -1.562  -0.695   3.884  0.00  0.00    -0.245 OA
BRANCH  31  33
ATOM     33  O   UNL     1       0.047   0.516   2.934  0.00  0.00    -0.459 OA
BRANCH  33  34
ATOM     34  C   UNL     1      -0.730   1.688   3.189  0.00  0.00    +0.171 C 
ATOM     35  C   UNL     1      -0.361   2.255   4.562  0.00  0.00    +0.052 C 
ATOM     36  C   UNL     1      -0.442   2.736   2.111  0.00  0.00    +0.052 C 
ENDBRANCH  33  34
ENDBRANCH  31  33
ENDBRANCH   2  31
TORSDOF 6
