REMARK  Name = ZINC39336689
REMARK  5 active torsions:
REMARK  status: ('A' for Active; 'I' for Inactive)
REMARK    1  A    between atoms: C_4  and  C_7
REMARK    2  A    between atoms: C_9  and  C_19
REMARK    3  A    between atoms: N_11  and  C_13
REMARK    4  A    between atoms: N_20  and  N_21
REMARK    5  A    between atoms: C_22  and  C_28
REMARK                            x       y       z     vdW  Elec       q    Type
REMARK                         _______ _______ _______ _____ _____    ______ ____
ROOT
ATOM      1  C   UNL     1       3.280  -0.718   0.085  0.00  0.00    +0.136 C 
ATOM      2  C   UNL     1       3.834  -1.225   1.400  0.00  0.00    +0.010 C 
ATOM      3  C   UNL     1       4.085  -2.534   1.227  0.00  0.00    +0.100 C 
ATOM      4  N   UNL     1       3.761  -2.941  -0.041  0.00  0.00    -0.242 N 
ATOM      5  N   UNL     1       3.272  -1.907  -0.790  0.00  0.00    -0.224 NA
ATOM      6  H   UNL     1       2.340  -2.107  -1.119  0.00  0.00    +0.146 HD
ENDROOT
BRANCH   1  10
ATOM      7  C   UNL     1      -0.686   0.778   0.609  0.00  0.00    +0.000 A 
ATOM      8  C   UNL     1       0.377   1.657   0.515  0.00  0.00    +0.000 A 
ATOM      9  C   UNL     1       1.661   1.173   0.345  0.00  0.00    +0.005 A 
ATOM     10  C   UNL     1       1.881  -0.190   0.271  0.00  0.00    -0.025 A 
ATOM     11  C   UNL     1       0.818  -1.069   0.366  0.00  0.00    +0.005 A 
ATOM     12  C   UNL     1      -0.466  -0.584   0.534  0.00  0.00    +0.000 A 
ENDBRANCH   1  10
BRANCH   4  13
ATOM     13  C   UNL     1       3.914  -4.247  -0.511  0.00  0.00    +0.049 A 
ATOM     14  C   UNL     1       3.563  -4.563  -1.817  0.00  0.00    +0.025 A 
ATOM     15  C   UNL     1       3.715  -5.856  -2.278  0.00  0.00    +0.002 A 
ATOM     16  C   UNL     1       4.217  -6.836  -1.441  0.00  0.00    +0.000 A 
ATOM     17  C   UNL     1       4.567  -6.525  -0.140  0.00  0.00    +0.002 A 
ATOM     18  C   UNL     1       4.423  -5.233   0.326  0.00  0.00    +0.025 A 
ENDBRANCH   4  13
BRANCH   2  19
ATOM     19  C   UNL     1       4.047  -0.468   2.580  0.00  0.00    +0.137 C 
ATOM     20  N   UNL     1       4.534  -1.043   3.644  0.00  0.00    -0.184 NA
BRANCH  20  21
ATOM     21  N   UNL     1       4.838  -0.277   4.777  0.00  0.00    -0.173 N 
ATOM     22  C   UNL     1       5.286  -0.757   6.098  0.00  0.00    +0.264 C 
ATOM     23  N   UNL     1       5.449   0.476   6.883  0.00  0.00    -0.189 NA
ATOM     24  N   UNL     1       5.158   1.433   6.160  0.00  0.00    -0.219 N 
ATOM     25  C   UNL     1       4.793   1.068   4.902  0.00  0.00    +0.174 C 
ATOM     26  S   UNL     1       4.340   2.154   3.660  0.00  0.00    -0.015 S 
ATOM     27  H   UNL     1       5.189   2.355   6.460  0.00  0.00    +0.176 HD
BRANCH  22  28
ATOM     28  C   UNL     1       6.597  -1.489   5.978  0.00  0.00    +0.001 A 
ATOM     29  C   UNL     1       6.926  -2.170   4.816  0.00  0.00    +0.025 A 
ATOM     30  C   UNL     1       8.138  -2.830   4.742  0.00  0.00    +0.083 A 
ATOM     31  N   UNL     1       8.976  -2.818   5.761  0.00  0.00    -0.367 N 
ATOM     32  C   UNL     1       8.696  -2.182   6.881  0.00  0.00    +0.083 A 
ATOM     33  C   UNL     1       7.506  -1.494   7.025  0.00  0.00    +0.025 A 
ATOM     34  H   UNL     1       9.819  -3.291   5.684  0.00  0.00    +0.165 HD
ENDBRANCH  22  28
ENDBRANCH  20  21
ENDBRANCH   2  19
TORSDOF 5
