REMARK  Name = ZINC39126005
REMARK  2 active torsions:
REMARK  status: ('A' for Active; 'I' for Inactive)
REMARK    1  A    between atoms: C_4  and  C_8
REMARK    2  A    between atoms: C_8  and  C_9
REMARK                            x       y       z     vdW  Elec       q    Type
REMARK                         _______ _______ _______ _____ _____    ______ ____
ROOT
ATOM      1  C   UNL     1       0.175   1.652  -0.692  0.00  0.00    +0.095 C 
ATOM      2  C   UNL     1       1.649   1.960  -0.366  0.00  0.00    +0.119 C 
ATOM      3  N   UNL     1       2.102   0.877   0.518  0.00  0.00    -0.254 N 
ATOM      4  C   UNL     1       1.170  -0.250   0.398  0.00  0.00    +0.156 C 
ATOM      5  C   UNL     1       0.089   0.139  -0.587  0.00  0.00    +0.156 C 
ATOM      6  O   UNL     1      -0.677  -0.595  -1.164  0.00  0.00    -0.295 OA
ATOM      7  C   UNL     1       3.193   0.914   1.309  0.00  0.00    +0.447 C 
ATOM      8  O   UNL     1       3.945   1.878   1.270  0.00  0.00    -0.222 OA
ATOM      9  O   UNL     1       3.432  -0.017   2.066  0.00  0.00    -0.222 OA
ENDROOT
BRANCH   4  10
ATOM     10  C   UNL     1       1.916  -1.484  -0.113  0.00  0.00    +0.155 C 
BRANCH  10  11
ATOM     11  C   UNL     1       0.983  -2.668  -0.117  0.00  0.00    +0.358 C 
ATOM     12  O   UNL     1      -0.132  -2.568   0.367  0.00  0.00    -0.246 OA
ATOM     13  O   UNL     1       1.343  -3.727  -0.604  0.00  0.00    -0.246 OA
ENDBRANCH  10  11
ENDBRANCH   4  10
TORSDOF 2
