REMARK  Name = ZINC09331907
REMARK  4 active torsions:
REMARK  status: ('A' for Active; 'I' for Inactive)
REMARK    1  A    between atoms: C_1  and  C_2
REMARK    2  A    between atoms: C_12  and  C_29
REMARK    3  A    between atoms: C_29  and  C_31
REMARK    4  A    between atoms: C_35  and  N_37
REMARK                            x       y       z     vdW  Elec       q    Type
REMARK                         _______ _______ _______ _____ _____    ______ ____
ROOT
ATOM      1  C   UNL     1       4.269  -3.744   4.295  0.00  0.00    +0.045 C 
ATOM      2  C   UNL     1       3.664  -2.393   4.012  0.00  0.00    -0.029 A 
ATOM      3  C   UNL     1       4.118  -1.280   4.689  0.00  0.00    +0.005 A 
ATOM      4  C   UNL     1       3.570  -0.036   4.437  0.00  0.00    +0.001 A 
ATOM      5  C   UNL     1       2.560   0.093   3.499  0.00  0.00    +0.004 A 
ATOM      6  C   UNL     1       2.103  -1.014   2.821  0.00  0.00    -0.027 A 
ATOM      7  C   UNL     1       2.647  -2.272   3.068  0.00  0.00    +0.039 A 
ATOM      8  N   UNL     1       2.025  -3.232   2.267  0.00  0.00    -0.286 N 
ATOM      9  C   UNL     1       1.073  -2.697   1.478  0.00  0.00    +0.212 C 
ATOM     10  O   UNL     1       0.371  -3.289   0.686  0.00  0.00    -0.277 OA
ATOM     11  C   UNL     1       1.050  -1.222   1.770  0.00  0.00    +0.052 C 
ATOM     12  C   UNL     1      -0.336  -0.778   2.280  0.00  0.00    +0.080 C 
ATOM     13  C   UNL     1      -1.077  -0.537   0.949  0.00  0.00    +0.071 C 
ATOM     14  C   UNL     1      -2.208   0.434   1.119  0.00  0.00    -0.012 A 
ATOM     15  C   UNL     1      -2.283   1.739   1.553  0.00  0.00    +0.006 A 
ATOM     16  C   UNL     1      -3.506   2.384   1.597  0.00  0.00    +0.000 A 
ATOM     17  C   UNL     1      -4.652   1.716   1.205  0.00  0.00    +0.002 A 
ATOM     18  C   UNL     1      -4.581   0.408   0.771  0.00  0.00    +0.023 A 
ATOM     19  C   UNL     1      -3.354  -0.249   0.723  0.00  0.00    +0.038 A 
ATOM     20  N   UNL     1      -3.030  -1.550   0.330  0.00  0.00    -0.285 N 
ATOM     21  C   UNL     1      -1.709  -1.798   0.434  0.00  0.00    +0.227 C 
ATOM     22  O   UNL     1      -1.142  -2.836   0.165  0.00  0.00    -0.275 OA
ATOM     23  C   UNL     1       0.002  -0.004   0.002  0.00  0.00    -0.046 C 
ATOM     24  C   UNL     1       2.071   0.798   0.919  0.00  0.00    -0.076 C 
ATOM     25  C   UNL     1       1.491   1.902  -0.002  0.00  0.00    -0.020 C 
ATOM     26  C   UNL     1      -0.019   1.538   0.011  0.00  0.00    -0.016 C 
ATOM     27  H   UNL     1       2.252  -4.175   2.278  0.00  0.00    +0.155 HD
ATOM     28  H   UNL     1      -3.680  -2.199   0.018  0.00  0.00    +0.155 HD
ATOM     29  N   UNL     1       1.296  -0.415   0.568  0.00  0.00    +0.395 N 
ATOM     30  H   UNL     1       1.817  -0.971  -0.120  0.00  0.00    -0.079 HD
ENDROOT
BRANCH  12  31
ATOM     31  C   UNL     1      -0.997  -1.870   3.080  0.00  0.00    +0.167 C 
ATOM     32  O   UNL     1      -1.580  -2.769   2.512  0.00  0.00    -0.292 OA
BRANCH  31  33
ATOM     33  C   UNL     1      -0.936  -1.846   4.550  0.00  0.00    +0.020 A 
ATOM     34  C   UNL     1      -0.265  -0.811   5.209  0.00  0.00    +0.011 A 
ATOM     35  C   UNL     1      -0.212  -0.795   6.586  0.00  0.00    +0.003 A 
ATOM     36  C   UNL     1      -0.821  -1.801   7.317  0.00  0.00    +0.033 A 
ATOM     37  C   UNL     1      -1.487  -2.828   6.673  0.00  0.00    +0.127 A 
ATOM     38  C   UNL     1      -1.553  -2.855   5.296  0.00  0.00    +0.044 A 
BRANCH  37  39
ATOM     39  N   UNL     1      -2.135  -3.898   7.464  0.00  0.00    +0.056 N 
ATOM     40  O   UNL     1      -2.082  -3.873   8.681  0.00  0.00    -0.126 OA
ATOM     41  O   UNL     1      -2.723  -4.803   6.899  0.00  0.00    -0.126 OA
ENDBRANCH  37  39
ENDBRANCH  31  33
ENDBRANCH  12  31
TORSDOF 3
