REMARK  Name = ZINC08768176
REMARK  3 active torsions:
REMARK  status: ('A' for Active; 'I' for Inactive)
REMARK    1  A    between atoms: C_4  and  N_7
REMARK    2  A    between atoms: N_24  and  C_36
REMARK    3  A    between atoms: N_27  and  C_30
REMARK                            x       y       z     vdW  Elec       q    Type
REMARK                         _______ _______ _______ _____ _____    ______ ____
ROOT
ATOM      1  N   UNL     1       2.449   1.854  -3.482  0.00  0.00    -0.327 N 
ATOM      2  C   UNL     1       3.690   1.269  -2.955  0.00  0.00    +0.124 C 
ATOM      3  C   UNL     1       4.351   2.257  -1.990  0.00  0.00    +0.124 C 
ATOM      4  N   UNL     1       3.412   2.575  -0.907  0.00  0.00    -0.322 N 
ATOM      5  C   UNL     1       4.008   3.347   0.086  0.00  0.00    +0.033 A 
ATOM      6  C   UNL     1       5.362   3.134   0.353  0.00  0.00    +0.023 A 
ATOM      7  C   UNL     1       6.001   3.857   1.336  0.00  0.00    +0.002 A 
ATOM      8  C   UNL     1       5.301   4.802   2.064  0.00  0.00    +0.000 A 
ATOM      9  C   UNL     1       3.963   5.019   1.803  0.00  0.00    +0.005 A 
ATOM     10  C   UNL     1       3.313   4.298   0.814  0.00  0.00    -0.025 A 
ATOM     11  C   UNL     1       1.854   4.585   0.568  0.00  0.00    +0.064 C 
ATOM     12  C   UNL     1       1.235   3.456  -0.261  0.00  0.00    +0.148 C 
ATOM     13  C   UNL     1       2.178   3.162  -1.433  0.00  0.00    +0.115 C 
ATOM     14  C   UNL     1       1.513   2.174  -2.394  0.00  0.00    +0.129 C 
ATOM     15  C   UNL     1       1.093   2.226   0.589  0.00  0.00    +0.245 C 
ATOM     16  O   UNL     1       2.083   1.741   1.093  0.00  0.00    -0.274 OA
ATOM     17  N   UNL     1      -0.097   1.648   0.806  0.00  0.00    -0.193 N 
ATOM     18  C   UNL     1      -1.229   2.134   0.273  0.00  0.00    +0.326 C 
ATOM     19  O   UNL     1      -2.280   1.569   0.500  0.00  0.00    -0.251 OA
ATOM     20  N   UNL     1      -1.230   3.231  -0.499  0.00  0.00    -0.193 N 
ATOM     21  C   UNL     1      -0.101   3.894  -0.790  0.00  0.00    +0.245 C 
ATOM     22  O   UNL     1      -0.161   4.875  -1.499  0.00  0.00    -0.274 OA
ENDROOT
BRANCH   1  26
ATOM     23  C   UNL     1       0.678  -0.672  -6.278  0.00  0.00    +0.000 A 
ATOM     24  C   UNL     1       0.952  -1.137  -5.005  0.00  0.00    +0.002 A 
ATOM     25  C   UNL     1       1.539  -0.302  -4.075  0.00  0.00    +0.023 A 
ATOM     26  C   UNL     1       1.855   1.006  -4.420  0.00  0.00    +0.030 A 
ATOM     27  C   UNL     1       1.574   1.471  -5.698  0.00  0.00    +0.023 A 
ATOM     28  C   UNL     1       0.991   0.629  -6.625  0.00  0.00    +0.002 A 
ENDBRANCH   1  26
BRANCH  20  29
ATOM     29  C   UNL     1      -2.445   3.694  -1.023  0.00  0.00    +0.045 A 
ATOM     30  C   UNL     1      -3.248   4.541  -0.272  0.00  0.00    +0.024 A 
ATOM     31  C   UNL     1      -4.442   5.000  -0.793  0.00  0.00    +0.002 A 
ATOM     32  C   UNL     1      -4.844   4.606  -2.056  0.00  0.00    +0.000 A 
ATOM     33  C   UNL     1      -4.048   3.758  -2.804  0.00  0.00    +0.002 A 
ATOM     34  C   UNL     1      -2.850   3.300  -2.291  0.00  0.00    +0.024 A 
ENDBRANCH  20  29
BRANCH  17  35
ATOM     35  C   UNL     1      -0.161   0.500   1.608  0.00  0.00    +0.045 A 
ATOM     36  C   UNL     1      -0.053  -0.758   1.031  0.00  0.00    +0.024 A 
ATOM     37  C   UNL     1      -0.111  -1.887   1.825  0.00  0.00    +0.002 A 
ATOM     38  C   UNL     1      -0.287  -1.765   3.191  0.00  0.00    +0.000 A 
ATOM     39  C   UNL     1      -0.399  -0.514   3.767  0.00  0.00    +0.002 A 
ATOM     40  C   UNL     1      -0.337   0.619   2.980  0.00  0.00    +0.024 A 
ENDBRANCH  17  35
TORSDOF 3
