REMARK  Name = ZINC44496550
REMARK  5 active torsions:
REMARK  status: ('A' for Active; 'I' for Inactive)
REMARK    1  A    between atoms: C_1  and  C_2
REMARK    2  A    between atoms: C_2  and  N_3
REMARK    3  A    between atoms: C_5  and  C_8
REMARK    4  A    between atoms: C_8  and  C_10
REMARK    5  A    between atoms: C_8  and  N_20
REMARK                            x       y       z     vdW  Elec       q    Type
REMARK                         _______ _______ _______ _____ _____    ______ ____
ROOT
ATOM      1  C   UNL     1       3.198  -2.374  -3.046  0.00  0.00    +0.026 C 
ENDROOT
BRANCH   1   2
ATOM      2  C   UNL     1       2.638  -3.691  -3.519  0.00  0.00    +0.096 A 
ATOM      3  C   UNL     1       2.656  -4.830  -2.814  0.00  0.00    +0.051 A 
ATOM      4  C   UNL     1       2.009  -5.843  -3.657  0.00  0.00    +0.021 A 
ATOM      5  C   UNL     1       1.721  -7.199  -3.503  0.00  0.00    +0.027 A 
ATOM      6  C   UNL     1       1.085  -7.879  -4.519  0.00  0.00    +0.019 A 
ATOM      7  C   UNL     1       0.733  -7.219  -5.689  0.00  0.00    +0.019 A 
ATOM      8  C   UNL     1       1.012  -5.880  -5.852  0.00  0.00    +0.048 A 
ATOM      9  C   UNL     1       1.653  -5.176  -4.840  0.00  0.00    +0.135 A 
ATOM     10  O   UNL     1       2.044  -3.892  -4.708  0.00  0.00    -0.461 OA
ATOM     11 BR   UNL     1       0.691  -9.717  -4.319  0.00  0.00    -0.050 Br
ENDBRANCH   1   2
BRANCH   1  14
ATOM     12  N   UNL     1       0.688  -0.476  -1.203  0.00  0.00    -0.271 N 
ATOM     13  C   UNL     1       1.740  -1.321  -1.239  0.00  0.00    +0.110 A 
ATOM     14  C   UNL     1       2.076  -1.506  -2.536  0.00  0.00    -0.017 A 
ATOM     15  C   UNL     1       1.200  -0.749  -3.321  0.00  0.00    +0.136 A 
ATOM     16  N   UNL     1       0.363  -0.136  -2.523  0.00  0.00    -0.179 NA
BRANCH  12  18
ATOM     17  C   UNL     1      -0.019   1.526   0.010  0.00  0.00    +0.029 C 
ATOM     18  C   UNL     1       0.002  -0.004   0.002  0.00  0.00    +0.140 C 
ENDBRANCH  12  18
ENDBRANCH   1  14
BRANCH   1  19
ATOM     19  N   UNL     1       3.871  -1.699  -4.163  0.00  0.00    +0.387 N 
ATOM     20  H   UNL     1       3.208  -1.535  -4.906  0.00  0.00    -0.089 HD
ATOM     21  H   UNL     1       4.246  -0.817  -3.846  0.00  0.00    -0.089 HD
ATOM     22  H   UNL     1       4.622  -2.280  -4.504  0.00  0.00    -0.089 HD
ENDBRANCH   1  19
TORSDOF 4
