REMARK  Name = ZINC66825071
REMARK  7 active torsions:
REMARK  status: ('A' for Active; 'I' for Inactive)
REMARK    1  A    between atoms: C_1  and  C_2
REMARK    2  A    between atoms: C_7  and  C_8
REMARK    3  A    between atoms: C_7  and  C_9
REMARK    4  A    between atoms: N_12  and  N_13
REMARK    5  A    between atoms: C_14  and  C_16
REMARK    6  A    between atoms: C_16  and  N_17
REMARK    7  A    between atoms: C_22  and  C_24
REMARK                            x       y       z     vdW  Elec       q    Type
REMARK                         _______ _______ _______ _____ _____    ______ ____
ROOT
ATOM      1  N   UNL     1       1.686  -0.866  -3.288  0.00  0.00    -0.205 N 
ATOM      2  C   UNL     1       1.982  -0.303  -4.476  0.00  0.00    +0.254 C 
ATOM      3  O   UNL     1       1.664   0.846  -4.700  0.00  0.00    -0.272 OA
ATOM      4  H   UNL     1       1.941  -1.784  -3.109  0.00  0.00    +0.177 HD
ENDROOT
BRANCH   1  15
ATOM      5  C   UNL     1      -0.019   1.526   0.010  0.00  0.00    +0.018 C 
ATOM      6  C   UNL     1       0.002  -0.004   0.002  0.00  0.00    +0.013 C 
ATOM      7  C   UNL     1      -1.390  -0.703   0.064  0.00  0.00    +0.013 C 
ATOM      8  C   UNL     1      -1.085  -2.137   0.556  0.00  0.00    +0.005 C 
ATOM      9  C   UNL     1       0.465  -2.165   0.735  0.00  0.00    +0.001 C 
ATOM     10  C   UNL     1       0.727  -0.692   1.212  0.00  0.00    -0.021 C 
ATOM     11  C   UNL     1       0.040  -0.388   2.544  0.00  0.00    +0.012 C 
ATOM     12  C   UNL     1       2.220  -0.359   1.253  0.00  0.00    +0.012 C 
ATOM     13  C   UNL     1       1.022  -2.111  -0.721  0.00  0.00    +0.057 C 
ATOM     14  C   UNL     1       0.731  -0.657  -1.181  0.00  0.00    +0.044 C 
ATOM     15  N   UNL     1       1.011  -0.123  -2.310  0.00  0.00    -0.189 NA
ENDBRANCH   1  15
BRANCH   2  16
ATOM     16  C   UNL     1       2.708  -1.102  -5.528  0.00  0.00    +0.244 C 
BRANCH  16  17
ATOM     17  N   UNL     1       2.909  -0.273  -6.719  0.00  0.00    -0.220 N 
ATOM     18  C   UNL     1       4.031   0.463  -6.823  0.00  0.00    +0.268 A 
ATOM     19  O   UNL     1       4.868   0.436  -5.935  0.00  0.00    -0.266 OA
ATOM     20  C   UNL     1       4.234   1.265  -7.968  0.00  0.00    +0.074 A 
ATOM     21  C   UNL     1       3.268   1.259  -8.931  0.00  0.00    +0.035 A 
ATOM     22  C   UNL     1       2.125   0.452  -8.727  0.00  0.00    +0.094 A 
ATOM     23  N   UNL     1       2.012  -0.272  -7.638  0.00  0.00    -0.168 NA
BRANCH  22  24
ATOM     24  C   UNL     1       1.052   0.417  -9.751  0.00  0.00    +0.037 A 
ATOM     25  C   UNL     1       1.172   1.174 -10.915  0.00  0.00    +0.013 A 
ATOM     26  C   UNL     1       0.172   1.139 -11.865  0.00  0.00    +0.001 A 
ATOM     27  C   UNL     1      -0.950   0.354 -11.664  0.00  0.00    +0.003 A 
ATOM     28  C   UNL     1      -1.076  -0.400 -10.512  0.00  0.00    +0.039 A 
ATOM     29  C   UNL     1      -0.078  -0.377  -9.556  0.00  0.00    +0.133 A 
ATOM     30  F   UNL     1      -0.199  -1.118  -8.432  0.00  0.00    -0.205 F 
ENDBRANCH  22  24
ENDBRANCH  16  17
ENDBRANCH   2  16
TORSDOF 4
