REMARK  Name = ZINC02291051
REMARK  5 active torsions:
REMARK  status: ('A' for Active; 'I' for Inactive)
REMARK    1  A    between atoms: C_9  and  C_23
REMARK    2  A    between atoms: C_10  and  N_22
REMARK    3  A    between atoms: N_11  and  C_14
REMARK    4  A    between atoms: N_25  and  C_26
REMARK    5  A    between atoms: C_26  and  C_27
REMARK                            x       y       z     vdW  Elec       q    Type
REMARK                         _______ _______ _______ _____ _____    ______ ____
ROOT
ATOM      1  C   UNL     1       5.607   5.808   4.661  0.00  0.00    +0.002 A 
ATOM      2  C   UNL     1       4.378   5.283   5.057  0.00  0.00    +0.002 A 
ATOM      3  C   UNL     1       3.684   4.440   4.246  0.00  0.00    +0.030 A 
ATOM      4  C   UNL     1       4.208   4.087   2.988  0.00  0.00    +0.092 A 
ATOM      5  C   UNL     1       5.457   4.622   2.586  0.00  0.00    +0.090 A 
ATOM      6  C   UNL     1       6.146   5.492   3.452  0.00  0.00    +0.030 A 
ATOM      7  N   UNL     1       5.977   4.304   1.394  0.00  0.00    -0.241 NA
ATOM      8  C   UNL     1       5.319   3.488   0.595  0.00  0.00    +0.123 A 
ATOM      9  C   UNL     1       5.572   2.931  -0.744  0.00  0.00    +0.104 A 
ATOM     10  C   UNL     1       4.484   2.120  -1.047  0.00  0.00    +0.117 A 
ATOM     11  N   UNL     1       3.587   2.126  -0.021  0.00  0.00    -0.280 N 
ATOM     12  C   UNL     1       4.025   2.938   1.007  0.00  0.00    +0.166 A 
ATOM     13  N   UNL     1       3.531   3.257   2.184  0.00  0.00    -0.225 NA
ENDROOT
BRANCH  11  14
ATOM     14  C   UNL     1       2.381   1.410  -0.013  0.00  0.00    +0.051 A 
ATOM     15  C   UNL     1       2.397   0.022  -0.021  0.00  0.00    +0.028 A 
ATOM     16  C   UNL     1       1.208  -0.682  -0.014  0.00  0.00    +0.023 A 
ATOM     17  C   UNL     1       0.002  -0.004   0.002  0.00  0.00    +0.059 A 
ATOM     18  C   UNL     1      -0.017   1.381   0.010  0.00  0.00    +0.061 A 
ATOM     19  C   UNL     1       1.171   2.089   0.002  0.00  0.00    +0.047 A 
ATOM     20 CL   UNL     1      -1.532   2.228   0.021  0.00  0.00    -0.082 Cl
ATOM     21 CL   UNL     1      -1.490  -0.891   0.012  0.00  0.00    -0.082 Cl
ENDBRANCH  11  14
BRANCH   9  22
ATOM     22  C   UNL     1       6.738   3.181  -1.589  0.00  0.00    +0.250 C 
ATOM     23  O   UNL     1       6.732   4.109  -2.376  0.00  0.00    -0.270 OA
ATOM     24  N   UNL     1       7.821   2.384  -1.496  0.00  0.00    -0.304 N 
ATOM     25  H   UNL     1       7.827   1.644  -0.868  0.00  0.00    +0.149 HD
BRANCH  24  26
ATOM     26  C   UNL     1       8.990   2.634  -2.342  0.00  0.00    +0.179 C 
BRANCH  26  27
ATOM     27  C   UNL     1      10.055   1.609  -2.045  0.00  0.00    +0.122 A 
ATOM     28  C   UNL     1      10.194   0.420  -2.658  0.00  0.00    +0.046 A 
ATOM     29  C   UNL     1      11.314  -0.214  -2.071  0.00  0.00    +0.041 A 
ATOM     30  C   UNL     1      11.791   0.626  -1.135  0.00  0.00    +0.195 A 
ATOM     31  O   UNL     1      11.028   1.731  -1.128  0.00  0.00    -0.466 OA
ENDBRANCH  26  27
ENDBRANCH  24  26
ENDBRANCH   9  22
BRANCH  10  32
ATOM     32  N   UNL     1       4.335   1.415  -2.213  0.00  0.00    -0.343 N 
ATOM     33  H   UNL     1       3.545   0.869  -2.352  0.00  0.00    +0.144 HD
ATOM     34  H   UNL     1       5.020   1.461  -2.899  0.00  0.00    +0.144 HD
ENDBRANCH  10  32
TORSDOF 5
