REMARK  Name = ZINC40323681
REMARK  7 active torsions:
REMARK  status: ('A' for Active; 'I' for Inactive)
REMARK    1  A    between atoms: C_1  and  C_2
REMARK    2  A    between atoms: C_2  and  C_29
REMARK    3  A    between atoms: C_3  and  C_25
REMARK    4  A    between atoms: C_5  and  C_7
REMARK    5  A    between atoms: C_12  and  C_15
REMARK    6  A    between atoms: C_18  and  S_21
REMARK    7  A    between atoms: S_21  and  C_24
REMARK                            x       y       z     vdW  Elec       q    Type
REMARK                         _______ _______ _______ _____ _____    ______ ____
ROOT
ATOM      1  C   UNL     1       1.317   0.160   2.235  0.00  0.00    +0.223 C 
ATOM      2  O   UNL     1       1.247   1.367   2.150  0.00  0.00    -0.275 OA
ATOM      3  N   UNL     1       1.946  -0.407   3.284  0.00  0.00    -0.263 N 
ATOM      4  C   UNL     1       2.512   0.391   4.267  0.00  0.00    +0.185 A 
ATOM      5  N   UNL     1       3.166   0.022   5.353  0.00  0.00    -0.204 NA
ATOM      6  C   UNL     1       3.619   0.974   6.150  0.00  0.00    +0.170 A 
ATOM      7  N   UNL     1       3.388   2.226   5.808  0.00  0.00    -0.187 NA
ATOM      8  S   UNL     1       2.544   2.068   4.368  0.00  0.00    +0.050 S 
ATOM      9  H   UNL     1       2.002  -1.373   3.351  0.00  0.00    +0.157 HD
ENDROOT
BRANCH   6  10
ATOM     10  C   UNL     1       4.362   0.645   7.391  0.00  0.00    +0.020 A 
ATOM     11  C   UNL     1       4.600  -0.685   7.732  0.00  0.00    +0.013 A 
ATOM     12  C   UNL     1       5.292  -0.986   8.887  0.00  0.00    +0.027 A 
ATOM     13  C   UNL     1       5.750   0.030   9.706  0.00  0.00    +0.088 A 
ATOM     14  C   UNL     1       5.517   1.352   9.373  0.00  0.00    +0.027 A 
ATOM     15  C   UNL     1       4.831   1.665   8.217  0.00  0.00    +0.013 A 
BRANCH  13  16
ATOM     16  S   UNL     1       6.633  -0.361  11.180  0.00  0.00    -0.006 S 
ATOM     17  O   UNL     1       6.412   0.748  12.040  0.00  0.00    -0.170 OA
ATOM     18  O   UNL     1       6.180  -1.659  11.540  0.00  0.00    -0.170 OA
ATOM     19  C   UNL     1       8.375  -0.425  10.677  0.00  0.00    +0.200 C 
ENDBRANCH  13  16
ENDBRANCH   6  10
BRANCH   1  23
ATOM     20  C   UNL     1      -0.019   1.526   0.010  0.00  0.00    +0.012 C 
ATOM     21  C   UNL     1       0.002  -0.004   0.002  0.00  0.00    -0.016 C 
ATOM     22  C   UNL     1      -0.825  -0.728   1.066  0.00  0.00    +0.033 C 
ATOM     23  C   UNL     1       0.701  -0.708   1.167  0.00  0.00    +0.089 C 
ATOM     24  C   UNL     1       0.102  -0.655  -1.379  0.00  0.00    +0.012 C 
BRANCH  22  25
ATOM     25  C   UNL     1      -1.599   0.121   2.042  0.00  0.00    +0.010 C 
ATOM     26  C   UNL     1      -2.905   0.013   2.115  0.00  0.00    +0.103 C 
ATOM     27 CL   UNL     1      -3.742  -1.107   1.085  0.00  0.00    -0.071 Cl
ATOM     28 CL   UNL     1      -3.796   0.991   3.239  0.00  0.00    -0.071 Cl
ENDBRANCH  22  25
ENDBRANCH   1  23
TORSDOF 4
