REMARK  Name = ZINC05037548
REMARK  11 active torsions:
REMARK  status: ('A' for Active; 'I' for Inactive)
REMARK    1  A    between atoms: C_1  and  C_2
REMARK    2  A    between atoms: C_2  and  C_4
REMARK    3  A    between atoms: C_2  and  C_10
REMARK    4  A    between atoms: C_4  and  C_5
REMARK    5  A    between atoms: C_5  and  C_6
REMARK    6  A    between atoms: C_6  and  C_7
REMARK    7  A    between atoms: C_7  and  C_8
REMARK    8  A    between atoms: C_7  and  C_9
REMARK    9  A    between atoms: C_16  and  C_36
REMARK   10  A    between atoms: C_24  and  O_35
REMARK   11  A    between atoms: C_27  and  C_34
REMARK                            x       y       z     vdW  Elec       q    Type
REMARK                         _______ _______ _______ _____ _____    ______ ____
ROOT
ATOM      1  C   UNL     1       0.606  -0.503  -1.312  0.00  0.00    -0.002 C 
ATOM      2  C   UNL     1       0.442  -2.036  -1.440  0.00  0.00    +0.004 C 
ATOM      3  C   UNL     1       0.117  -2.321  -2.919  0.00  0.00    +0.004 C 
ATOM      4  C   UNL     1       0.144  -0.947  -3.642  0.00  0.00    -0.001 C 
ATOM      5  C   UNL     1      -0.185   0.045  -2.515  0.00  0.00    -0.026 C 
ATOM      6  C   UNL     1       0.186   1.470  -2.854  0.00  0.00    +0.007 C 
ATOM      7  C   UNL     1       1.655   1.559  -3.255  0.00  0.00    +0.005 C 
ATOM      8  C   UNL     1       1.889   0.685  -4.496  0.00  0.00    +0.001 C 
ATOM      9  C   UNL     1       1.568  -0.775  -4.187  0.00  0.00    -0.001 C 
ATOM     10  C   UNL     1       1.693  -1.678  -5.413  0.00  0.00    +0.038 C 
ATOM     11  C   UNL     1       2.683  -1.138  -6.432  0.00  0.00    +0.150 C 
ATOM     12  C   UNL     1       3.813  -0.384  -5.719  0.00  0.00    +0.127 C 
ATOM     13  C   UNL     1       3.371   0.842  -4.873  0.00  0.00    +0.005 C 
ATOM     14  C   UNL     1       4.183   1.091  -3.615  0.00  0.00    +0.010 C 
ATOM     15  C   UNL     1       5.663   0.798  -3.829  0.00  0.00    +0.003 C 
ATOM     16  C   UNL     1       5.851  -0.711  -4.012  0.00  0.00    +0.034 C 
ATOM     17  C   UNL     1       5.052  -1.173  -5.326  0.00  0.00    +0.154 C 
ATOM     18  O   UNL     1       5.048  -0.277  -6.440  0.00  0.00    -0.362 OA
ATOM     19  C   UNL     1       3.505   2.080  -5.762  0.00  0.00    +0.014 C 
ATOM     20  C   UNL     1      -1.682  -0.020  -2.209  0.00  0.00    +0.012 C 
ENDROOT
BRANCH   1  22
ATOM     21  C   UNL     1       0.174   1.513   0.098  0.00  0.00    +0.008 C 
ATOM     22  C   UNL     1       0.002  -0.004   0.002  0.00  0.00    -0.010 C 
BRANCH  22  23
ATOM     23  C   UNL     1       0.716  -0.674   1.178  0.00  0.00    +0.003 C 
BRANCH  23  24
ATOM     24  C   UNL     1       0.033  -0.271   2.486  0.00  0.00    +0.001 C 
BRANCH  24  25
ATOM     25  C   UNL     1       0.747  -0.940   3.662  0.00  0.00    +0.003 C 
BRANCH  25  26
ATOM     26  C   UNL     1       0.063  -0.538   4.970  0.00  0.00    -0.017 C 
ATOM     27  C   UNL     1       0.697  -1.303   6.133  0.00  0.00    +0.007 C 
ATOM     28  C   UNL     1       0.236   0.966   5.194  0.00  0.00    +0.007 C 
ENDBRANCH  25  26
ENDBRANCH  24  25
ENDBRANCH  23  24
ENDBRANCH  22  23
ENDBRANCH   1  22
BRANCH  11  29
ATOM     29  O   UNL     1       2.009  -0.246  -7.321  0.00  0.00    -0.389 OA
ATOM     30  H   UNL     1       1.285  -0.656  -7.815  0.00  0.00    +0.210 HD
ENDBRANCH  11  29
TORSDOF 6
