REMARK  Name = ZINC35810091
REMARK  13 active torsions:
REMARK  status: ('A' for Active; 'I' for Inactive)
REMARK    1  A    between atoms: C_1  and  C_2
REMARK    2  A    between atoms: C_5  and  C_8
REMARK    3  A    between atoms: C_8  and  N_9
REMARK    4  A    between atoms: C_11  and  C_24
REMARK    5  A    between atoms: C_13  and  C_16
REMARK    6  A    between atoms: C_21  and  O_22
REMARK    7  A    between atoms: O_22  and  C_23
REMARK    8  A    between atoms: C_24  and  N_25
REMARK    9  A    between atoms: N_25  and  C_26
REMARK   10  A    between atoms: C_26  and  C_27
REMARK   11  A    between atoms: C_27  and  C_28
REMARK   12  A    between atoms: C_27  and  C_29
REMARK   13  A    between atoms: C_30  and  C_32
REMARK                            x       y       z     vdW  Elec       q    Type
REMARK                         _______ _______ _______ _____ _____    ______ ____
ROOT
ATOM      1  N   UNL     1       0.463  -6.076  -0.047  0.00  0.00    +0.383 N 
ATOM      2  C   UNL     1       1.074  -7.403  -0.317  0.00  0.00    -0.073 C 
ATOM      3  C   UNL     1       2.529  -7.270   0.181  0.00  0.00    -0.004 C 
ATOM      4  C   UNL     1       2.493  -6.137   1.227  0.00  0.00    +0.009 C 
ATOM      5  C   UNL     1       1.019  -5.680   1.273  0.00  0.00    -0.070 C 
ATOM      6  H   UNL     1       0.732  -5.411  -0.757  0.00  0.00    -0.081 HD
ENDROOT
BRANCH   4   7
ATOM      7  C   UNL     1       2.926  -6.654   2.574  0.00  0.00    -0.004 A 
ATOM      8  C   UNL     1       2.119  -7.535   3.268  0.00  0.00    +0.007 A 
ATOM      9  C   UNL     1       2.514  -8.009   4.505  0.00  0.00    +0.001 A 
ATOM     10  C   UNL     1       3.719  -7.604   5.050  0.00  0.00    +0.004 A 
ATOM     11  C   UNL     1       4.529  -6.724   4.361  0.00  0.00    +0.046 A 
ATOM     12  C   UNL     1       4.137  -6.250   3.117  0.00  0.00    +0.123 A 
BRANCH  12  13
ATOM     13  O   UNL     1       4.935  -5.389   2.433  0.00  0.00    -0.495 OA
ATOM     14  C   UNL     1       6.168  -5.017   3.053  0.00  0.00    +0.277 C 
ENDBRANCH  12  13
ENDBRANCH   4   7
BRANCH   1  15
ATOM     15  C   UNL     1      -1.000  -6.188   0.025  0.00  0.00    -0.043 C 
BRANCH  15  20
ATOM     16  C   UNL     1      -3.293  -0.968   0.964  0.00  0.00    +0.044 C 
ATOM     17  C   UNL     1      -2.695  -2.329   0.719  0.00  0.00    -0.050 A 
ATOM     18  C   UNL     1      -2.491  -2.772  -0.574  0.00  0.00    +0.003 A 
ATOM     19  C   UNL     1      -1.943  -4.021  -0.799  0.00  0.00    +0.002 A 
ATOM     20  C   UNL     1      -1.597  -4.827   0.270  0.00  0.00    -0.064 A 
ATOM     21  C   UNL     1      -1.799  -4.383   1.563  0.00  0.00    +0.002 A 
ATOM     22  C   UNL     1      -2.344  -3.132   1.788  0.00  0.00    +0.003 A 
ENDBRANCH  15  20
ENDBRANCH   1  15
BRANCH   3  23
ATOM     23  C   UNL     1       2.991  -8.578   0.827  0.00  0.00    +0.110 C 
BRANCH  23  24
ATOM     24  N   UNL     1       3.083  -9.622  -0.196  0.00  0.00    -0.297 N 
ATOM     25  C   UNL     1       2.014 -10.397  -0.467  0.00  0.00    +0.247 C 
ATOM     26  O   UNL     1       1.011 -10.308   0.215  0.00  0.00    -0.270 OA
BRANCH  25  27
ATOM     27  C   UNL     1       2.060 -11.354  -1.592  0.00  0.00    +0.037 A 
ATOM     28  C   UNL     1       3.170 -12.185  -1.760  0.00  0.00    +0.013 A 
ATOM     29  C   UNL     1       3.206 -13.076  -2.812  0.00  0.00    +0.001 A 
ATOM     30  C   UNL     1       2.147 -13.148  -3.700  0.00  0.00    +0.000 A 
ATOM     31  C   UNL     1       1.045 -12.328  -3.539  0.00  0.00    +0.001 A 
ATOM     32  C   UNL     1       0.993 -11.436  -2.487  0.00  0.00    +0.013 A 
ENDBRANCH  25  27
BRANCH  24  33
ATOM     33  C   UNL     1       4.338  -9.825  -0.925  0.00  0.00    +0.111 C 
BRANCH  33  34
ATOM     34  C   UNL     1       5.278 -10.696  -0.090  0.00  0.00    +0.000 C 
ATOM     35  C   UNL     1       6.521 -11.040  -0.913  0.00  0.00    +0.009 C 
ATOM     36  C   UNL     1       5.695  -9.934   1.169  0.00  0.00    +0.009 C 
ENDBRANCH  33  34
ENDBRANCH  24  33
ENDBRANCH  23  24
ENDBRANCH   3  23
TORSDOF 9
