REMARK  Name = ZINC12250138
REMARK  13 active torsions:
REMARK  status: ('A' for Active; 'I' for Inactive)
REMARK    1  A    between atoms: C_1  and  C_2
REMARK    2  A    between atoms: C_2  and  C_3
REMARK    3  A    between atoms: C_7  and  C_39
REMARK    4  A    between atoms: C_8  and  N_9
REMARK    5  A    between atoms: C_10  and  C_12
REMARK    6  A    between atoms: C_13  and  C_38
REMARK    7  A    between atoms: C_15  and  S_26
REMARK    8  A    between atoms: C_16  and  C_24
REMARK    9  A    between atoms: C_17  and  C_19
REMARK   10  A    between atoms: S_26  and  C_27
REMARK   11  A    between atoms: C_27  and  C_28
REMARK   12  A    between atoms: N_30  and  C_31
REMARK   13  A    between atoms: C_34  and  C_37
REMARK                            x       y       z     vdW  Elec       q    Type
REMARK                         _______ _______ _______ _____ _____    ______ ____
ROOT
ATOM      1  C   UNL     1      -0.860   1.004   0.900  0.00  0.00    +0.047 C 
ATOM      2  C   UNL     1      -2.091   1.426   0.570  0.00  0.00    +0.015 C 
ATOM      3  N   UNL     1      -2.330   2.023  -0.638  0.00  0.00    -0.312 N 
ATOM      4  C   UNL     1      -1.429   1.884  -1.669  0.00  0.00    +0.080 C 
ATOM      5  C   UNL     1      -0.155   1.476  -1.422  0.00  0.00    +0.072 C 
ATOM      6  C   UNL     1       0.310   1.174  -0.026  0.00  0.00    +0.134 C 
ATOM      7  C   UNL     1      -3.226   1.238   1.543  0.00  0.00    +0.061 C 
ATOM      8  H   UNL     1      -3.245   2.615  -0.787  0.00  0.00    +0.152 HD
ENDROOT
BRANCH   6   9
ATOM      9  C   UNL     1       1.171   2.309   0.466  0.00  0.00    +0.118 A 
ATOM     10  C   UNL     1       2.458   2.212   0.844  0.00  0.00    +0.045 A 
ATOM     11  C   UNL     1       2.871   3.509   1.227  0.00  0.00    +0.041 A 
ATOM     12  C   UNL     1       1.808   4.319   1.069  0.00  0.00    +0.195 A 
ATOM     13  O   UNL     1       0.782   3.586   0.608  0.00  0.00    -0.467 OA
ENDBRANCH   6   9
BRANCH   1  15
ATOM     14  N   UNL     1       0.568  -0.047   2.508  0.00  0.00    -0.281 N 
ATOM     15  C   UNL     1      -0.660   0.383   2.156  0.00  0.00    +0.247 C 
ATOM     16  O   UNL     1      -1.598   0.237   2.920  0.00  0.00    -0.270 OA
ATOM     17  H   UNL     1       1.431   0.166   1.860  0.00  0.00    +0.155 HD
BRANCH  14  23
ATOM     18  C   UNL     1       1.326  -2.025   3.666  0.00  0.00    -0.026 A 
ATOM     19  C   UNL     1       1.499  -2.732   4.840  0.00  0.00    +0.005 A 
ATOM     20  C   UNL     1       1.093  -2.185   6.044  0.00  0.00    +0.001 A 
ATOM     21  C   UNL     1       0.514  -0.929   6.076  0.00  0.00    +0.005 A 
ATOM     22  C   UNL     1       0.344  -0.215   4.906  0.00  0.00    -0.029 A 
ATOM     23  C   UNL     1       0.745  -0.765   3.695  0.00  0.00    +0.040 A 
ATOM     24  C   UNL     1      -0.282   1.155   4.943  0.00  0.00    +0.045 C 
BRANCH  18  26
ATOM     25  C   UNL     1       3.176  -2.127   2.018  0.00  0.00    +0.009 C 
ATOM     26  C   UNL     1       1.768  -2.622   2.355  0.00  0.00    +0.033 C 
ENDBRANCH  18  26
ENDBRANCH  14  23
ENDBRANCH   1  15
BRANCH   5  27
ATOM     27  C   UNL     1       0.761   1.332  -2.514  0.00  0.00    +0.098 C 
ATOM     28  N   UNL     1       1.487   1.217  -3.380  0.00  0.00    -0.191 NA
ENDBRANCH   5  27
BRANCH   4  29
ATOM     29  S   UNL     1      -1.929   2.238  -3.322  0.00  0.00    -0.100 S 
BRANCH  29  30
ATOM     30  C   UNL     1      -3.651   2.713  -3.034  0.00  0.00    +0.171 C 
BRANCH  30  31
ATOM     31  C   UNL     1      -4.300   3.068  -4.347  0.00  0.00    +0.227 C 
ATOM     32  O   UNL     1      -3.661   3.007  -5.376  0.00  0.00    -0.275 OA
ATOM     33  N   UNL     1      -5.591   3.454  -4.378  0.00  0.00    -0.285 N 
ATOM     34  H   UNL     1      -6.193   3.437  -3.457  0.00  0.00    +0.155 HD
BRANCH  33  35
ATOM     35  C   UNL     1      -6.167   3.877  -5.581  0.00  0.00    +0.033 A 
ATOM     36  C   UNL     1      -7.116   4.891  -5.580  0.00  0.00    +0.023 A 
ATOM     37  C   UNL     1      -7.678   5.310  -6.770  0.00  0.00    +0.005 A 
ATOM     38  C   UNL     1      -7.304   4.714  -7.960  0.00  0.00    -0.050 A 
ATOM     39  C   UNL     1      -6.364   3.700  -7.964  0.00  0.00    +0.005 A 
ATOM     40  C   UNL     1      -5.793   3.281  -6.778  0.00  0.00    +0.023 A 
ATOM     41  C   UNL     1      -7.924   5.169  -9.256  0.00  0.00    +0.044 C 
ENDBRANCH  33  35
ENDBRANCH  30  31
ENDBRANCH  29  30
ENDBRANCH   4  29
TORSDOF 9
