REMARK  Name = ZINC36311787
REMARK  4 active torsions:
REMARK  status: ('A' for Active; 'I' for Inactive)
REMARK    1  A    between atoms: C_8  and  C_27
REMARK    2  A    between atoms: C_10  and  C_18
REMARK    3  A    between atoms: C_22  and  N_24
REMARK    4  A    between atoms: C_27  and  C_29
REMARK                            x       y       z     vdW  Elec       q    Type
REMARK                         _______ _______ _______ _____ _____    ______ ____
ROOT
ATOM      1  C   UNL     1       0.009   1.245   0.323  0.00  0.00    +0.000 A 
ATOM      2  C   UNL     1       1.213   1.925   0.318  0.00  0.00    +0.002 A 
ATOM      3  C   UNL     1       2.404   1.234   0.239  0.00  0.00    +0.023 A 
ATOM      4  C   UNL     1       2.403  -0.157   0.162  0.00  0.00    +0.039 A 
ATOM      5  C   UNL     1       1.186  -0.830   0.168  0.00  0.00    +0.004 A 
ATOM      6  C   UNL     1      -0.001  -0.137   0.247  0.00  0.00    +0.008 A 
ATOM      7  C   UNL     1       1.521  -2.296   0.079  0.00  0.00    +0.137 C 
ATOM      8  C   UNL     1       0.908  -2.922  -1.177  0.00  0.00    +0.103 C 
ATOM      9  C   UNL     1       0.338  -4.276  -0.693  0.00  0.00    +0.050 C 
ATOM     10  C   UNL     1       0.051  -4.022   0.794  0.00  0.00    +0.077 C 
ATOM     11  N   UNL     1       1.018  -3.021   1.258  0.00  0.00    -0.271 NA
ATOM     12  C   UNL     1       2.192  -3.636   1.952  0.00  0.00    +0.155 C 
ATOM     13  S   UNL     1       1.368  -5.035   2.829  0.00  0.00    -0.144 S 
ATOM     14  C   UNL     1       0.052  -5.337   1.588  0.00  0.00    +0.090 C 
ATOM     15  C   UNL     1       3.027  -2.341   0.023  0.00  0.00    +0.243 C 
ATOM     16  O   UNL     1       3.717  -3.335  -0.054  0.00  0.00    -0.273 OA
ATOM     17  N   UNL     1       3.458  -1.067   0.075  0.00  0.00    -0.283 N 
ATOM     18  H   UNL     1       4.393  -0.811   0.055  0.00  0.00    +0.155 HD
ENDROOT
BRANCH   9  19
ATOM     19  C   UNL     1       1.357  -5.374  -0.862  0.00  0.00    -0.040 A 
ATOM     20  C   UNL     1       2.177  -5.725   0.195  0.00  0.00    +0.004 A 
ATOM     21  C   UNL     1       3.111  -6.731   0.040  0.00  0.00    +0.002 A 
ATOM     22  C   UNL     1       3.226  -7.387  -1.172  0.00  0.00    +0.033 A 
ATOM     23  C   UNL     1       2.406  -7.037  -2.228  0.00  0.00    +0.126 A 
ATOM     24  C   UNL     1       1.468  -6.033  -2.071  0.00  0.00    +0.036 A 
BRANCH  23  25
ATOM     25  N   UNL     1       2.529  -7.739  -3.525  0.00  0.00    +0.056 N 
ATOM     26  O   UNL     1       3.347  -8.619  -3.661  0.00  0.00    -0.126 OA
ATOM     27  O   UNL     1       1.812  -7.433  -4.449  0.00  0.00    -0.126 OA
ENDBRANCH  23  25
ENDBRANCH   9  19
BRANCH   8  28
ATOM     28  C   UNL     1      -0.194  -2.048  -1.717  0.00  0.00    +0.171 C 
ATOM     29  O   UNL     1      -1.346  -2.260  -1.404  0.00  0.00    -0.292 OA
BRANCH  28  30
ATOM     30  C   UNL     1       0.128  -0.935  -2.626  0.00  0.00    +0.036 A 
ATOM     31  C   UNL     1      -0.887  -0.110  -3.131  0.00  0.00    +0.014 A 
ATOM     32  C   UNL     1      -0.531   0.922  -3.980  0.00  0.00    +0.020 A 
ATOM     33  C   UNL     1       0.803   1.105  -4.301  0.00  0.00    +0.111 A 
ATOM     34  N   UNL     1       1.738   0.313  -3.811  0.00  0.00    -0.263 NA
ATOM     35  C   UNL     1       1.452  -0.679  -2.995  0.00  0.00    +0.122 A 
ENDBRANCH  28  30
ENDBRANCH   8  28
TORSDOF 4
