REMARK  Name = ZINC39467036
REMARK  6 active torsions:
REMARK  status: ('A' for Active; 'I' for Inactive)
REMARK    1  A    between atoms: C_4  and  C_7
REMARK    2  A    between atoms: C_7  and  C_8
REMARK    3  A    between atoms: P_17  and  C_33
REMARK    4  A    between atoms: C_25  and  C_26
REMARK    5  A    between atoms: C_26  and  C_27
REMARK    6  A    between atoms: C_38  and  O_39
REMARK                            x       y       z     vdW  Elec       q    Type
REMARK                         _______ _______ _______ _____ _____    ______ ____
ROOT
ATOM      1  C   UNL     1       4.164  -0.959   1.377  0.00  0.00    -0.043 C 
ATOM      2  C   UNL     1       3.894  -2.119   1.972  0.00  0.00    -0.019 C 
ATOM      3  C   UNL     1       4.345  -2.348   3.389  0.00  0.00    +0.016 C 
ATOM      4  C   UNL     1       3.494  -3.422   4.055  0.00  0.00    -0.003 C 
ATOM      5  C   UNL     1       2.039  -2.958   4.189  0.00  0.00    -0.020 C 
ATOM      6  C   UNL     1       1.269  -4.084   4.890  0.00  0.00    +0.157 C 
ATOM      7  O   UNL     1      -0.119  -3.723   5.002  0.00  0.00    -0.316 OA
ATOM      8  P   UNL     1      -0.470  -2.260   5.623  0.00  0.00    +0.291 P 
ATOM      9  O   UNL     1      -0.395  -2.299   7.101  0.00  0.00    -0.269 OA
ATOM     10  N   UNL     1       0.681  -1.245   5.017  0.00  0.00    -0.288 NA
ATOM     11  N   UNL     1       1.978  -1.711   4.955  0.00  0.00    +0.398 N 
ATOM     12  C   UNL     1       2.752  -0.657   4.282  0.00  0.00    -0.046 C 
ATOM     13  C   UNL     1       4.211  -1.046   4.184  0.00  0.00    +0.005 C 
ATOM     14  C   UNL     1       4.939   0.051   3.442  0.00  0.00    -0.021 C 
ATOM     15  C   UNL     1       4.916   0.073   2.111  0.00  0.00    -0.044 C 
ATOM     16  H   UNL     1       0.453  -0.351   4.717  0.00  0.00    +0.111 HD
ATOM     17  H   UNL     1       2.331  -1.867   5.888  0.00  0.00    -0.055 HD
ENDROOT
BRANCH   8  18
ATOM     18  C   UNL     1      -2.123  -1.732   5.093  0.00  0.00    +0.091 A 
ATOM     19  C   UNL     1      -2.276  -1.011   3.924  0.00  0.00    +0.018 A 
ATOM     20  C   UNL     1      -3.535  -0.608   3.519  0.00  0.00    +0.001 A 
ATOM     21  C   UNL     1      -4.644  -0.925   4.282  0.00  0.00    +0.004 A 
ATOM     22  C   UNL     1      -4.496  -1.645   5.451  0.00  0.00    +0.046 A 
ATOM     23  C   UNL     1      -3.234  -2.056   5.857  0.00  0.00    +0.131 A 
BRANCH  23  24
ATOM     24  O   UNL     1      -3.086  -2.770   7.004  0.00  0.00    -0.506 OA
ATOM     25  H   UNL     1      -2.949  -2.226   7.791  0.00  0.00    +0.292 HD
ENDBRANCH  23  24
ENDBRANCH   8  18
BRANCH   1  26
ATOM     26  C   UNL     1       3.711  -0.707  -0.038  0.00  0.00    +0.070 C 
BRANCH  26  30
ATOM     27  C   UNL     1      -0.017   1.378   0.010  0.00  0.00    +0.000 A 
ATOM     28  C   UNL     1       1.171   2.086   0.002  0.00  0.00    +0.000 A 
ATOM     29  C   UNL     1       2.377   1.411  -0.013  0.00  0.00    +0.004 A 
ATOM     30  C   UNL     1       2.396   0.029  -0.020  0.00  0.00    -0.043 A 
ATOM     31  C   UNL     1       1.208  -0.679  -0.012  0.00  0.00    +0.004 A 
ATOM     32  C   UNL     1       0.002  -0.004   0.002  0.00  0.00    +0.000 A 
ENDBRANCH  26  30
ENDBRANCH   1  26
BRANCH  15  33
ATOM     33  C   UNL     1       5.650   1.152   1.358  0.00  0.00    +0.070 C 
BRANCH  33  34
ATOM     34  C   UNL     1       7.013   0.649   0.961  0.00  0.00    -0.043 A 
ATOM     35  C   UNL     1       8.089   0.825   1.811  0.00  0.00    +0.004 A 
ATOM     36  C   UNL     1       9.341   0.363   1.447  0.00  0.00    +0.000 A 
ATOM     37  C   UNL     1       9.515  -0.275   0.233  0.00  0.00    +0.000 A 
ATOM     38  C   UNL     1       8.439  -0.451  -0.617  0.00  0.00    +0.000 A 
ATOM     39  C   UNL     1       7.187   0.007  -0.251  0.00  0.00    +0.004 A 
ENDBRANCH  33  34
ENDBRANCH  15  33
TORSDOF 6
