REMARK  Name = ZINC39678308
REMARK  6 active torsions:
REMARK  status: ('A' for Active; 'I' for Inactive)
REMARK    1  A    between atoms: C_1  and  C_2
REMARK    2  A    between atoms: C_7  and  C_10
REMARK    3  A    between atoms: C_14  and  C_23
REMARK    4  A    between atoms: N_25  and  C_26
REMARK    5  A    between atoms: C_26  and  C_27
REMARK    6  A    between atoms: C_32  and  N_33
REMARK                            x       y       z     vdW  Elec       q    Type
REMARK                         _______ _______ _______ _____ _____    ______ ____
ROOT
ATOM      1  C   UNL     1      -2.174  -2.731  -4.740  0.00  0.00    +0.219 C 
ATOM      2  O   UNL     1      -3.064  -2.072  -5.234  0.00  0.00    -0.275 OA
ATOM      3  N   UNL     1      -2.247  -4.077  -4.751  0.00  0.00    -0.300 N 
ATOM      4  C   UNL     1      -1.228  -5.045  -4.281  0.00  0.00    +0.121 C 
ATOM      5  C   UNL     1      -2.041  -6.162  -3.589  0.00  0.00    +0.100 C 
ATOM      6  C   UNL     1      -3.440  -6.078  -4.221  0.00  0.00    -0.004 C 
ATOM      7  C   UNL     1      -3.366  -4.923  -5.230  0.00  0.00    +0.115 C 
ATOM      8  C   UNL     1      -4.485  -5.771  -3.153  0.00  0.00    -0.010 C 
ATOM      9  C   UNL     1      -5.875  -5.749  -3.796  0.00  0.00    -0.082 C 
ATOM     10  N   UNL     1      -6.149  -7.050  -4.418  0.00  0.00    +0.379 N 
ATOM     11  C   UNL     1      -5.195  -7.296  -5.506  0.00  0.00    -0.082 C 
ATOM     12  C   UNL     1      -3.777  -7.384  -4.936  0.00  0.00    -0.010 C 
ATOM     13  H   UNL     1      -6.060  -7.778  -3.724  0.00  0.00    -0.086 HD
ATOM     14  H   UNL     1      -7.088  -7.054  -4.788  0.00  0.00    -0.086 HD
ENDROOT
BRANCH   1  21
ATOM     15  C   UNL     1       0.329   1.237  -0.525  0.00  0.00    +0.109 C 
ATOM     16  C   UNL     1       0.385   1.219  -2.031  0.00  0.00    +0.212 C 
ATOM     17  O   UNL     1       0.529   2.255  -2.645  0.00  0.00    -0.276 OA
ATOM     18  N   UNL     1       0.275   0.051  -2.695  0.00  0.00    -0.302 N 
ATOM     19  C   UNL     1       0.444   0.001  -4.154  0.00  0.00    +0.108 C 
ATOM     20  C   UNL     1      -0.783  -0.678  -4.769  0.00  0.00    +0.032 C 
ATOM     21  C   UNL     1      -0.988  -2.046  -4.113  0.00  0.00    +0.078 C 
ATOM     22  C   UNL     1      -1.238  -1.861  -2.614  0.00  0.00    +0.032 C 
ATOM     23  C   UNL     1      -0.011  -1.196  -1.974  0.00  0.00    +0.108 C 
ENDBRANCH   1  21
BRANCH   5  24
ATOM     24  C   UNL     1      -1.420  -7.508  -3.861  0.00  0.00    +0.218 C 
ATOM     25  O   UNL     1      -0.999  -7.770  -4.968  0.00  0.00    -0.275 OA
ATOM     26  N   UNL     1      -1.331  -8.421  -2.874  0.00  0.00    -0.311 N 
ATOM     27  H   UNL     1      -1.667  -8.212  -1.988  0.00  0.00    +0.149 HD
BRANCH  26  28
ATOM     28  C   UNL     1      -0.728  -9.730  -3.138  0.00  0.00    +0.141 C 
BRANCH  28  29
ATOM     29  C   UNL     1      -0.751 -10.557  -1.879  0.00  0.00    -0.009 A 
ATOM     30  C   UNL     1       0.384 -10.662  -1.099  0.00  0.00    +0.007 A 
ATOM     31  C   UNL     1       0.364 -11.422   0.056  0.00  0.00    +0.000 A 
ATOM     32  C   UNL     1      -0.793 -12.078   0.435  0.00  0.00    +0.002 A 
ATOM     33  C   UNL     1      -1.931 -11.977  -0.339  0.00  0.00    +0.023 A 
ATOM     34  C   UNL     1      -1.916 -11.211  -1.498  0.00  0.00    +0.034 A 
BRANCH  34  35
ATOM     35  N   UNL     1      -3.067 -11.102  -2.281  0.00  0.00    -0.330 N 
ATOM     36  C   UNL     1      -3.333 -12.065  -3.359  0.00  0.00    +0.105 C 
ATOM     37  C   UNL     1      -4.730 -12.659  -3.155  0.00  0.00    +0.019 C 
ATOM     38  C   UNL     1      -5.754 -11.525  -3.059  0.00  0.00    +0.003 C 
ATOM     39  C   UNL     1      -5.425 -10.640  -1.854  0.00  0.00    +0.019 C 
ATOM     40  C   UNL     1      -4.039 -10.027  -2.039  0.00  0.00    +0.105 C 
ENDBRANCH  34  35
ENDBRANCH  28  29
ENDBRANCH  26  28
ENDBRANCH   5  24
TORSDOF 5
