REMARK  Name = ZINC08997437
REMARK  10 active torsions:
REMARK  status: ('A' for Active; 'I' for Inactive)
REMARK    1  A    between atoms: C_1  and  C_2
REMARK    2  A    between atoms: C_3  and  C_25
REMARK    3  A    between atoms: C_4  and  C_16
REMARK    4  A    between atoms: C_19  and  N_22
REMARK    5  A    between atoms: N_22  and  C_23
REMARK    6  A    between atoms: N_22  and  C_24
REMARK    7  A    between atoms: C_25  and  O_27
REMARK    8  A    between atoms: O_27  and  C_28
REMARK    9  A    between atoms: C_28  and  C_29
REMARK   10  A    between atoms: C_28  and  C_30
REMARK                            x       y       z     vdW  Elec       q    Type
REMARK                         _______ _______ _______ _____ _____    ______ ____
ROOT
ATOM      1  C   UNL     1      -0.018   1.503   0.010  0.00  0.00    +0.061 C 
ATOM      2  C   UNL     1       0.002  -0.004   0.002  0.00  0.00    +0.020 C 
ATOM      3  C   UNL     1      -1.164  -0.667   0.004  0.00  0.00    +0.080 C 
ATOM      4  C   UNL     1      -1.259  -2.168  -0.015  0.00  0.00    +0.159 C 
ATOM      5  N   UNL     1       0.054  -2.747   0.269  0.00  0.00    -0.300 N 
ATOM      6  C   UNL     1       0.393  -4.033   0.576  0.00  0.00    +0.071 A 
ATOM      7  C   UNL     1      -0.352  -5.196   0.731  0.00  0.00    +0.028 A 
ATOM      8  C   UNL     1       0.340  -6.352   1.052  0.00  0.00    +0.002 A 
ATOM      9  C   UNL     1       1.715  -6.362   1.215  0.00  0.00    +0.002 A 
ATOM     10  C   UNL     1       2.479  -5.219   1.068  0.00  0.00    +0.030 A 
ATOM     11  C   UNL     1       1.801  -4.039   0.744  0.00  0.00    +0.091 A 
ATOM     12  N   UNL     1       2.236  -2.780   0.538  0.00  0.00    -0.214 NA
ATOM     13  C   UNL     1       1.218  -2.010   0.261  0.00  0.00    +0.202 A 
ATOM     14  N   UNL     1       1.213  -0.649  -0.013  0.00  0.00    -0.288 N 
ATOM     15  H   UNL     1       2.034  -0.171  -0.205  0.00  0.00    +0.155 HD
ENDROOT
BRANCH   4  16
ATOM     16  C   UNL     1      -1.725  -2.623  -1.374  0.00  0.00    -0.020 A 
ATOM     17  C   UNL     1      -0.974  -2.325  -2.496  0.00  0.00    +0.008 A 
ATOM     18  C   UNL     1      -1.397  -2.742  -3.743  0.00  0.00    +0.023 A 
ATOM     19  C   UNL     1      -2.579  -3.460  -3.869  0.00  0.00    +0.029 A 
ATOM     20  C   UNL     1      -3.331  -3.758  -2.740  0.00  0.00    +0.023 A 
ATOM     21  C   UNL     1      -2.899  -3.344  -1.495  0.00  0.00    +0.008 A 
BRANCH  19  22
ATOM     22  N   UNL     1      -3.011  -3.882  -5.129  0.00  0.00    -0.336 N 
ATOM     23  C   UNL     1      -2.217  -3.567  -6.319  0.00  0.00    +0.129 C 
ATOM     24  C   UNL     1      -4.258  -4.640  -5.260  0.00  0.00    +0.129 C 
ENDBRANCH  19  22
ENDBRANCH   4  16
BRANCH   3  25
ATOM     25  C   UNL     1      -2.362   0.082   0.026  0.00  0.00    +0.339 C 
ATOM     26  O   UNL     1      -2.319   1.298   0.042  0.00  0.00    -0.245 OA
BRANCH  25  27
ATOM     27  O   UNL     1      -3.554  -0.551   0.029  0.00  0.00    -0.459 OA
BRANCH  27  28
ATOM     28  C   UNL     1      -4.724   0.269   0.051  0.00  0.00    +0.171 C 
ATOM     29  C   UNL     1      -5.155   0.581  -1.383  0.00  0.00    +0.052 C 
ATOM     30  C   UNL     1      -5.851  -0.472   0.773  0.00  0.00    +0.052 C 
ENDBRANCH  27  28
ENDBRANCH  25  27
ENDBRANCH   3  25
TORSDOF 5
