REMARK  Name = ZINC13758575
REMARK  4 active torsions:
REMARK  status: ('A' for Active; 'I' for Inactive)
REMARK    1  A    between atoms: C_1  and  O_2
REMARK    2  A    between atoms: O_2  and  C_3
REMARK    3  A    between atoms: C_6  and  C_9
REMARK    4  A    between atoms: C_12  and  C_33
REMARK                            x       y       z     vdW  Elec       q    Type
REMARK                         _______ _______ _______ _____ _____    ______ ____
ROOT
ATOM      1  C   UNL     1       2.587  -2.550   4.310  0.00  0.00    +0.106 C 
ATOM      2  C   UNL     1       3.992  -2.987   3.881  0.00  0.00    +0.058 C 
ATOM      3  C   UNL     1       4.718  -3.632   5.069  0.00  0.00    +0.143 C 
ATOM      4  N   UNL     1       3.838  -4.629   5.676  0.00  0.00    -0.224 N 
ATOM      5  C   UNL     1       2.495  -4.671   5.498  0.00  0.00    +0.216 A 
ATOM      6  N   UNL     1       2.026  -5.683   6.177  0.00  0.00    -0.179 NA
ATOM      7  C   UNL     1       3.035  -6.308   6.802  0.00  0.00    +0.251 A 
ATOM      8  N   UNL     1       4.161  -5.692   6.520  0.00  0.00    -0.131 NA
ATOM      9  N   UNL     1       2.909  -7.436   7.623  0.00  0.00    -0.176 N 
ATOM     10  C   UNL     1       3.957  -8.023   8.232  0.00  0.00    +0.233 C 
ATOM     11  O   UNL     1       5.077  -7.569   8.332  0.00  0.00    -0.274 OA
ATOM     12  C   UNL     1       3.468  -9.374   8.780  0.00  0.00    +0.092 C 
ATOM     13  C   UNL     1       3.678 -10.361   7.630  0.00  0.00    +0.040 C 
ATOM     14  C   UNL     1       2.631 -11.419   7.561  0.00  0.00    -0.030 C 
ATOM     15  C   UNL     1       1.480 -11.357   8.143  0.00  0.00    -0.030 C 
ATOM     16  C   UNL     1       1.060 -10.217   9.016  0.00  0.00    +0.040 C 
ATOM     17  C   UNL     1       1.981  -9.033   8.970  0.00  0.00    +0.092 C 
ATOM     18  C   UNL     1       1.723  -8.033   7.880  0.00  0.00    +0.233 C 
ATOM     19  O   UNL     1       0.663  -7.806   7.338  0.00  0.00    -0.274 OA
ATOM     20  N   UNL     1       1.820  -3.745   4.712  0.00  0.00    -0.307 N 
ATOM     21  H   UNL     1       0.898  -3.877   4.440  0.00  0.00    +0.149 HD
ENDROOT
BRANCH   3  22
ATOM     22  C   UNL     1       5.982  -4.297   4.587  0.00  0.00    -0.023 A 
ATOM     23  C   UNL     1       5.915  -5.306   3.644  0.00  0.00    +0.008 A 
ATOM     24  C   UNL     1       7.073  -5.916   3.201  0.00  0.00    +0.038 A 
ATOM     25  C   UNL     1       8.301  -5.517   3.701  0.00  0.00    +0.123 A 
ATOM     26  C   UNL     1       8.367  -4.506   4.646  0.00  0.00    +0.038 A 
ATOM     27  C   UNL     1       7.208  -3.894   5.083  0.00  0.00    +0.008 A 
ATOM     28  F   UNL     1       9.434  -6.113   3.269  0.00  0.00    -0.205 F 
ENDBRANCH   3  22
BRANCH   1  32
ATOM     29  C   UNL     1       0.626  -0.618   1.042  0.00  0.00    +0.120 A 
ATOM     30  C   UNL     1       1.202   0.138   2.051  0.00  0.00    +0.046 A 
ATOM     31  C   UNL     1       1.835  -0.488   3.107  0.00  0.00    +0.009 A 
ATOM     32  C   UNL     1       1.895  -1.869   3.158  0.00  0.00    -0.027 A 
ATOM     33  C   UNL     1       1.322  -2.625   2.152  0.00  0.00    +0.009 A 
ATOM     34  C   UNL     1       0.682  -2.003   1.098  0.00  0.00    +0.046 A 
BRANCH  29  36
ATOM     35  C   UNL     1      -0.017   1.425   0.010  0.00  0.00    +0.277 C 
ATOM     36  O   UNL     1       0.002  -0.004   0.002  0.00  0.00    -0.495 OA
ENDBRANCH  29  36
ENDBRANCH   1  32
TORSDOF 3
