REMARK  Name = ZINC15957669
REMARK  8 active torsions:
REMARK  status: ('A' for Active; 'I' for Inactive)
REMARK    1  A    between atoms: C_1  and  C_2
REMARK    2  A    between atoms: C_2  and  C_3
REMARK    3  A    between atoms: C_3  and  C_4
REMARK    4  A    between atoms: C_4  and  C_5
REMARK    5  A    between atoms: C_8  and  N_11
REMARK    6  A    between atoms: C_16  and  C_35
REMARK    7  A    between atoms: C_28  and  C_33
REMARK    8  A    between atoms: C_35  and  C_36
REMARK                            x       y       z     vdW  Elec       q    Type
REMARK                         _______ _______ _______ _____ _____    ______ ____
ROOT
ATOM      1  N   UNL     1       3.991  -3.501  -5.912  0.00  0.00    -0.210 N 
ATOM      2  C   UNL     1       3.327  -4.167  -6.864  0.00  0.00    +0.232 C 
ATOM      3  O   UNL     1       2.166  -4.510  -6.799  0.00  0.00    -0.274 OA
ATOM      4  C   UNL     1       4.250  -4.425  -8.033  0.00  0.00    +0.108 C 
ATOM      5  C   UNL     1       3.774  -3.605  -9.250  0.00  0.00    +0.076 C 
ATOM      6  N   UNL     1       4.426  -2.277  -9.095  0.00  0.00    -0.295 NA
ATOM      7  C   UNL     1       5.771  -2.595  -8.581  0.00  0.00    +0.136 C 
ATOM      8  C   UNL     1       5.586  -3.768  -7.587  0.00  0.00    +0.123 C 
ATOM      9  C   UNL     1       5.264  -3.223  -6.214  0.00  0.00    +0.233 C 
ATOM     10  O   UNL     1       6.040  -2.628  -5.497  0.00  0.00    -0.274 OA
ATOM     11  C   UNL     1       6.405  -1.403  -7.921  0.00  0.00    +0.004 A 
ATOM     12  C   UNL     1       6.048  -0.608  -6.855  0.00  0.00    +0.009 A 
ATOM     13  C   UNL     1       6.859   0.446  -6.474  0.00  0.00    +0.021 A 
ATOM     14  C   UNL     1       8.030   0.699  -7.168  0.00  0.00    +0.046 A 
ATOM     15  C   UNL     1       8.391  -0.096  -8.237  0.00  0.00    -0.011 A 
ATOM     16  C   UNL     1       7.580  -1.159  -8.625  0.00  0.00    +0.043 A 
ATOM     17  N   UNL     1       7.730  -2.092  -9.654  0.00  0.00    -0.283 N 
ATOM     18  C   UNL     1       6.709  -2.970  -9.695  0.00  0.00    +0.243 C 
ATOM     19  O   UNL     1       6.573  -3.886 -10.478  0.00  0.00    -0.273 OA
ATOM     20  C   UNL     1       9.668   0.188  -8.986  0.00  0.00    +0.047 C 
ATOM     21 CL   UNL     1       9.048   2.022  -6.691  0.00  0.00    -0.083 Cl
ATOM     22  H   UNL     1       4.482  -1.797  -9.981  0.00  0.00    +0.124 HD
ATOM     23  H   UNL     1       8.480  -2.105 -10.268  0.00  0.00    +0.155 HD
ENDROOT
BRANCH   1  27
ATOM     24  C   UNL     1       2.228  -2.370  -2.308  0.00  0.00    -0.047 A 
ATOM     25  C   UNL     1       1.806  -1.795  -3.493  0.00  0.00    +0.005 A 
ATOM     26  C   UNL     1       2.388  -2.168  -4.688  0.00  0.00    +0.024 A 
ATOM     27  C   UNL     1       3.398  -3.120  -4.700  0.00  0.00    +0.044 A 
ATOM     28  C   UNL     1       3.821  -3.695  -3.509  0.00  0.00    +0.024 A 
ATOM     29  C   UNL     1       3.238  -3.315  -2.316  0.00  0.00    +0.005 A 
BRANCH  24  30
ATOM     30  C   UNL     1       1.591  -1.961  -1.005  0.00  0.00    +0.035 C 
BRANCH  30  31
ATOM     31  C   UNL     1       2.357  -0.776  -0.412  0.00  0.00    +0.004 C 
BRANCH  31  33
ATOM     32  C   UNL     1       2.475   0.824   1.503  0.00  0.00    +0.004 C 
ATOM     33  C   UNL     1       1.710  -0.361   0.911  0.00  0.00    -0.003 C 
ENDBRANCH  31  33
ENDBRANCH  30  31
ENDBRANCH  24  30
ENDBRANCH   1  27
BRANCH   5  34
ATOM     34  C   UNL     1       4.223  -4.273 -10.551  0.00  0.00    +0.115 C 
BRANCH  34  35
ATOM     35  C   UNL     1       3.140  -5.201 -11.039  0.00  0.00    +0.212 C 
ATOM     36  O   UNL     1       2.111  -5.316 -10.409  0.00  0.00    -0.276 OA
ATOM     37  N   UNL     1       3.317  -5.902 -12.176  0.00  0.00    -0.329 N 
ATOM     38  H   UNL     1       4.140  -5.810 -12.681  0.00  0.00    +0.145 HD
ATOM     39  H   UNL     1       2.620  -6.499 -12.491  0.00  0.00    +0.145 HD
ENDBRANCH  34  35
ENDBRANCH   5  34
TORSDOF 6
