REMARK  Name = ZINC13065254
REMARK  15 active torsions:
REMARK  status: ('A' for Active; 'I' for Inactive)
REMARK    1  A    between atoms: C_1  and  C_2
REMARK    2  A    between atoms: C_2  and  C_3
REMARK    3  A    between atoms: C_3  and  C_5
REMARK    4  A    between atoms: C_3  and  N_69
REMARK    5  A    between atoms: N_9  and  C_10
REMARK    6  A    between atoms: C_10  and  C_11
REMARK    7  A    between atoms: C_11  and  O_12
REMARK    8  A    between atoms: O_12  and  C_13
REMARK    9  A    between atoms: C_14  and  C_15
REMARK   10  A    between atoms: C_14  and  N_69
REMARK   11  A    between atoms: C_18  and  C_21
REMARK   12  A    between atoms: C_22  and  C_23
REMARK   13  A    between atoms: C_22  and  N_69
REMARK   14  A    between atoms: C_26  and  C_36
REMARK   15  A    between atoms: C_29  and  C_35
REMARK                            x       y       z     vdW  Elec       q    Type
REMARK                         _______ _______ _______ _____ _____    ______ ____
ROOT
ATOM      1  N   UNL     1       1.539   4.152   2.883  0.00  0.00    +0.392 N 
ATOM      2  H   UNL     1       1.088   4.520   3.728  0.00  0.00    -0.080 HD
ENDROOT
BRANCH   1   3
ATOM      3  C   UNL     1       0.514   3.516   2.029  0.00  0.00    +0.003 C 
BRANCH   3   4
ATOM      4  C   UNL     1       1.159   2.816   0.861  0.00  0.00    +0.138 A 
ATOM      5  N   UNL     1       2.351   2.270   0.836  0.00  0.00    -0.115 NA
ATOM      6  N   UNL     1       2.539   1.780  -0.340  0.00  0.00    -0.023 NA
ATOM      7  N   UNL     1       1.497   1.994  -1.065  0.00  0.00    -0.044 NA
ATOM      8  N   UNL     1       0.623   2.628  -0.359  0.00  0.00    -0.229 N 
BRANCH   8   9
ATOM      9  C   UNL     1      -0.703   3.066  -0.804  0.00  0.00    +0.175 C 
BRANCH   9  10
ATOM     10  C   UNL     1      -1.691   1.904  -0.682  0.00  0.00    +0.183 C 
BRANCH  10  11
ATOM     11  O   UNL     1      -2.984   2.331  -1.116  0.00  0.00    -0.381 OA
ATOM     12  C   UNL     1      -3.987   1.316  -1.042  0.00  0.00    +0.194 C 
ENDBRANCH  10  11
ENDBRANCH   9  10
ENDBRANCH   8   9
ENDBRANCH   3   4
BRANCH   3  14
ATOM     13  C   UNL     1      -1.028   3.229   3.973  0.00  0.00    +0.002 C 
ATOM     14  C   UNL     1      -0.265   2.500   2.865  0.00  0.00    -0.011 C 
ENDBRANCH   3  14
ENDBRANCH   1   3
BRANCH   1  15
ATOM     15  C   UNL     1       2.556   3.154   3.278  0.00  0.00    -0.042 C 
BRANCH  15  16
ATOM     16  C   UNL     1       3.302   3.675   4.480  0.00  0.00    -0.064 A 
ATOM     17  C   UNL     1       4.523   4.301   4.317  0.00  0.00    +0.002 A 
ATOM     18  C   UNL     1       5.205   4.783   5.419  0.00  0.00    +0.003 A 
ATOM     19  C   UNL     1       4.670   4.630   6.684  0.00  0.00    -0.050 A 
ATOM     20  C   UNL     1       3.451   3.999   6.848  0.00  0.00    +0.003 A 
ATOM     21  C   UNL     1       2.767   3.521   5.745  0.00  0.00    +0.002 A 
ATOM     22  C   UNL     1       5.416   5.151   7.886  0.00  0.00    +0.044 C 
ENDBRANCH  15  16
ENDBRANCH   1  15
BRANCH   1  23
ATOM     23  C   UNL     1       2.182   5.267   2.156  0.00  0.00    -0.036 C 
BRANCH  23  24
ATOM     24  C   UNL     1       1.299   6.484   2.264  0.00  0.00    +0.001 A 
ATOM     25  C   UNL     1       1.487   7.367   3.275  0.00  0.00    +0.017 A 
ATOM     26  C   UNL     1       0.616   8.542   3.349  0.00  0.00    +0.002 A 
ATOM     27  C   UNL     1       0.766   9.491   4.365  0.00  0.00    -0.041 A 
ATOM     28  C   UNL     1      -0.066  10.574   4.409  0.00  0.00    +0.004 A 
ATOM     29  C   UNL     1      -1.059  10.740   3.452  0.00  0.00    +0.005 A 
ATOM     30  C   UNL     1      -1.225   9.818   2.442  0.00  0.00    -0.026 A 
ATOM     31  C   UNL     1      -0.389   8.707   2.378  0.00  0.00    +0.052 A 
ATOM     32  N   UNL     1      -0.531   7.769   1.377  0.00  0.00    -0.322 N 
ATOM     33  H   UNL     1      -1.225   7.885   0.709  0.00  0.00    +0.169 HD
ATOM     34  C   UNL     1       0.276   6.696   1.315  0.00  0.00    +0.251 A 
ATOM     35  O   UNL     1       0.121   5.887   0.417  0.00  0.00    -0.268 OA
ATOM     36  C   UNL     1      -2.306  10.011   1.411  0.00  0.00    +0.046 C 
ATOM     37  C   UNL     1       1.840   9.320   5.408  0.00  0.00    +0.044 C 
ENDBRANCH  23  24
ENDBRANCH   1  23
TORSDOF 10
