REMARK  Name = ZINC36027034
REMARK  12 active torsions:
REMARK  status: ('A' for Active; 'I' for Inactive)
REMARK    1  A    between atoms: C_1  and  C_2
REMARK    2  A    between atoms: C_2  and  N_3
REMARK    3  A    between atoms: N_3  and  C_4
REMARK    4  A    between atoms: N_3  and  C_6
REMARK    5  A    between atoms: C_4  and  C_5
REMARK    6  A    between atoms: C_6  and  C_7
REMARK    7  A    between atoms: C_7  and  N_8
REMARK    8  A    between atoms: C_11  and  C_30
REMARK    9  A    between atoms: N_17  and  C_20
REMARK   10  A    between atoms: C_20  and  N_22
REMARK   11  A    between atoms: N_22  and  C_23
REMARK   12  A    between atoms: C_30  and  C_31
REMARK                            x       y       z     vdW  Elec       q    Type
REMARK                         _______ _______ _______ _____ _____    ______ ____
ROOT
ATOM      1  N   UNL     1       1.345  -3.882  -0.456  0.00  0.00    -0.315 N 
ATOM      2  C   UNL     1       2.167  -4.706   0.226  0.00  0.00    +0.201 C 
ATOM      3  O   UNL     1       3.046  -4.360   0.986  0.00  0.00    -0.277 OA
ATOM      4  C   UNL     1       1.806  -6.136  -0.116  0.00  0.00    +0.023 C 
ATOM      5  N   UNL     1       0.991  -6.035  -1.351  0.00  0.00    +0.401 N 
ATOM      6  C   UNL     1       0.410  -4.677  -1.257  0.00  0.00    +0.006 C 
ATOM      7  C   UNL     1      -0.953  -4.742  -0.569  0.00  0.00    +0.025 C 
ATOM      8  C   UNL     1      -1.527  -3.326  -0.443  0.00  0.00    +0.107 C 
ATOM      9  N   UNL     1      -1.542  -2.703  -1.774  0.00  0.00    -0.312 N 
ATOM     10  C   UNL     1      -0.293  -2.658  -2.547  0.00  0.00    +0.107 C 
ATOM     11  C   UNL     1       0.271  -4.079  -2.655  0.00  0.00    +0.025 C 
ATOM     12  H   UNL     1       1.573  -6.121  -2.170  0.00  0.00    -0.082 HD
ATOM     13  H   UNL     1       0.262  -6.732  -1.355  0.00  0.00    -0.082 HD
ENDROOT
BRANCH   9  14
ATOM     14  C   UNL     1      -2.679  -2.182  -2.275  0.00  0.00    +0.137 C 
ATOM     15  S   UNL     1      -4.095  -2.135  -1.314  0.00  0.00    -0.018 S 
BRANCH  14  16
ATOM     16  N   UNL     1      -2.701  -1.698  -3.533  0.00  0.00    -0.295 N 
ATOM     17  H   UNL     1      -3.164  -2.186  -4.232  0.00  0.00    +0.154 HD
BRANCH  16  18
ATOM     18  C   UNL     1      -2.058  -0.490  -3.830  0.00  0.00    +0.068 A 
ATOM     19  C   UNL     1      -1.335   0.172  -2.847  0.00  0.00    +0.026 A 
ATOM     20  C   UNL     1      -0.700   1.363  -3.143  0.00  0.00    +0.002 A 
ATOM     21  C   UNL     1      -0.784   1.896  -4.417  0.00  0.00    +0.003 A 
ATOM     22  C   UNL     1      -1.503   1.240  -5.398  0.00  0.00    +0.040 A 
ATOM     23  C   UNL     1      -2.137   0.045  -5.111  0.00  0.00    +0.144 A 
ATOM     24  F   UNL     1      -2.835  -0.599  -6.071  0.00  0.00    -0.204 F 
ENDBRANCH  16  18
ENDBRANCH  14  16
ENDBRANCH   9  14
BRANCH   1  25
ATOM     25  C   UNL     1       1.378  -2.418  -0.400  0.00  0.00    +0.087 C 
BRANCH  25  26
ATOM     26  C   UNL     1       2.362  -1.890  -1.446  0.00  0.00    -0.060 C 
BRANCH  26  27
ATOM     27  N   UNL     1       2.444  -0.427  -1.346  0.00  0.00    +0.380 N 
ATOM     28  H   UNL     1       1.519  -0.032  -1.428  0.00  0.00    -0.082 HD
BRANCH  27  30
ATOM     29  C   UNL     1       2.979   1.464   0.115  0.00  0.00    -0.017 C 
ATOM     30  C   UNL     1       3.021  -0.056  -0.047  0.00  0.00    -0.082 C 
ENDBRANCH  27  30
BRANCH  27  31
ATOM     31  C   UNL     1       3.295   0.091  -2.425  0.00  0.00    -0.082 C 
ATOM     32  C   UNL     1       2.623  -0.173  -3.775  0.00  0.00    -0.017 C 
ENDBRANCH  27  31
ENDBRANCH  26  27
ENDBRANCH  25  26
ENDBRANCH   1  25
BRANCH   4  33
ATOM     33  C   UNL     1       3.070  -6.957  -0.374  0.00  0.00    +0.028 C 
BRANCH  33  34
ATOM     34  C   UNL     1       2.692  -8.394  -0.627  0.00  0.00    -0.048 A 
ATOM     35  C   UNL     1       2.604  -9.281   0.429  0.00  0.00    +0.003 A 
ATOM     36  C   UNL     1       2.258 -10.600   0.197  0.00  0.00    +0.000 A 
ATOM     37  C   UNL     1       1.999 -11.030  -1.091  0.00  0.00    +0.000 A 
ATOM     38  C   UNL     1       2.087 -10.142  -2.147  0.00  0.00    +0.000 A 
ATOM     39  C   UNL     1       2.429  -8.823  -1.915  0.00  0.00    +0.003 A 
ENDBRANCH  33  34
ENDBRANCH   4  33
TORSDOF 10
