REMARK  Name = ZINC39637486
REMARK  6 active torsions:
REMARK  status: ('A' for Active; 'I' for Inactive)
REMARK    1  A    between atoms: C_1  and  C_2
REMARK    2  A    between atoms: C_7  and  N_12
REMARK    3  A    between atoms: C_9  and  C_11
REMARK    4  A    between atoms: C_13  and  C_15
REMARK    5  A    between atoms: C_26  and  C_28
REMARK    6  A    between atoms: C_31  and  C_33
REMARK                            x       y       z     vdW  Elec       q    Type
REMARK                         _______ _______ _______ _____ _____    ______ ____
ROOT
ATOM      1  C   UNL     1      -2.287  -4.298   1.743  0.00  0.00    +0.100 C 
ATOM      2  C   UNL     1      -3.149  -3.495   2.743  0.00  0.00    +0.121 C 
ATOM      3  N   UNL     1      -4.050  -4.501   3.353  0.00  0.00    -0.294 N 
ATOM      4  C   UNL     1      -3.196  -5.699   3.533  0.00  0.00    +0.115 C 
ATOM      5  C   UNL     1      -2.320  -5.744   2.266  0.00  0.00    -0.004 C 
ATOM      6  C   UNL     1      -2.945  -6.668   1.224  0.00  0.00    -0.010 C 
ATOM      7  C   UNL     1      -2.915  -8.108   1.744  0.00  0.00    -0.082 C 
ATOM      8  N   UNL     1      -1.527  -8.505   2.010  0.00  0.00    +0.379 N 
ATOM      9  C   UNL     1      -0.963  -7.671   3.078  0.00  0.00    -0.082 C 
ATOM     10  C   UNL     1      -0.911  -6.212   2.616  0.00  0.00    -0.010 C 
ATOM     11  C   UNL     1      -5.352  -4.359   3.671  0.00  0.00    +0.282 C 
ATOM     12  O   UNL     1      -5.962  -5.286   4.171  0.00  0.00    -0.267 OA
ATOM     13  H   UNL     1      -1.504  -9.473   2.293  0.00  0.00    -0.086 HD
ATOM     14  H   UNL     1      -0.979  -8.390   1.171  0.00  0.00    -0.086 HD
ENDROOT
BRANCH  11  15
ATOM     15  C   UNL     1      -6.034  -3.087   3.415  0.00  0.00    +0.190 A 
ATOM     16  C   UNL     1      -7.353  -2.806   3.696  0.00  0.00    +0.055 A 
ATOM     17  C   UNL     1      -7.579  -1.487   3.292  0.00  0.00    +0.050 A 
ATOM     18  C   UNL     1      -6.402  -1.015   2.784  0.00  0.00    +0.136 A 
ATOM     19  O   UNL     1      -5.477  -1.985   2.869  0.00  0.00    -0.450 OA
BRANCH  18  20
ATOM     20  C   UNL     1      -6.182   0.339   2.239  0.00  0.00    +0.017 A 
ATOM     21  C   UNL     1      -7.228   1.265   2.217  0.00  0.00    +0.014 A 
ATOM     22  C   UNL     1      -7.016   2.528   1.707  0.00  0.00    +0.039 A 
ATOM     23  C   UNL     1      -5.768   2.880   1.216  0.00  0.00    +0.123 A 
ATOM     24  C   UNL     1      -4.727   1.966   1.235  0.00  0.00    +0.039 A 
ATOM     25  C   UNL     1      -4.925   0.701   1.748  0.00  0.00    +0.014 A 
ATOM     26  F   UNL     1      -5.566   4.120   0.717  0.00  0.00    -0.205 F 
ENDBRANCH  18  20
ENDBRANCH  11  15
BRANCH   1  28
ATOM     27  N   UNL     1      -0.139  -3.841   0.604  0.00  0.00    -0.312 N 
ATOM     28  C   UNL     1      -0.873  -3.776   1.733  0.00  0.00    +0.218 C 
ATOM     29  O   UNL     1      -0.396  -3.298   2.740  0.00  0.00    -0.275 OA
ATOM     30  H   UNL     1      -0.521  -4.224  -0.201  0.00  0.00    +0.149 HD
BRANCH  27  36
ATOM     31  C   UNL     1       1.913  -3.774  -3.171  0.00  0.00    +0.008 C 
ATOM     32  C   UNL     1       1.525  -4.167  -1.744  0.00  0.00    -0.009 C 
ATOM     33  C   UNL     1       2.474  -5.255  -1.239  0.00  0.00    +0.003 C 
ATOM     34  C   UNL     1       2.086  -5.648   0.188  0.00  0.00    +0.002 C 
ATOM     35  C   UNL     1       2.184  -4.423   1.099  0.00  0.00    +0.022 C 
ATOM     36  C   UNL     1       1.235  -3.334   0.594  0.00  0.00    +0.076 C 
ATOM     37  C   UNL     1       1.623  -2.941  -0.833  0.00  0.00    +0.009 C 
ATOM     38  C   UNL     1       0.674  -1.853  -1.339  0.00  0.00    +0.009 C 
ENDBRANCH  27  36
ENDBRANCH   1  28
TORSDOF 4
