REMARK  Name = ZINC06407126
REMARK  7 active torsions:
REMARK  status: ('A' for Active; 'I' for Inactive)
REMARK    1  A    between atoms: C_1  and  C_2
REMARK    2  A    between atoms: C_5  and  S_8
REMARK    3  A    between atoms: S_8  and  N_11
REMARK    4  A    between atoms: N_11  and  C_12
REMARK    5  A    between atoms: N_11  and  C_22
REMARK    6  A    between atoms: C_12  and  C_13
REMARK    7  A    between atoms: C_22  and  C_23
REMARK                            x       y       z     vdW  Elec       q    Type
REMARK                         _______ _______ _______ _____ _____    ______ ____
ROOT
ATOM      1  N   UNL     1       6.007  -0.996   1.289  0.00  0.00    -0.168 NA
ENDROOT
BRANCH   1   2
ATOM      2  S   UNL     1       6.902   0.293   0.758  0.00  0.00    +0.061 S 
ATOM      3  O   UNL     1       7.304  -0.012  -0.570  0.00  0.00    -0.153 OA
ATOM      4  O   UNL     1       6.161   1.462   1.080  0.00  0.00    -0.153 OA
BRANCH   2   9
ATOM      5  C   UNL     1      11.931   0.466   4.088  0.00  0.00    +0.044 C 
ATOM      6  C   UNL     1      10.675   0.423   3.256  0.00  0.00    -0.050 A 
ATOM      7  C   UNL     1      10.648  -0.306   2.082  0.00  0.00    +0.005 A 
ATOM      8  C   UNL     1       9.496  -0.345   1.319  0.00  0.00    +0.029 A 
ATOM      9  C   UNL     1       8.370   0.343   1.730  0.00  0.00    +0.106 A 
ATOM     10  C   UNL     1       8.398   1.076   2.902  0.00  0.00    +0.029 A 
ATOM     11  C   UNL     1       9.549   1.112   3.667  0.00  0.00    +0.005 A 
ENDBRANCH   2   9
ENDBRANCH   1   2
BRANCH   1  12
ATOM     12  C   UNL     1       4.936  -0.790   2.268  0.00  0.00    +0.145 C 
BRANCH  12  13
ATOM     13  C   UNL     1       5.441  -1.139   3.644  0.00  0.00    -0.028 A 
ATOM     14  C   UNL     1       5.916  -0.144   4.477  0.00  0.00    +0.009 A 
ATOM     15  C   UNL     1       6.380  -0.459   5.741  0.00  0.00    +0.050 A 
ATOM     16  C   UNL     1       6.370  -1.774   6.175  0.00  0.00    +0.166 A 
ATOM     17  C   UNL     1       5.890  -2.777   5.336  0.00  0.00    +0.167 A 
ATOM     18  C   UNL     1       5.426  -2.454   4.071  0.00  0.00    +0.054 A 
ATOM     19  O   UNL     1       5.983  -3.973   5.988  0.00  0.00    -0.453 OA
ATOM     20  C   UNL     1       6.143  -3.640   7.380  0.00  0.00    +0.466 C 
ATOM     21  O   UNL     1       6.763  -2.341   7.353  0.00  0.00    -0.453 OA
ENDBRANCH  12  13
ENDBRANCH   1  12
BRANCH   1  22
ATOM     22  C   UNL     1       6.286  -2.341   0.779  0.00  0.00    +0.150 C 
BRANCH  22  23
ATOM     23  C   UNL     1       5.345  -2.653  -0.356  0.00  0.00    +0.033 A 
ATOM     24  C   UNL     1       5.734  -2.431  -1.637  0.00  0.00    +0.020 A 
ATOM     25  C   UNL     1       4.799  -2.745  -2.716  0.00  0.00    +0.003 A 
ATOM     26  C   UNL     1       5.148  -2.538  -4.057  0.00  0.00    +0.059 A 
ATOM     27  C   UNL     1       4.246  -2.844  -5.052  0.00  0.00    +0.167 A 
ATOM     28  C   UNL     1       2.985  -3.360  -4.728  0.00  0.00    +0.168 A 
ATOM     29  C   UNL     1       2.633  -3.568  -3.407  0.00  0.00    +0.075 A 
ATOM     30  C   UNL     1       3.531  -3.265  -2.392  0.00  0.00    +0.053 A 
ATOM     31  N   UNL     1       3.197  -3.467  -1.068  0.00  0.00    -0.322 N 
ATOM     32  H   UNL     1       2.324  -3.825  -0.844  0.00  0.00    +0.169 HD
ATOM     33  C   UNL     1       4.067  -3.180  -0.083  0.00  0.00    +0.254 A 
ATOM     34  O   UNL     1       3.740  -3.377   1.075  0.00  0.00    -0.268 OA
ATOM     35  O   UNL     1       2.295  -3.575  -5.885  0.00  0.00    -0.453 OA
ATOM     36  C   UNL     1       3.284  -3.576  -6.930  0.00  0.00    +0.466 C 
ATOM     37  O   UNL     1       4.335  -2.740  -6.411  0.00  0.00    -0.453 OA
ENDBRANCH  22  23
ENDBRANCH   1  22
TORSDOF 6
