REMARK  Name = ZINC11938271
REMARK  9 active torsions:
REMARK  status: ('A' for Active; 'I' for Inactive)
REMARK    1  A    between atoms: C_1  and  C_2
REMARK    2  A    between atoms: C_2  and  C_3
REMARK    3  A    between atoms: C_6  and  C_9
REMARK    4  A    between atoms: C_9  and  N_57
REMARK    5  A    between atoms: C_10  and  C_11
REMARK    6  A    between atoms: C_10  and  N_57
REMARK    7  A    between atoms: N_13  and  C_25
REMARK    8  A    between atoms: C_15  and  C_16
REMARK    9  A    between atoms: C_25  and  C_26
REMARK                            x       y       z     vdW  Elec       q    Type
REMARK                         _______ _______ _______ _____ _____    ______ ____
ROOT
ATOM      1  C   UNL     1       3.466   5.223  -3.213  0.00  0.00    -0.016 A 
ATOM      2  C   UNL     1       3.129   5.404  -1.919  0.00  0.00    +0.111 A 
ATOM      3  N   UNL     1       2.858   4.194  -1.384  0.00  0.00    -0.266 N 
ATOM      4  N   UNL     1       3.038   3.226  -2.381  0.00  0.00    -0.168 NA
ATOM      5  C   UNL     1       3.399   3.842  -3.489  0.00  0.00    +0.129 A 
ENDROOT
BRANCH   5   6
ATOM      6  C   UNL     1       3.690   3.198  -4.788  0.00  0.00    +0.156 A 
ATOM      7  C   UNL     1       4.269   1.984  -4.942  0.00  0.00    +0.060 A 
ATOM      8  C   UNL     1       4.357   1.756  -6.387  0.00  0.00    +0.021 A 
ATOM      9  C   UNL     1       4.843   0.717  -7.181  0.00  0.00    +0.011 A 
ATOM     10  C   UNL     1       4.776   0.816  -8.543  0.00  0.00    +0.001 A 
ATOM     11  C   UNL     1       4.227   1.942  -9.139  0.00  0.00    +0.004 A 
ATOM     12  C   UNL     1       3.741   2.979  -8.371  0.00  0.00    +0.047 A 
ATOM     13  C   UNL     1       3.800   2.900  -6.985  0.00  0.00    +0.136 A 
ATOM     14  O   UNL     1       3.412   3.729  -5.995  0.00  0.00    -0.453 OA
ENDBRANCH   5   6
BRANCH   1  15
ATOM     15  C   UNL     1       3.846   6.306  -4.191  0.00  0.00    -0.042 C 
BRANCH  15  16
ATOM     16  N   UNL     1       2.681   6.622  -5.039  0.00  0.00    +0.385 N 
ATOM     17  H   UNL     1       2.393   5.778  -5.548  0.00  0.00    -0.085 HD
ATOM     18  H   UNL     1       1.907   6.944  -4.445  0.00  0.00    -0.085 HD
BRANCH  16  19
ATOM     19  C   UNL     1       3.024   7.680  -6.007  0.00  0.00    -0.026 C 
BRANCH  19  23
ATOM     20  C   UNL     1      -0.352   8.501  -8.414  0.00  0.00    -0.030 A 
ATOM     21  C   UNL     1      -0.129   9.293  -7.298  0.00  0.00    +0.007 A 
ATOM     22  C   UNL     1       0.975   9.020  -6.505  0.00  0.00    +0.021 A 
ATOM     23  C   UNL     1       1.817   7.982  -6.858  0.00  0.00    +0.024 A 
ATOM     24  N   UNL     1       1.574   7.249  -7.926  0.00  0.00    -0.262 NA
ATOM     25  C   UNL     1       0.530   7.476  -8.700  0.00  0.00    +0.114 A 
BRANCH  20  27
ATOM     26  C   UNL     1      -2.735   7.935  -8.806  0.00  0.00    +0.009 C 
ATOM     27  C   UNL     1      -1.542   8.754  -9.304  0.00  0.00    +0.033 C 
ENDBRANCH  20  27
ENDBRANCH  19  23
ENDBRANCH  16  19
ENDBRANCH  15  16
ENDBRANCH   1  15
BRANCH   3  28
ATOM     28  C   UNL     1       2.451   3.937  -0.001  0.00  0.00    +0.178 C 
BRANCH  28  29
ATOM     29  C   UNL     1       1.156   3.165   0.008  0.00  0.00    -0.026 A 
ATOM     30  C   UNL     1       1.175   1.783   0.000  0.00  0.00    +0.005 A 
ATOM     31  C   UNL     1      -0.013   1.076   0.008  0.00  0.00    +0.000 A 
ATOM     32  C   UNL     1      -1.219   1.751   0.017  0.00  0.00    +0.000 A 
ATOM     33  C   UNL     1      -1.238   3.133   0.030  0.00  0.00    +0.000 A 
ATOM     34  C   UNL     1      -0.050   3.840   0.023  0.00  0.00    +0.005 A 
ENDBRANCH  28  29
ENDBRANCH   3  28
TORSDOF 8
