REMARK  Name = ZINC01834451
REMARK  13 active torsions:
REMARK  status: ('A' for Active; 'I' for Inactive)
REMARK    1  A    between atoms: C_1  and  C_2
REMARK    2  A    between atoms: C_5  and  N_8
REMARK    3  A    between atoms: N_8  and  C_9
REMARK    4  A    between atoms: N_8  and  S_28
REMARK    5  A    between atoms: C_9  and  C_10
REMARK    6  A    between atoms: C_10  and  C_12
REMARK    7  A    between atoms: C_10  and  O_27
REMARK    8  A    between atoms: C_12  and  N_68
REMARK    9  A    between atoms: C_13  and  C_14
REMARK   10  A    between atoms: C_13  and  N_68
REMARK   11  A    between atoms: C_20  and  C_21
REMARK   12  A    between atoms: C_20  and  N_68
REMARK   13  A    between atoms: S_28  and  C_31
REMARK                            x       y       z     vdW  Elec       q    Type
REMARK                         _______ _______ _______ _____ _____    ______ ____
ROOT
ATOM      1  C   UNL     1       3.577  -3.060   0.491  0.00  0.00    +0.117 C 
ENDROOT
BRANCH   1   2
ATOM      2  O   UNL     1       3.180  -4.043   1.450  0.00  0.00    -0.392 OA
ATOM      3  H   UNL     1       2.918  -4.888   1.060  0.00  0.00    +0.210 HD
ENDBRANCH   1   2
BRANCH   1   4
ATOM      4  C   UNL     1       2.412  -2.776  -0.460  0.00  0.00    +0.161 C 
BRANCH   4   5
ATOM      5  N   UNL     1       1.315  -2.153   0.284  0.00  0.00    -0.201 N 
BRANCH   5  10
ATOM      6  C   UNL     1       1.266   3.460   1.092  0.00  0.00    +0.044 C 
ATOM      7  C   UNL     1       1.279   1.968   0.877  0.00  0.00    -0.050 A 
ATOM      8  C   UNL     1       0.089   1.263   0.863  0.00  0.00    +0.005 A 
ATOM      9  C   UNL     1       0.098  -0.104   0.666  0.00  0.00    +0.025 A 
ATOM     10  C   UNL     1       1.303  -0.770   0.483  0.00  0.00    +0.051 A 
ATOM     11  C   UNL     1       2.496  -0.059   0.498  0.00  0.00    +0.025 A 
ATOM     12  C   UNL     1       2.480   1.308   0.695  0.00  0.00    +0.005 A 
ENDBRANCH   5  10
BRANCH   5  13
ATOM     13  S   UNL     1       0.089  -3.087   0.890  0.00  0.00    +0.075 S 
ATOM     14  O   UNL     1       0.652  -4.360   1.175  0.00  0.00    -0.150 OA
ATOM     15  O   UNL     1      -0.568  -2.305   1.878  0.00  0.00    -0.150 OA
BRANCH  13  16
ATOM     16  C   UNL     1      -1.072  -3.331  -0.413  0.00  0.00    +0.109 A 
ATOM     17  C   UNL     1      -2.117  -2.442  -0.583  0.00  0.00    +0.029 A 
ATOM     18  C   UNL     1      -3.025  -2.630  -1.608  0.00  0.00    +0.002 A 
ATOM     19  C   UNL     1      -2.895  -3.713  -2.456  0.00  0.00    +0.000 A 
ATOM     20  C   UNL     1      -1.853  -4.606  -2.283  0.00  0.00    +0.002 A 
ATOM     21  C   UNL     1      -0.942  -4.414  -1.262  0.00  0.00    +0.029 A 
ENDBRANCH  13  16
ENDBRANCH   5  13
ENDBRANCH   4   5
ENDBRANCH   1   4
BRANCH   1  22
ATOM     22  C   UNL     1       4.773  -3.580  -0.308  0.00  0.00    -0.045 C 
BRANCH  22  23
ATOM     23  N   UNL     1       5.940  -3.675   0.594  0.00  0.00    +0.387 N 
ATOM     24  H   UNL     1       5.946  -2.859   1.218  0.00  0.00    -0.081 HD
BRANCH  23  25
ATOM     25  C   UNL     1       5.849  -4.903   1.410  0.00  0.00    -0.042 C 
BRANCH  25  26
ATOM     26  C   UNL     1       6.829  -4.800   2.551  0.00  0.00    -0.064 A 
ATOM     27  C   UNL     1       8.114  -5.286   2.404  0.00  0.00    +0.002 A 
ATOM     28  C   UNL     1       9.014  -5.186   3.448  0.00  0.00    +0.000 A 
ATOM     29  C   UNL     1       8.625  -4.611   4.643  0.00  0.00    +0.000 A 
ATOM     30  C   UNL     1       7.338  -4.131   4.793  0.00  0.00    +0.000 A 
ATOM     31  C   UNL     1       6.439  -4.225   3.746  0.00  0.00    +0.002 A 
ENDBRANCH  25  26
ENDBRANCH  23  25
BRANCH  23  32
ATOM     32  C   UNL     1       7.189  -3.684  -0.196  0.00  0.00    -0.042 C 
BRANCH  32  33
ATOM     33  C   UNL     1       7.493  -2.275  -0.635  0.00  0.00    -0.064 A 
ATOM     34  C   UNL     1       6.962  -1.789  -1.815  0.00  0.00    +0.002 A 
ATOM     35  C   UNL     1       7.237  -0.494  -2.216  0.00  0.00    +0.000 A 
ATOM     36  C   UNL     1       8.051   0.311  -1.441  0.00  0.00    +0.000 A 
ATOM     37  C   UNL     1       8.586  -0.177  -0.263  0.00  0.00    +0.000 A 
ATOM     38  C   UNL     1       8.307  -1.469   0.140  0.00  0.00    +0.002 A 
ENDBRANCH  32  33
ENDBRANCH  23  32
ENDBRANCH  22  23
ENDBRANCH   1  22
TORSDOF 12
