REMARK  Name = ZINC06452469
REMARK  5 active torsions:
REMARK  status: ('A' for Active; 'I' for Inactive)
REMARK    1  A    between atoms: C_1  and  C_2
REMARK    2  A    between atoms: C_8  and  C_10
REMARK    3  A    between atoms: C_14  and  N_16
REMARK    4  A    between atoms: C_17  and  C_19
REMARK    5  A    between atoms: C_20  and  C_21
REMARK                            x       y       z     vdW  Elec       q    Type
REMARK                         _______ _______ _______ _____ _____    ______ ____
ROOT
ATOM      1  C   UNL     1      -8.202  -1.913   0.246  0.00  0.00    +0.011 A 
ATOM      2  C   UNL     1      -7.966  -3.286   0.332  0.00  0.00    +0.011 A 
ATOM      3  C   UNL     1      -6.673  -3.766   0.321  0.00  0.00    +0.002 A 
ATOM      4  C   UNL     1      -5.607  -2.892   0.221  0.00  0.00    +0.023 A 
ATOM      5  C   UNL     1      -5.831  -1.523   0.141  0.00  0.00    +0.034 A 
ATOM      6  C   UNL     1      -7.127  -1.031   0.150  0.00  0.00    +0.034 A 
ENDROOT
BRANCH   1  14
ATOM      7  C   UNL     1     -13.896  -3.063   0.515  0.00  0.00    +0.090 C 
ATOM      8  C   UNL     1     -13.286  -1.689   0.402  0.00  0.00    +0.153 A 
ATOM      9  N   UNL     1     -13.939  -0.563   0.349  0.00  0.00    -0.132 NA
ATOM     10  N   UNL     1     -13.115   0.422   0.255  0.00  0.00    -0.120 NA
ATOM     11  C   UNL     1     -11.899  -0.034   0.244  0.00  0.00    +0.218 A 
ATOM     12  N   UNL     1     -11.937  -1.404   0.337  0.00  0.00    -0.190 N 
ATOM     13  N   UNL     1     -10.713  -2.060   0.340  0.00  0.00    -0.156 NA
ATOM     14  C   UNL     1      -9.588  -1.396   0.257  0.00  0.00    +0.132 A 
ATOM     15  S   UNL     1     -10.156   0.296   0.170  0.00  0.00    -0.026 S 
ENDBRANCH   1  14
BRANCH   5  16
ATOM     16  N   UNL     1      -4.749  -0.642   0.045  0.00  0.00    -0.282 N 
ATOM     17  C   UNL     1      -4.810   0.567   0.638  0.00  0.00    +0.241 C 
ATOM     18  O   UNL     1      -5.837   0.926   1.186  0.00  0.00    -0.270 OA
ATOM     19  H   UNL     1      -3.955  -0.900  -0.448  0.00  0.00    +0.155 HD
BRANCH  17  20
ATOM     20  C   UNL     1      -3.681   1.420   0.625  0.00  0.00    +0.071 C 
ATOM     21  C   UNL     1      -3.742   2.636   1.221  0.00  0.00    +0.051 C 
BRANCH  21  22
ATOM     22  C   UNL     1      -2.612   3.489   1.208  0.00  0.00    +0.128 A 
ATOM     23  C   UNL     1      -2.535   4.746   1.772  0.00  0.00    +0.049 A 
ATOM     24  C   UNL     1      -1.239   5.219   1.518  0.00  0.00    +0.042 A 
ATOM     25  C   UNL     1      -0.591   4.256   0.826  0.00  0.00    +0.195 A 
ATOM     26  O   UNL     1      -1.418   3.218   0.641  0.00  0.00    -0.464 OA
ENDBRANCH  21  22
ENDBRANCH  17  20
ENDBRANCH   5  16
TORSDOF 4
