REMARK  Name = ZINC35245437
REMARK  13 active torsions:
REMARK  status: ('A' for Active; 'I' for Inactive)
REMARK    1  A    between atoms: C_1  and  C_2
REMARK    2  A    between atoms: C_2  and  O_3
REMARK    3  A    between atoms: O_3  and  C_4
REMARK    4  A    between atoms: C_4  and  C_6
REMARK    5  A    between atoms: C_6  and  N_7
REMARK    6  A    between atoms: N_10  and  C_11
REMARK    7  A    between atoms: N_10  and  C_36
REMARK    8  A    between atoms: C_11  and  C_12
REMARK    9  A    between atoms: C_26  and  C_28
REMARK   10  A    between atoms: C_31  and  O_34
REMARK   11  A    between atoms: O_34  and  C_35
REMARK   12  A    between atoms: C_36  and  C_37
REMARK   13  A    between atoms: C_36  and  C_38
REMARK                            x       y       z     vdW  Elec       q    Type
REMARK                         _______ _______ _______ _____ _____    ______ ____
ROOT
ATOM      1  C   UNL     1      -5.454  -7.020  -1.524  0.00  0.00    +0.238 C 
ATOM      2  O   UNL     1      -5.122  -6.796  -0.380  0.00  0.00    -0.273 OA
ATOM      3  N   UNL     1      -6.595  -7.692  -1.775  0.00  0.00    -0.255 N 
ATOM      4  C   UNL     1      -7.446  -8.045  -0.719  0.00  0.00    +0.061 A 
ATOM      5  C   UNL     1      -6.936  -8.280   0.548  0.00  0.00    +0.025 A 
ATOM      6  C   UNL     1      -7.788  -8.617   1.583  0.00  0.00    +0.002 A 
ATOM      7  C   UNL     1      -9.150  -8.721   1.364  0.00  0.00    +0.002 A 
ATOM      8  C   UNL     1      -9.669  -8.493   0.102  0.00  0.00    +0.028 A 
ATOM      9  C   UNL     1      -8.823  -8.161  -0.938  0.00  0.00    +0.068 A 
ATOM     10  N   UNL     1      -9.299  -7.946  -2.240  0.00  0.00    -0.316 N 
ATOM     11  C   UNL     1     -10.564  -7.768  -2.689  0.00  0.00    +0.092 A 
ATOM     12  C   UNL     1     -10.515  -7.590  -4.028  0.00  0.00    +0.020 A 
ATOM     13  C   UNL     1      -9.160  -7.665  -4.418  0.00  0.00    +0.025 A 
ATOM     14  C   UNL     1      -8.438  -7.884  -3.314  0.00  0.00    +0.049 A 
ATOM     15  C   UNL     1      -6.949  -8.049  -3.159  0.00  0.00    +0.159 C 
ENDROOT
BRANCH  15  16
ATOM     16  C   UNL     1      -6.567  -9.481  -3.431  0.00  0.00    -0.021 A 
ATOM     17  C   UNL     1      -6.775 -10.446  -2.463  0.00  0.00    +0.009 A 
ATOM     18  C   UNL     1      -6.425 -11.759  -2.709  0.00  0.00    +0.046 A 
ATOM     19  C   UNL     1      -5.866 -12.110  -3.929  0.00  0.00    +0.120 A 
ATOM     20  C   UNL     1      -5.659 -11.140  -4.899  0.00  0.00    +0.046 A 
ATOM     21  C   UNL     1      -6.015  -9.829  -4.650  0.00  0.00    +0.009 A 
BRANCH  19  22
ATOM     22  O   UNL     1      -5.521 -13.402  -4.173  0.00  0.00    -0.495 OA
ATOM     23  C   UNL     1      -4.950 -13.690  -5.451  0.00  0.00    +0.277 C 
ENDBRANCH  19  22
ENDBRANCH  15  16
BRANCH   1  24
ATOM     24  C   UNL     1      -4.592  -6.546  -2.666  0.00  0.00    +0.205 C 
BRANCH  24  28
ATOM     25  N   UNL     1      -2.142  -7.651  -2.044  0.00  0.00    -0.289 N 
ATOM     26  C   UNL     1      -2.322  -6.337  -1.805  0.00  0.00    +0.303 C 
ATOM     27  O   UNL     1      -1.435  -5.686  -1.287  0.00  0.00    -0.253 OA
ATOM     28  N   UNL     1      -3.484  -5.743  -2.141  0.00  0.00    -0.274 N 
ATOM     29  H   UNL     1      -2.875  -8.186  -2.389  0.00  0.00    +0.151 HD
BRANCH  28  30
ATOM     30  C   UNL     1      -3.641  -4.296  -1.981  0.00  0.00    +0.072 C 
ATOM     31  C   UNL     1      -4.064  -3.678  -3.316  0.00  0.00    +0.028 C 
ATOM     32  C   UNL     1      -4.711  -4.012  -0.926  0.00  0.00    +0.028 C 
ENDBRANCH  28  30
BRANCH  25  33
ATOM     33  C   UNL     1      -0.841  -8.272  -1.783  0.00  0.00    +0.226 C 
BRANCH  33  34
ATOM     34  C   UNL     1      -0.905  -9.737  -2.130  0.00  0.00    +0.324 C 
ATOM     35  O   UNL     1      -1.932 -10.213  -2.552  0.00  0.00    -0.249 OA
BRANCH  34  36
ATOM     36  O   UNL     1       0.179 -10.512  -1.970  0.00  0.00    -0.464 OA
BRANCH  36  38
ATOM     37  C   UNL     1       1.375 -12.610  -2.072  0.00  0.00    +0.048 C 
ATOM     38  C   UNL     1       0.046 -11.892  -2.319  0.00  0.00    +0.229 C 
ENDBRANCH  36  38
ENDBRANCH  34  36
ENDBRANCH  33  34
ENDBRANCH  25  33
ENDBRANCH  24  28
ENDBRANCH   1  24
TORSDOF 9
