REMARK  Name = ZINC19727587
REMARK  13 active torsions:
REMARK  status: ('A' for Active; 'I' for Inactive)
REMARK    1  A    between atoms: C_1  and  C_2
REMARK    2  A    between atoms: C_2  and  C_3
REMARK    3  A    between atoms: C_3  and  C_5
REMARK    4  A    between atoms: C_3  and  O_6
REMARK    5  A    between atoms: O_6  and  C_7
REMARK    6  A    between atoms: C_7  and  C_9
REMARK    7  A    between atoms: C_10  and  C_38
REMARK    8  A    between atoms: C_14  and  C_16
REMARK    9  A    between atoms: C_20  and  N_22
REMARK   10  A    between atoms: C_28  and  C_34
REMARK   11  A    between atoms: C_30  and  C_33
REMARK   12  A    between atoms: C_34  and  O_36
REMARK   13  A    between atoms: O_36  and  C_37
REMARK                            x       y       z     vdW  Elec       q    Type
REMARK                         _______ _______ _______ _____ _____    ______ ____
ROOT
ATOM      1  C   UNL     1       1.099  -0.668  -0.401  0.00  0.00    +0.065 C 
ATOM      2  C   UNL     1       0.002  -0.004   0.002  0.00  0.00    +0.016 C 
ATOM      3  N   UNL     1      -0.017   1.363   0.009  0.00  0.00    -0.321 N 
ATOM      4  C   UNL     1       1.152   2.076   0.002  0.00  0.00    +0.016 C 
ATOM      5  C   UNL     1       2.303   1.501  -0.407  0.00  0.00    +0.025 C 
ATOM      6  C   UNL     1       2.326   0.063  -0.862  0.00  0.00    +0.092 C 
ATOM      7  C   UNL     1       3.509   2.223  -0.424  0.00  0.00    +0.176 C 
ATOM      8  O   UNL     1       4.529   1.672  -0.786  0.00  0.00    -0.291 OA
ATOM      9  C   UNL     1       3.559   3.666  -0.001  0.00  0.00    +0.171 C 
ATOM     10  C   UNL     1       2.196   4.312  -0.274  0.00  0.00    +0.013 C 
ATOM     11  C   UNL     1       1.122   3.511   0.465  0.00  0.00    +0.055 C 
ATOM     12  C   UNL     1       1.912   4.297  -1.778  0.00  0.00    +0.009 C 
ATOM     13  C   UNL     1      -1.215  -0.772   0.449  0.00  0.00    +0.061 C 
ATOM     14  H   UNL     1      -0.977   1.900   0.021  0.00  0.00    +0.152 HD
ENDROOT
BRANCH   6  15
ATOM     15  C   UNL     1       2.391   0.021  -2.367  0.00  0.00    -0.033 A 
ATOM     16  C   UNL     1       1.368   0.569  -3.118  0.00  0.00    +0.006 A 
ATOM     17  C   UNL     1       1.427   0.531  -4.498  0.00  0.00    +0.022 A 
ATOM     18  C   UNL     1       2.510  -0.056  -5.128  0.00  0.00    +0.071 A 
ATOM     19  C   UNL     1       3.533  -0.604  -4.376  0.00  0.00    +0.145 A 
ATOM     20  C   UNL     1       3.476  -0.560  -2.996  0.00  0.00    +0.038 A 
ATOM     21 CL   UNL     1       2.585  -0.104  -6.862  0.00  0.00    -0.081 Cl
BRANCH  19  22
ATOM     22  N   UNL     1       4.692  -1.232  -5.049  0.00  0.00    +0.058 N 
ATOM     23  O   UNL     1       5.593  -1.715  -4.387  0.00  0.00    -0.126 OA
ATOM     24  O   UNL     1       4.745  -1.266  -6.266  0.00  0.00    -0.126 OA
ENDBRANCH  19  22
ENDBRANCH   6  15
BRANCH   1  25
ATOM     25  C   UNL     1       1.097  -2.082  -0.391  0.00  0.00    +0.338 C 
ATOM     26  O   UNL     1       0.108  -2.687  -0.020  0.00  0.00    -0.245 OA
BRANCH  25  27
ATOM     27  O   UNL     1       2.192  -2.761  -0.793  0.00  0.00    -0.458 OA
BRANCH  27  28
ATOM     28  C   UNL     1       2.119  -4.188  -0.758  0.00  0.00    +0.173 C 
ATOM     29  C   UNL     1       1.591  -4.706  -2.097  0.00  0.00    +0.052 C 
BRANCH  28  31
ATOM     30  C   UNL     1       3.990  -4.347   0.891  0.00  0.00    +0.007 C 
ATOM     31  C   UNL     1       3.514  -4.763  -0.502  0.00  0.00    +0.041 C 
ENDBRANCH  28  31
ENDBRANCH  27  28
ENDBRANCH  25  27
ENDBRANCH   1  25
BRANCH   9  32
ATOM     32  C   UNL     1       4.626   4.385  -0.785  0.00  0.00    +0.318 C 
ATOM     33  O   UNL     1       4.332   5.324  -1.486  0.00  0.00    -0.250 OA
BRANCH  32  34
ATOM     34  O   UNL     1       5.904   3.981  -0.706  0.00  0.00    -0.467 OA
ATOM     35  C   UNL     1       6.879   4.719  -1.488  0.00  0.00    +0.280 C 
ENDBRANCH  32  34
ENDBRANCH   9  32
TORSDOF 8
