REMARK  Name = ZINC66190272
REMARK  12 active torsions:
REMARK  status: ('A' for Active; 'I' for Inactive)
REMARK    1  A    between atoms: C_1  and  C_2
REMARK    2  A    between atoms: C_2  and  C_3
REMARK    3  A    between atoms: C_3  and  N_4
REMARK    4  A    between atoms: C_7  and  N_10
REMARK    5  A    between atoms: N_10  and  C_11
REMARK    6  A    between atoms: N_14  and  C_15
REMARK    7  A    between atoms: C_15  and  C_16
REMARK    8  A    between atoms: C_23  and  O_25
REMARK    9  A    between atoms: O_25  and  C_26
REMARK   10  A    between atoms: C_26  and  C_27
REMARK   11  A    between atoms: C_26  and  C_28
REMARK   12  A    between atoms: C_26  and  C_29
REMARK                            x       y       z     vdW  Elec       q    Type
REMARK                         _______ _______ _______ _____ _____    ______ ____
ROOT
ATOM      1  N   UNL     1      -2.372  -6.580   0.683  0.00  0.00    -0.286 N 
ATOM      2  C   UNL     1      -1.550  -7.181  -0.370  0.00  0.00    +0.134 C 
ATOM      3  C   UNL     1      -2.923  -7.360   1.635  0.00  0.00    +0.302 C 
ATOM      4  O   UNL     1      -3.682  -6.876   2.453  0.00  0.00    -0.253 OA
ATOM      5  N   UNL     1      -2.632  -8.675   1.681  0.00  0.00    -0.297 N 
ATOM      6  H   UNL     1      -1.970  -9.046   1.077  0.00  0.00    +0.150 HD
ENDROOT
BRANCH   1  10
ATOM      7  N   UNL     1      -2.118  -2.548  -0.515  0.00  0.00    +0.380 N 
ATOM      8  C   UNL     1      -1.486  -2.897   0.764  0.00  0.00    -0.077 C 
ATOM      9  C   UNL     1      -1.253  -4.408   0.825  0.00  0.00    +0.004 C 
ATOM     10  C   UNL     1      -2.596  -5.133   0.702  0.00  0.00    +0.074 C 
ATOM     11  C   UNL     1      -3.280  -4.703  -0.600  0.00  0.00    +0.004 C 
ATOM     12  C   UNL     1      -3.438  -3.181  -0.608  0.00  0.00    -0.077 C 
ATOM     13  H   UNL     1      -1.537  -2.870  -1.274  0.00  0.00    -0.082 HD
BRANCH   7  14
ATOM     14  C   UNL     1      -2.269  -1.089  -0.601  0.00  0.00    -0.079 C 
BRANCH  14  16
ATOM     15  C   UNL     1      -1.044   1.086  -0.720  0.00  0.00    +0.002 C 
ATOM     16  C   UNL     1      -0.887  -0.434  -0.630  0.00  0.00    -0.022 C 
ENDBRANCH  14  16
ENDBRANCH   7  14
ENDBRANCH   1  10
BRANCH   5  17
ATOM     17  C   UNL     1      -3.315  -9.543   2.643  0.00  0.00    +0.128 C 
BRANCH  17  18
ATOM     18  C   UNL     1      -2.899 -10.996   2.403  0.00  0.00    +0.096 C 
ATOM     19  C   UNL     1      -3.301 -11.419   0.987  0.00  0.00    +0.024 C 
ATOM     20  C   UNL     1      -3.009 -12.909   0.801  0.00  0.00    +0.003 C 
ATOM     21  C   UNL     1      -3.837 -13.721   1.801  0.00  0.00    +0.019 C 
ATOM     22  C   UNL     1      -3.440 -13.325   3.226  0.00  0.00    +0.111 C 
ATOM     23  N   UNL     1      -3.578 -11.869   3.371  0.00  0.00    -0.263 N 
ATOM     24  C   UNL     1      -4.315 -11.344   4.370  0.00  0.00    +0.404 C 
ATOM     25  O   UNL     1      -4.504 -10.145   4.420  0.00  0.00    -0.226 OA
BRANCH  24  26
ATOM     26  O   UNL     1      -4.843 -12.149   5.311  0.00  0.00    -0.445 OA
BRANCH  26  27
ATOM     27  C   UNL     1      -5.670 -11.533   6.301  0.00  0.00    +0.107 C 
ATOM     28  C   UNL     1      -6.861 -10.855   5.619  0.00  0.00    +0.055 C 
ATOM     29  C   UNL     1      -6.179 -12.598   7.274  0.00  0.00    +0.055 C 
ATOM     30  C   UNL     1      -4.858 -10.488   7.067  0.00  0.00    +0.055 C 
ENDBRANCH  26  27
ENDBRANCH  24  26
ENDBRANCH  17  18
ENDBRANCH   5  17
TORSDOF 7
