REMARK  Name = ZINC09160081
REMARK  5 active torsions:
REMARK  status: ('A' for Active; 'I' for Inactive)
REMARK    1  A    between atoms: C_4  and  C_7
REMARK    2  A    between atoms: C_14  and  N_36
REMARK    3  A    between atoms: C_15  and  C_34
REMARK    4  A    between atoms: N_23  and  C_26
REMARK    5  A    between atoms: C_26  and  C_27
REMARK                            x       y       z     vdW  Elec       q    Type
REMARK                         _______ _______ _______ _____ _____    ______ ____
ROOT
ATOM      1  C   UNL     1       4.338   0.337  -1.489  0.00  0.00    +0.074 A 
ATOM      2  C   UNL     1       4.636  -0.470  -2.535  0.00  0.00    +0.066 A 
ATOM      3  C   UNL     1       5.999  -0.292  -2.849  0.00  0.00    +0.246 A 
ATOM      4  N   UNL     1       6.498   0.584  -2.025  0.00  0.00    -0.135 NA
ATOM      5  N   UNL     1       5.481   1.008  -1.156  0.00  0.00    -0.273 N 
ATOM      6  H   UNL     1       5.573   1.661  -0.444  0.00  0.00    +0.189 HD
ATOM      7  O   UNL     1       6.597  -0.973  -3.865  0.00  0.00    -0.421 OA
ATOM      8  C   UNL     1       5.803  -1.625  -4.736  0.00  0.00    +0.201 C 
ATOM      9  C   UNL     1       4.487  -1.865  -4.540  0.00  0.00    +0.110 C 
ATOM     10  C   UNL     1       3.760  -1.421  -3.301  0.00  0.00    +0.145 C 
ATOM     11  C   UNL     1       3.358  -2.588  -2.457  0.00  0.00    -0.001 A 
ATOM     12  C   UNL     1       4.102  -3.567  -1.834  0.00  0.00    +0.007 A 
ATOM     13  C   UNL     1       3.403  -4.527  -1.111  0.00  0.00    +0.000 A 
ATOM     14  C   UNL     1       2.026  -4.498  -1.022  0.00  0.00    +0.002 A 
ATOM     15  C   UNL     1       1.271  -3.518  -1.646  0.00  0.00    +0.024 A 
ATOM     16  C   UNL     1       1.960  -2.549  -2.377  0.00  0.00    +0.041 A 
ATOM     17  N   UNL     1       1.468  -1.471  -3.091  0.00  0.00    -0.265 N 
ATOM     18  C   UNL     1       2.454  -0.753  -3.669  0.00  0.00    +0.241 C 
ATOM     19  O   UNL     1       2.319   0.239  -4.354  0.00  0.00    -0.274 OA
ENDROOT
BRANCH   1  23
ATOM     20  C   UNL     1       0.550   0.724   0.398  0.00  0.00    +0.000 A 
ATOM     21  C   UNL     1       1.071  -0.534   0.150  0.00  0.00    +0.001 A 
ATOM     22  C   UNL     1       2.301  -0.666  -0.462  0.00  0.00    +0.010 A 
ATOM     23  C   UNL     1       3.018   0.472  -0.832  0.00  0.00    +0.000 A 
ATOM     24  C   UNL     1       2.487   1.737  -0.580  0.00  0.00    +0.010 A 
ATOM     25  C   UNL     1       1.257   1.856   0.033  0.00  0.00    +0.001 A 
ENDBRANCH   1  23
BRANCH   8  26
ATOM     26  N   UNL     1       6.369  -2.077  -5.903  0.00  0.00    -0.328 N 
ATOM     27  H   UNL     1       7.310  -1.922  -6.077  0.00  0.00    +0.145 HD
ATOM     28  H   UNL     1       5.827  -2.551  -6.553  0.00  0.00    +0.145 HD
ENDBRANCH   8  26
BRANCH   9  29
ATOM     29  C   UNL     1       3.758  -2.570  -5.550  0.00  0.00    +0.102 C 
ATOM     30  N   UNL     1       3.179  -3.129  -6.352  0.00  0.00    -0.191 NA
ENDBRANCH   9  29
BRANCH  17  31
ATOM     31  C   UNL     1       0.044  -1.147  -3.207  0.00  0.00    +0.148 C 
BRANCH  31  32
ATOM     32  C   UNL     1      -0.225   0.182  -2.549  0.00  0.00    -0.030 A 
ATOM     33  C   UNL     1      -1.107   0.261  -1.487  0.00  0.00    +0.008 A 
ATOM     34  C   UNL     1      -1.353   1.479  -0.882  0.00  0.00    +0.038 A 
ATOM     35  C   UNL     1      -0.716   2.620  -1.340  0.00  0.00    +0.123 A 
ATOM     36  C   UNL     1       0.168   2.539  -2.403  0.00  0.00    +0.038 A 
ATOM     37  C   UNL     1       0.416   1.319  -3.003  0.00  0.00    +0.008 A 
ATOM     38  F   UNL     1      -0.957   3.811  -0.749  0.00  0.00    -0.205 F 
ENDBRANCH  31  32
ENDBRANCH  17  31
TORSDOF 5
