REMARK  Name = ZINC09464159
REMARK  14 active torsions:
REMARK  status: ('A' for Active; 'I' for Inactive)
REMARK    1  A    between atoms: C_1  and  C_2
REMARK    2  A    between atoms: C_3  and  C_34
REMARK    3  A    between atoms: C_4  and  C_33
REMARK    4  A    between atoms: C_7  and  C_8
REMARK    5  A    between atoms: C_8  and  C_10
REMARK    6  A    between atoms: C_10  and  S_11
REMARK    7  A    between atoms: S_11  and  C_12
REMARK    8  A    between atoms: C_15  and  C_25
REMARK    9  A    between atoms: N_16  and  C_17
REMARK   10  A    between atoms: C_20  and  O_23
REMARK   11  A    between atoms: O_23  and  C_24
REMARK   12  A    between atoms: C_25  and  C_27
REMARK   13  A    between atoms: C_25  and  N_68
REMARK   14  A    between atoms: C_34  and  C_36
REMARK                            x       y       z     vdW  Elec       q    Type
REMARK                         _______ _______ _______ _____ _____    ______ ____
ROOT
ATOM      1  C   UNL     1      -0.078   0.202   1.205  0.00  0.00    +0.196 A 
ATOM      2  N   UNL     1      -0.117   1.507   1.068  0.00  0.00    -0.122 NA
ATOM      3  N   UNL     1       1.060   1.999   1.222  0.00  0.00    -0.135 NA
ATOM      4  C   UNL     1       1.916   1.047   1.464  0.00  0.00    +0.125 A 
ATOM      5  N   UNL     1       1.222  -0.134   1.463  0.00  0.00    -0.275 N 
ENDROOT
BRANCH   5   6
ATOM      6  C   UNL     1       1.739  -1.421   1.679  0.00  0.00    +0.050 A 
ATOM      7  C   UNL     1       2.280  -1.754   2.914  0.00  0.00    +0.030 A 
ATOM      8  C   UNL     1       2.783  -3.021   3.128  0.00  0.00    +0.047 A 
ATOM      9  C   UNL     1       2.757  -3.960   2.107  0.00  0.00    +0.120 A 
ATOM     10  C   UNL     1       2.222  -3.627   0.871  0.00  0.00    +0.047 A 
ATOM     11  C   UNL     1       1.713  -2.361   0.658  0.00  0.00    +0.030 A 
BRANCH   9  12
ATOM     12  O   UNL     1       3.257  -5.207   2.317  0.00  0.00    -0.495 OA
ATOM     13  C   UNL     1       3.794  -5.481   3.613  0.00  0.00    +0.277 C 
ENDBRANCH   9  12
ENDBRANCH   5   6
BRANCH   4  14
ATOM     14  C   UNL     1       3.394   1.214   1.702  0.00  0.00    -0.002 C 
ATOM     15  C   UNL     1       3.625   1.776   3.107  0.00  0.00    -0.005 C 
BRANCH  14  21
ATOM     16  C   UNL     1       3.659   1.683  -0.658  0.00  0.00    -0.078 C 
ATOM     17  C   UNL     1       4.121   2.741  -1.662  0.00  0.00    -0.019 C 
ATOM     18  C   UNL     1       5.625   2.977  -1.492  0.00  0.00    -0.004 C 
ATOM     19  C   UNL     1       5.906   3.406  -0.049  0.00  0.00    -0.019 C 
ATOM     20  C   UNL     1       5.391   2.328   0.908  0.00  0.00    -0.078 C 
ATOM     21  N   UNL     1       3.935   2.167   0.711  0.00  0.00    +0.386 N 
ATOM     22  H   UNL     1       3.478   3.078   0.841  0.00  0.00    -0.081 HD
ENDBRANCH  14  21
ENDBRANCH   4  14
BRANCH   1  23
ATOM     23  S   UNL     1      -1.442  -0.906   1.081  0.00  0.00    -0.078 S 
BRANCH  23  24
ATOM     24  C   UNL     1      -2.773   0.271   0.735  0.00  0.00    +0.158 C 
BRANCH  24  25
ATOM     25  C   UNL     1      -4.075  -0.473   0.585  0.00  0.00    +0.190 C 
ATOM     26  O   UNL     1      -4.101  -1.681   0.701  0.00  0.00    -0.290 OA
BRANCH  25  33
ATOM     27  C   UNL     1      -6.871  -1.779   0.222  0.00  0.00    +0.047 C 
ATOM     28  C   UNL     1      -6.519  -0.316   0.144  0.00  0.00    -0.012 A 
ATOM     29  C   UNL     1      -7.408   0.753  -0.111  0.00  0.00    +0.041 A 
ATOM     30  C   UNL     1      -6.658   1.919  -0.098  0.00  0.00    +0.024 A 
ATOM     31  N   UNL     1      -5.380   1.604   0.153  0.00  0.00    -0.355 N 
ATOM     32  H   UNL     1      -4.648   2.238   0.216  0.00  0.00    +0.166 HD
ATOM     33  C   UNL     1      -5.269   0.237   0.309  0.00  0.00    +0.087 A 
ATOM     34  C   UNL     1      -7.191   3.310  -0.329  0.00  0.00    +0.064 C 
BRANCH  29  35
ATOM     35  C   UNL     1      -8.851   0.647  -0.349  0.00  0.00    +0.162 C 
ATOM     36  O   UNL     1      -9.275   0.570  -1.484  0.00  0.00    -0.292 OA
ATOM     37  C   UNL     1      -9.808   0.635   0.815  0.00  0.00    +0.091 C 
ENDBRANCH  29  35
ENDBRANCH  25  33
ENDBRANCH  24  25
ENDBRANCH  23  24
ENDBRANCH   1  23
TORSDOF 9
