REMARK  Name = ZINC09477391
REMARK  7 active torsions:
REMARK  status: ('A' for Active; 'I' for Inactive)
REMARK    1  A    between atoms: C_1  and  C_2
REMARK    2  A    between atoms: C_5  and  N_9
REMARK    3  A    between atoms: C_6  and  C_8
REMARK    4  A    between atoms: N_9  and  S_10
REMARK    5  A    between atoms: S_10  and  C_13
REMARK    6  A    between atoms: C_17  and  C_19
REMARK    7  A    between atoms: C_24  and  C_27
REMARK                            x       y       z     vdW  Elec       q    Type
REMARK                         _______ _______ _______ _____ _____    ______ ____
ROOT
ATOM      1  C   UNL     1      -0.615   3.676  -0.485  0.00  0.00    +0.109 A 
ATOM      2  C   UNL     1       0.497   3.237   0.212  0.00  0.00    +0.029 A 
ATOM      3  C   UNL     1       0.400   2.158   1.071  0.00  0.00    +0.003 A 
ATOM      4  C   UNL     1      -0.807   1.511   1.239  0.00  0.00    +0.013 A 
ATOM      5  C   UNL     1      -1.931   1.945   0.534  0.00  0.00    +0.039 A 
ATOM      6  C   UNL     1      -1.828   3.039  -0.327  0.00  0.00    +0.041 A 
ENDROOT
BRANCH   5   7
ATOM      7  C   UNL     1      -3.227   1.254   0.705  0.00  0.00    +0.247 C 
ATOM      8  O   UNL     1      -4.263   1.889   0.680  0.00  0.00    -0.270 OA
ATOM      9  N   UNL     1      -3.259  -0.081   0.887  0.00  0.00    -0.297 N 
ATOM     10  C   UNL     1      -2.026  -0.877   0.812  0.00  0.00    +0.109 C 
ATOM     11  C   UNL     1      -2.226  -2.010  -0.193  0.00  0.00    +0.032 C 
ATOM     12  C   UNL     1      -3.471  -2.814   0.189  0.00  0.00    +0.078 C 
ATOM     13  C   UNL     1      -4.701  -1.904   0.144  0.00  0.00    +0.032 C 
ATOM     14  C   UNL     1      -4.529  -0.769   1.158  0.00  0.00    +0.109 C 
BRANCH  12  15
ATOM     15  C   UNL     1      -3.652  -3.951  -0.784  0.00  0.00    +0.219 C 
ATOM     16  O   UNL     1      -4.572  -3.933  -1.574  0.00  0.00    -0.275 OA
ATOM     17  N   UNL     1      -2.792  -4.988  -0.775  0.00  0.00    -0.301 N 
ATOM     18  C   UNL     1      -2.937  -6.018  -1.780  0.00  0.00    +0.108 C 
ATOM     19  C   UNL     1      -3.898  -7.114  -1.274  0.00  0.00    +0.019 C 
ATOM     20  C   UNL     1      -3.259  -7.901  -0.209  0.00  0.00    +0.002 C 
ATOM     21  C   UNL     1      -2.906  -7.100   1.040  0.00  0.00    +0.002 C 
ATOM     22  C   UNL     1      -1.562  -6.441   0.849  0.00  0.00    +0.019 C 
ATOM     23  C   UNL     1      -1.743  -5.029   0.263  0.00  0.00    +0.108 C 
ENDBRANCH  12  15
ENDBRANCH   5   7
BRANCH   1  24
ATOM     24  S   UNL     1      -0.480   5.052  -1.578  0.00  0.00    +0.072 S 
ATOM     25  O   UNL     1      -1.784   5.606  -1.695  0.00  0.00    -0.150 OA
ATOM     26  O   UNL     1       0.635   5.814  -1.136  0.00  0.00    -0.150 OA
BRANCH  24  27
ATOM     27  N   UNL     1      -0.084   4.455  -3.071  0.00  0.00    -0.216 N 
ATOM     28  H   UNL     1       0.746   4.723  -3.495  0.00  0.00    +0.174 HD
BRANCH  27  33
ATOM     29  C   UNL     1      -3.581   0.850  -5.704  0.00  0.00    +0.044 C 
ATOM     30  C   UNL     1      -2.651   1.807  -5.003  0.00  0.00    -0.050 A 
ATOM     31  C   UNL     1      -3.170   2.831  -4.232  0.00  0.00    +0.005 A 
ATOM     32  C   UNL     1      -2.321   3.711  -3.589  0.00  0.00    +0.025 A 
ATOM     33  C   UNL     1      -0.945   3.567  -3.719  0.00  0.00    +0.051 A 
ATOM     34  C   UNL     1      -0.428   2.540  -4.499  0.00  0.00    -0.028 A 
ATOM     35  C   UNL     1      -1.283   1.661  -5.135  0.00  0.00    +0.008 A 
ATOM     36  C   UNL     1       1.063   2.383  -4.647  0.00  0.00    +0.046 C 
ENDBRANCH  27  33
ENDBRANCH  24  27
ENDBRANCH   1  24
TORSDOF 5
