REMARK  Name = ZINC15306194
REMARK  8 active torsions:
REMARK  status: ('A' for Active; 'I' for Inactive)
REMARK    1  A    between atoms: C_1  and  O_2
REMARK    2  A    between atoms: O_2  and  C_3
REMARK    3  A    between atoms: C_6  and  C_9
REMARK    4  A    between atoms: C_14  and  O_41
REMARK    5  A    between atoms: C_15  and  O_40
REMARK    6  A    between atoms: C_26  and  C_32
REMARK    7  A    between atoms: C_35  and  O_38
REMARK    8  A    between atoms: O_38  and  C_39
REMARK                            x       y       z     vdW  Elec       q    Type
REMARK                         _______ _______ _______ _____ _____    ______ ____
ROOT
ATOM      1  C   UNL     1       3.073  -0.158   0.762  0.00  0.00    +0.061 C 
ATOM      2  C   UNL     1       3.972   0.455   1.823  0.00  0.00    +0.006 A 
ATOM      3  C   UNL     1       3.493   0.540   3.119  0.00  0.00    +0.011 A 
ATOM      4  C   UNL     1       4.270   1.097   4.116  0.00  0.00    +0.050 A 
ATOM      5  C   UNL     1       5.537   1.575   3.819  0.00  0.00    +0.162 A 
ATOM      6  C   UNL     1       6.023   1.488   2.522  0.00  0.00    +0.201 A 
ATOM      7  C   UNL     1       5.239   0.923   1.517  0.00  0.00    +0.172 A 
ATOM      8  O   UNL     1       5.772   0.856   0.256  0.00  0.00    -0.464 OA
ATOM      9  C   UNL     1       5.137  -0.102  -0.596  0.00  0.00    +0.186 C 
ATOM     10  C   UNL     1       3.653   0.235  -0.579  0.00  0.00    +0.064 C 
ATOM     11  C   UNL     1       2.956  -0.242  -1.824  0.00  0.00    +0.010 C 
ATOM     12  C   UNL     1       3.443   0.568  -3.036  0.00  0.00    +0.001 C 
ATOM     13  C   UNL     1       4.919   0.966  -2.859  0.00  0.00    +0.011 C 
ATOM     14  C   UNL     1       5.617  -0.074  -2.035  0.00  0.00    +0.077 C 
ATOM     15  C   UNL     1       7.119  -0.194  -2.090  0.00  0.00    +0.111 C 
ATOM     16  N   UNL     1       7.468  -1.427  -1.354  0.00  0.00    -0.319 N 
ATOM     17  C   UNL     1       6.628  -1.987  -0.469  0.00  0.00    +0.134 C 
ATOM     18  S   UNL     1       7.071  -3.495   0.209  0.00  0.00    -0.019 S 
ATOM     19  N   UNL     1       5.456  -1.438  -0.079  0.00  0.00    -0.289 N 
ATOM     20  H   UNL     1       8.329  -1.843  -1.515  0.00  0.00    +0.148 HD
ATOM     21  H   UNL     1       4.851  -1.907   0.518  0.00  0.00    +0.151 HD
ENDROOT
BRANCH   1  25
ATOM     22  C   UNL     1      -0.896   1.379   1.143  0.00  0.00    +0.120 A 
ATOM     23  C   UNL     1      -0.672   0.012   1.203  0.00  0.00    +0.046 A 
ATOM     24  C   UNL     1       0.613  -0.482   1.085  0.00  0.00    +0.008 A 
ATOM     25  C   UNL     1       1.673   0.384   0.896  0.00  0.00    -0.039 A 
ATOM     26  C   UNL     1       1.452   1.748   0.830  0.00  0.00    +0.008 A 
ATOM     27  C   UNL     1       0.170   2.247   0.953  0.00  0.00    +0.046 A 
BRANCH  22  29
ATOM     28  C   UNL     1      -3.207   0.917   1.458  0.00  0.00    +0.277 C 
ATOM     29  O   UNL     1      -2.158   1.868   1.265  0.00  0.00    -0.495 OA
ENDBRANCH  22  29
ENDBRANCH   1  25
BRANCH  15  30
ATOM     30  C   UNL     1       7.756   1.000  -1.428  0.00  0.00    -0.027 A 
ATOM     31  C   UNL     1       7.660   2.248  -2.016  0.00  0.00    +0.009 A 
ATOM     32  C   UNL     1       8.238   3.346  -1.409  0.00  0.00    +0.046 A 
ATOM     33  C   UNL     1       8.928   3.193  -0.215  0.00  0.00    +0.120 A 
ATOM     34  C   UNL     1       9.028   1.939   0.370  0.00  0.00    +0.046 A 
ATOM     35  C   UNL     1       8.442   0.846  -0.238  0.00  0.00    +0.009 A 
BRANCH  33  36
ATOM     36  O   UNL     1       9.504   4.270   0.381  0.00  0.00    -0.495 OA
ATOM     37  C   UNL     1       9.360   5.530  -0.277  0.00  0.00    +0.277 C 
ENDBRANCH  33  36
ENDBRANCH  15  30
BRANCH   6  38
ATOM     38  O   UNL     1       7.267   1.957   2.230  0.00  0.00    -0.501 OA
ATOM     39  H   UNL     1       7.296   2.905   2.044  0.00  0.00    +0.292 HD
ENDBRANCH   6  38
BRANCH   5  40
ATOM     40  O   UNL     1       6.303   2.127   4.798  0.00  0.00    -0.503 OA
ATOM     41  H   UNL     1       6.183   3.081   4.900  0.00  0.00    +0.292 HD
ENDBRANCH   5  40
TORSDOF 6
