REMARK  Name = ZINC13234974
REMARK  12 active torsions:
REMARK  status: ('A' for Active; 'I' for Inactive)
REMARK    1  A    between atoms: C_1  and  C_2
REMARK    2  A    between atoms: C_2  and  C_4
REMARK    3  A    between atoms: C_2  and  S_16
REMARK    4  A    between atoms: N_6  and  C_7
REMARK    5  A    between atoms: N_6  and  C_8
REMARK    6  A    between atoms: S_16  and  C_17
REMARK    7  A    between atoms: C_20  and  C_30
REMARK    8  A    between atoms: N_21  and  C_22
REMARK    9  A    between atoms: C_22  and  C_24
REMARK   10  A    between atoms: C_22  and  C_27
REMARK   11  A    between atoms: C_24  and  C_25
REMARK   12  A    between atoms: C_24  and  C_26
REMARK                            x       y       z     vdW  Elec       q    Type
REMARK                         _______ _______ _______ _____ _____    ______ ____
ROOT
ATOM      1  C   UNL     1      -2.335  -0.110   1.573  0.00  0.00    +0.193 A 
ATOM      2  N   UNL     1      -1.690   0.581   2.485  0.00  0.00    -0.122 NA
ATOM      3  N   UNL     1      -2.449   0.790   3.501  0.00  0.00    -0.128 NA
ATOM      4  C   UNL     1      -3.628   0.245   3.300  0.00  0.00    +0.172 A 
ATOM      5  N   UNL     1      -3.593  -0.344   2.056  0.00  0.00    -0.287 N 
ENDROOT
BRANCH   4   6
ATOM      6  C   UNL     1      -4.771   0.265   4.227  0.00  0.00    +0.056 A 
ATOM      7  C   UNL     1      -4.978   1.057   5.328  0.00  0.00    +0.019 A 
ATOM      8  C   UNL     1      -6.138   0.894   6.051  0.00  0.00    +0.008 A 
ATOM      9  C   UNL     1      -7.040  -0.041   5.654  0.00  0.00    +0.046 A 
ATOM     10  S   UNL     1      -6.254  -0.729   4.207  0.00  0.00    -0.094 S 
ENDBRANCH   4   6
BRANCH   1  11
ATOM     11  S   UNL     1      -1.700  -0.632   0.015  0.00  0.00    -0.073 S 
BRANCH  11  13
ATOM     12  C   UNL     1      -0.019   1.526   0.010  0.00  0.00    +0.029 C 
ATOM     13  C   UNL     1       0.002  -0.004   0.002  0.00  0.00    +0.137 C 
BRANCH  13  14
ATOM     14  C   UNL     1       0.707  -0.490  -1.238  0.00  0.00    +0.229 C 
ATOM     15  O   UNL     1       0.066  -0.782  -2.225  0.00  0.00    -0.274 OA
ATOM     16  N   UNL     1       2.051  -0.601  -1.250  0.00  0.00    -0.299 N 
ATOM     17  C   UNL     1       2.825  -0.248  -0.057  0.00  0.00    +0.132 C 
BRANCH  16  18
ATOM     18  C   UNL     1       2.736  -1.073  -2.455  0.00  0.00    +0.098 C 
ATOM     19  C   UNL     1       3.550  -2.336  -2.128  0.00  0.00    +0.046 C 
ATOM     20  C   UNL     1       4.520  -2.655  -3.291  0.00  0.00    +0.168 C 
ATOM     21  S   UNL     1       4.836  -0.996  -4.020  0.00  0.00    -0.029 S 
ATOM     22  O   UNL     1       4.349  -0.977  -5.355  0.00  0.00    -0.174 OA
ATOM     23  O   UNL     1       6.183  -0.626  -3.761  0.00  0.00    -0.174 OA
ATOM     24  C   UNL     1       3.721   0.020  -2.962  0.00  0.00    +0.188 C 
ENDBRANCH  16  18
ENDBRANCH  13  14
ENDBRANCH  11  13
ENDBRANCH   1  11
BRANCH   5  25
ATOM     25  C   UNL     1      -4.676  -1.071   1.389  0.00  0.00    +0.206 C 
BRANCH  25  26
ATOM     26  C   UNL     1      -5.021  -0.376   0.070  0.00  0.00    +0.017 C 
ATOM     27  C   UNL     1      -6.152  -1.135  -0.626  0.00  0.00    +0.010 C 
ATOM     28  C   UNL     1      -5.468   1.060   0.352  0.00  0.00    +0.010 C 
ENDBRANCH  25  26
BRANCH  25  29
ATOM     29  C   UNL     1      -4.235  -2.485   1.111  0.00  0.00    +0.379 C 
ATOM     30  O   UNL     1      -5.016  -3.409   1.265  0.00  0.00    -0.244 OA
ATOM     31  O   UNL     1      -3.097  -2.705   0.733  0.00  0.00    -0.244 OA
ENDBRANCH  25  29
ENDBRANCH   5  25
TORSDOF 8
