REMARK  Name = ZINC39699345
REMARK  11 active torsions:
REMARK  status: ('A' for Active; 'I' for Inactive)
REMARK    1  A    between atoms: C_1  and  C_2
REMARK    2  A    between atoms: C_2  and  O_3
REMARK    3  A    between atoms: O_3  and  C_4
REMARK    4  A    between atoms: C_11  and  C_16
REMARK    5  A    between atoms: C_16  and  C_18
REMARK    6  A    between atoms: C_16  and  N_28
REMARK    7  A    between atoms: N_23  and  C_24
REMARK    8  A    between atoms: C_24  and  C_25
REMARK    9  A    between atoms: C_24  and  C_26
REMARK   10  A    between atoms: C_24  and  C_27
REMARK   11  A    between atoms: N_31  and  C_34
REMARK                            x       y       z     vdW  Elec       q    Type
REMARK                         _______ _______ _______ _____ _____    ______ ____
ROOT
ATOM      1  C   UNL     1       1.567  -6.305   5.167  0.00  0.00    +0.115 C 
ENDROOT
BRANCH   1   9
ATOM      2  C   UNL     1       0.028  -1.279   2.626  0.00  0.00    +0.121 A 
ATOM      3  C   UNL     1      -0.836  -1.937   1.742  0.00  0.00    +0.047 A 
ATOM      4  C   UNL     1      -0.834  -3.285   1.585  0.00  0.00    +0.027 A 
ATOM      5  C   UNL     1       0.056  -4.091   2.321  0.00  0.00    +0.041 A 
ATOM      6  N   UNL     1       0.046  -5.413   2.157  0.00  0.00    -0.284 N 
ATOM      7  C   UNL     1       0.854  -6.229   2.814  0.00  0.00    +0.226 C 
ATOM      8  O   UNL     1       0.799  -7.429   2.622  0.00  0.00    -0.275 OA
ATOM      9  C   UNL     1       1.845  -5.663   3.806  0.00  0.00    +0.119 C 
ATOM     10  C   UNL     1       1.860  -4.159   3.997  0.00  0.00    -0.003 C 
ATOM     11  C   UNL     1       0.978  -3.427   3.259  0.00  0.00    -0.004 A 
ATOM     12  C   UNL     1       0.930  -1.970   3.377  0.00  0.00    +0.055 A 
ATOM     13  H   UNL     1      -0.582  -5.796   1.525  0.00  0.00    +0.155 HD
BRANCH   2  14
ATOM     14  O   UNL     1      -0.029   0.075   2.731  0.00  0.00    -0.492 OA
BRANCH  14  16
ATOM     15  C   UNL     1      -0.911   2.255   2.172  0.00  0.00    +0.048 C 
ATOM     16  C   UNL     1      -0.994   0.748   1.919  0.00  0.00    +0.225 C 
ENDBRANCH  14  16
ENDBRANCH   2  14
ENDBRANCH   1   9
BRANCH   1  17
ATOM     17  N   UNL     1       0.146  -6.142   5.503  0.00  0.00    -0.299 NA
ATOM     18  C   UNL     1      -0.677  -7.149   4.817  0.00  0.00    +0.066 C 
ATOM     19  C   UNL     1      -2.138  -6.983   5.239  0.00  0.00    -0.064 C 
ATOM     20  N   UNL     1      -2.598  -5.632   4.893  0.00  0.00    +0.379 N 
ATOM     21  C   UNL     1      -1.783  -4.638   5.604  0.00  0.00    -0.064 C 
ATOM     22  C   UNL     1      -0.318  -4.785   5.185  0.00  0.00    +0.066 C 
ATOM     23  C   UNL     1      -4.006  -5.479   5.282  0.00  0.00    -0.096 C 
ATOM     24  H   UNL     1      -2.507  -5.490   3.898  0.00  0.00    -0.082 HD
ENDBRANCH   1  17
BRANCH   1  25
ATOM     25  C   UNL     1       1.909  -7.795   5.107  0.00  0.00    +0.236 C 
ATOM     26  N   UNL     1       1.459  -8.474   6.330  0.00  0.00    -0.148 NA
ATOM     27  N   UNL     1       2.438  -8.955   6.903  0.00  0.00    -0.069 NA
ATOM     28  N   UNL     1       3.635  -8.710   6.230  0.00  0.00    -0.179 N 
ATOM     29  N   UNL     1       3.374  -7.988   5.092  0.00  0.00    -0.179 NA
ATOM     30  H   UNL     1       4.513  -9.005   6.519  0.00  0.00    +0.191 HD
BRANCH  29  31
ATOM     31  C   UNL     1       3.796  -8.721   3.891  0.00  0.00    +0.035 C 
ATOM     32  C   UNL     1       3.719  -7.797   2.675  0.00  0.00    +0.029 C 
ATOM     33  C   UNL     1       5.236  -9.209   4.071  0.00  0.00    +0.029 C 
ATOM     34  C   UNL     1       2.874  -9.923   3.678  0.00  0.00    +0.029 C 
ENDBRANCH  29  31
ENDBRANCH   1  25
TORSDOF 6
