REMARK  Name = ZINC34830390
REMARK  6 active torsions:
REMARK  status: ('A' for Active; 'I' for Inactive)
REMARK    1  A    between atoms: C_1  and  C_2
REMARK    2  A    between atoms: C_7  and  C_8
REMARK    3  A    between atoms: N_17  and  C_18
REMARK    4  A    between atoms: C_18  and  C_20
REMARK    5  A    between atoms: C_18  and  C_21
REMARK    6  A    between atoms: C_30  and  C_32
REMARK                            x       y       z     vdW  Elec       q    Type
REMARK                         _______ _______ _______ _____ _____    ______ ____
ROOT
ATOM      1  C   UNL     1      -0.276  -3.080   1.749  0.00  0.00    +0.018 C 
ATOM      2  C   UNL     1      -0.556  -4.203   0.748  0.00  0.00    -0.004 C 
ENDROOT
BRANCH   1   3
ATOM      3  C   UNL     1      -0.987  -3.373   3.045  0.00  0.00    +0.202 C 
ATOM      4  O   UNL     1      -0.359  -3.766   4.005  0.00  0.00    -0.277 OA
ATOM      5  N   UNL     1      -2.320  -3.198   3.137  0.00  0.00    -0.301 N 
ATOM      6  C   UNL     1      -3.003  -3.342   4.374  0.00  0.00    +0.109 C 
ATOM      7  C   UNL     1      -3.385  -4.814   4.740  0.00  0.00    +0.038 C 
ATOM      8  C   UNL     1      -3.810  -5.527   3.415  0.00  0.00    +0.109 C 
ATOM      9  N   UNL     1      -4.549  -4.712   2.515  0.00  0.00    -0.300 N 
ATOM     10  C   UNL     1      -3.788  -4.044   1.428  0.00  0.00    +0.126 C 
ATOM     11  C   UNL     1      -3.138  -2.840   1.950  0.00  0.00    +0.126 C 
ATOM     12  C   UNL     1      -5.882  -4.553   2.642  0.00  0.00    +0.219 C 
ATOM     13  O   UNL     1      -6.457  -5.005   3.609  0.00  0.00    -0.275 OA
BRANCH  12  14
ATOM     14  C   UNL     1      -6.657  -3.813   1.582  0.00  0.00    +0.075 C 
ATOM     15  C   UNL     1      -6.551  -2.307   1.832  0.00  0.00    +0.013 C 
ATOM     16  C   UNL     1      -7.338  -1.556   0.756  0.00  0.00    +0.001 C 
ATOM     17  C   UNL     1      -8.807  -1.980   0.808  0.00  0.00    +0.000 C 
ATOM     18  C   UNL     1      -8.912  -3.486   0.559  0.00  0.00    +0.001 C 
ATOM     19  C   UNL     1      -8.126  -4.237   1.635  0.00  0.00    +0.013 C 
ENDBRANCH  12  14
ENDBRANCH   1   3
BRANCH   1  28
ATOM     20  C   UNL     1       1.422  -2.005   3.050  0.00  0.00    -0.005 C 
ATOM     21  C   UNL     1       2.914  -1.994   3.369  0.00  0.00    -0.047 A 
ATOM     22  C   UNL     1       3.565  -0.947   4.017  0.00  0.00    +0.010 A 
ATOM     23  C   UNL     1       4.895  -1.022   4.257  0.00  0.00    +0.045 A 
ATOM     24  S   UNL     1       5.306  -2.617   3.563  0.00  0.00    -0.101 S 
ATOM     25  C   UNL     1       3.684  -3.060   3.011  0.00  0.00    -0.010 A 
ATOM     26  C   UNL     1       3.217  -4.297   2.315  0.00  0.00    +0.024 C 
ATOM     27  C   UNL     1       1.680  -4.314   2.381  0.00  0.00    -0.071 C 
ATOM     28  N   UNL     1       1.170  -2.992   1.993  0.00  0.00    +0.395 N 
ATOM     29  H   UNL     1       1.632  -2.695   1.146  0.00  0.00    -0.079 HD
BRANCH  20  36
ATOM     30  C   UNL     1       0.069  -0.209   4.863  0.00  0.00    +0.044 C 
ATOM     31  C   UNL     1       0.349   0.221   3.446  0.00  0.00    -0.049 A 
ATOM     32  C   UNL     1      -0.037   1.476   3.015  0.00  0.00    +0.003 A 
ATOM     33  C   UNL     1       0.220   1.870   1.715  0.00  0.00    +0.000 A 
ATOM     34  C   UNL     1       0.863   1.008   0.846  0.00  0.00    +0.000 A 
ATOM     35  C   UNL     1       1.249  -0.247   1.277  0.00  0.00    +0.002 A 
ATOM     36  C   UNL     1       0.996  -0.639   2.579  0.00  0.00    -0.054 A 
ENDBRANCH  20  36
ENDBRANCH   1  28
TORSDOF 4
