REMARK  Name = ZINC01375655
REMARK  16 active torsions:
REMARK  status: ('A' for Active; 'I' for Inactive)
REMARK    1  A    between atoms: C_1  and  C_2
REMARK    2  A    between atoms: C_2  and  C_3
REMARK    3  A    between atoms: C_3  and  C_5
REMARK    4  A    between atoms: C_3  and  N_16
REMARK    5  A    between atoms: N_9  and  C_10
REMARK    6  A    between atoms: C_10  and  C_11
REMARK    7  A    between atoms: C_11  and  O_13
REMARK    8  A    between atoms: O_13  and  C_14
REMARK    9  A    between atoms: C_14  and  C_15
REMARK   10  A    between atoms: N_16  and  C_17
REMARK   11  A    between atoms: N_16  and  C_25
REMARK   12  A    between atoms: C_17  and  C_18
REMARK   13  A    between atoms: C_21  and  C_24
REMARK   14  A    between atoms: C_25  and  C_26
REMARK   15  A    between atoms: C_29  and  C_39
REMARK   16  A    between atoms: C_32  and  C_38
REMARK                            x       y       z     vdW  Elec       q    Type
REMARK                         _______ _______ _______ _____ _____    ______ ____
ROOT
ATOM      1  N   UNL     1      -0.295  -0.357  -2.762  0.00  0.00    -0.284 NA
ENDROOT
BRANCH   1   2
ATOM      2  C   UNL     1       0.445  -1.255  -1.865  0.00  0.00    +0.127 C 
BRANCH   2   3
ATOM      3  C   UNL     1       0.259  -2.681  -2.317  0.00  0.00    +0.169 A 
ATOM      4  N   UNL     1      -0.866  -3.246  -2.681  0.00  0.00    -0.112 NA
ATOM      5  N   UNL     1      -0.614  -4.469  -2.997  0.00  0.00    -0.023 NA
ATOM      6  N   UNL     1       0.643  -4.699  -2.843  0.00  0.00    -0.043 NA
ATOM      7  N   UNL     1       1.217  -3.620  -2.430  0.00  0.00    -0.217 N 
BRANCH   7   8
ATOM      8  C   UNL     1       2.642  -3.449  -2.136  0.00  0.00    +0.267 C 
BRANCH   8   9
ATOM      9  C   UNL     1       2.900  -3.786  -0.690  0.00  0.00    +0.329 C 
ATOM     10  O   UNL     1       1.988  -4.134   0.022  0.00  0.00    -0.249 OA
BRANCH   9  11
ATOM     11  O   UNL     1       4.144  -3.701  -0.193  0.00  0.00    -0.464 OA
BRANCH  11  12
ATOM     12  C   UNL     1       4.317  -4.036   1.185  0.00  0.00    +0.229 C 
ATOM     13  C   UNL     1       5.790  -3.880   1.568  0.00  0.00    +0.048 C 
ENDBRANCH  11  12
ENDBRANCH   9  11
ENDBRANCH   8   9
ENDBRANCH   7   8
ENDBRANCH   2   3
BRANCH   2  15
ATOM     14  C   UNL     1       0.160   0.333   0.042  0.00  0.00    +0.006 C 
ATOM     15  C   UNL     1      -0.083  -1.099  -0.438  0.00  0.00    +0.023 C 
ENDBRANCH   2  15
ENDBRANCH   1   2
BRANCH   1  16
ATOM     16  C   UNL     1      -1.724  -0.334  -2.422  0.00  0.00    +0.120 C 
BRANCH  16  17
ATOM     17  C   UNL     1      -2.506   0.243  -3.574  0.00  0.00    -0.033 A 
ATOM     18  C   UNL     1      -2.845   1.583  -3.577  0.00  0.00    +0.005 A 
ATOM     19  C   UNL     1      -3.562   2.111  -4.634  0.00  0.00    +0.003 A 
ATOM     20  C   UNL     1      -3.939   1.300  -5.688  0.00  0.00    -0.050 A 
ATOM     21  C   UNL     1      -3.598  -0.039  -5.686  0.00  0.00    +0.003 A 
ATOM     22  C   UNL     1      -2.877  -0.567  -4.631  0.00  0.00    +0.005 A 
ATOM     23  C   UNL     1      -4.721   1.877  -6.840  0.00  0.00    +0.044 C 
ENDBRANCH  16  17
ENDBRANCH   1  16
BRANCH   1  24
ATOM     24  C   UNL     1       0.274   0.997  -2.737  0.00  0.00    +0.126 C 
BRANCH  24  25
ATOM     25  C   UNL     1       1.535   1.027  -3.562  0.00  0.00    +0.032 A 
ATOM     26  C   UNL     1       1.477   1.377  -4.871  0.00  0.00    +0.020 A 
ATOM     27  C   UNL     1       2.720   1.396  -5.645  0.00  0.00    +0.002 A 
ATOM     28  C   UNL     1       2.724   1.749  -6.999  0.00  0.00    -0.041 A 
ATOM     29  C   UNL     1       3.901   1.758  -7.692  0.00  0.00    +0.004 A 
ATOM     30  C   UNL     1       5.093   1.420  -7.066  0.00  0.00    +0.005 A 
ATOM     31  C   UNL     1       5.113   1.069  -5.733  0.00  0.00    -0.026 A 
ATOM     32  C   UNL     1       3.927   1.054  -5.006  0.00  0.00    +0.052 A 
ATOM     33  N   UNL     1       3.917   0.707  -3.672  0.00  0.00    -0.322 N 
ATOM     34  H   UNL     1       4.750   0.471  -3.233  0.00  0.00    +0.169 HD
ATOM     35  C   UNL     1       2.772   0.697  -2.968  0.00  0.00    +0.254 A 
ATOM     36  O   UNL     1       2.801   0.391  -1.789  0.00  0.00    -0.268 OA
ATOM     37  C   UNL     1       6.414   0.703  -5.066  0.00  0.00    +0.046 C 
ATOM     38  C   UNL     1       1.436   2.117  -7.689  0.00  0.00    +0.044 C 
ENDBRANCH  24  25
ENDBRANCH   1  24
TORSDOF 11
