REMARK  Name = ZINC12750212
REMARK  8 active torsions:
REMARK  status: ('A' for Active; 'I' for Inactive)
REMARK    1  A    between atoms: C_1  and  C_2
REMARK    2  A    between atoms: C_2  and  C_3
REMARK    3  A    between atoms: C_13  and  C_15
REMARK    4  A    between atoms: C_18  and  N_22
REMARK    5  A    between atoms: C_20  and  O_21
REMARK    6  A    between atoms: N_22  and  S_23
REMARK    7  A    between atoms: S_23  and  C_26
REMARK    8  A    between atoms: C_30  and  N_32
REMARK                            x       y       z     vdW  Elec       q    Type
REMARK                         _______ _______ _______ _____ _____    ______ ____
ROOT
ATOM      1  C   UNL     1      -1.719   0.771   3.583  0.00  0.00    +0.078 A 
ATOM      2  C   UNL     1      -1.628   2.152   3.788  0.00  0.00    +0.018 A 
ATOM      3  C   UNL     1      -2.218   2.722   4.879  0.00  0.00    +0.025 A 
ATOM      4  C   UNL     1      -2.904   1.934   5.801  0.00  0.00    +0.052 A 
ATOM      5  C   UNL     1      -2.998   0.560   5.615  0.00  0.00    +0.070 A 
ATOM      6  C   UNL     1      -2.409  -0.027   4.509  0.00  0.00    +0.131 A 
ENDROOT
BRANCH   1  16
ATOM      7  C   UNL     1      -1.706   2.122   1.085  0.00  0.00    +0.107 C 
ATOM      8  C   UNL     1      -2.739   2.141  -0.041  0.00  0.00    -0.017 A 
ATOM      9  C   UNL     1      -3.615   3.204  -0.256  0.00  0.00    +0.013 A 
ATOM     10  C   UNL     1      -4.501   3.154  -1.277  0.00  0.00    +0.046 A 
ATOM     11  S   UNL     1      -4.136   1.563  -2.003  0.00  0.00    -0.101 S 
ATOM     12  C   UNL     1      -2.835   1.087  -0.896  0.00  0.00    -0.004 A 
ATOM     13  C   UNL     1      -2.034  -0.174  -0.893  0.00  0.00    +0.062 C 
ATOM     14  C   UNL     1      -0.786   0.038  -0.022  0.00  0.00    +0.114 C 
ATOM     15  N   UNL     1      -1.190   0.751   1.198  0.00  0.00    -0.290 N 
ATOM     16  C   UNL     1      -1.088   0.156   2.403  0.00  0.00    +0.251 C 
ATOM     17  O   UNL     1      -0.476  -0.888   2.516  0.00  0.00    -0.270 OA
BRANCH   7  19
ATOM     18  C   UNL     1       0.413   3.137   1.933  0.00  0.00    +0.006 C 
ATOM     19  C   UNL     1      -0.562   3.083   0.756  0.00  0.00    +0.024 C 
ENDBRANCH   7  19
ENDBRANCH   1  16
BRANCH   6  20
ATOM     20  O   UNL     1      -2.497  -1.368   4.321  0.00  0.00    -0.506 OA
ATOM     21  H   UNL     1      -1.776  -1.870   4.724  0.00  0.00    +0.292 HD
ENDBRANCH   6  20
BRANCH   4  22
ATOM     22  N   UNL     1      -3.495   2.524   6.913  0.00  0.00    -0.216 N 
ATOM     23  H   UNL     1      -4.402   2.288   7.163  0.00  0.00    +0.174 HD
BRANCH  22  24
ATOM     24  S   UNL     1      -2.651   3.631   7.810  0.00  0.00    +0.072 S 
ATOM     25  O   UNL     1      -2.172   4.611   6.900  0.00  0.00    -0.150 OA
ATOM     26  O   UNL     1      -3.471   3.961   8.923  0.00  0.00    -0.150 OA
BRANCH  24  27
ATOM     27  C   UNL     1      -1.234   2.807   8.456  0.00  0.00    +0.111 A 
ATOM     28  C   UNL     1      -0.025   2.887   7.790  0.00  0.00    +0.029 A 
ATOM     29  C   UNL     1       1.087   2.241   8.296  0.00  0.00    +0.004 A 
ATOM     30  C   UNL     1       0.990   1.514   9.469  0.00  0.00    +0.033 A 
ATOM     31  C   UNL     1      -0.219   1.434  10.134  0.00  0.00    +0.128 A 
ATOM     32  C   UNL     1      -1.330   2.085   9.630  0.00  0.00    +0.061 A 
BRANCH  31  33
ATOM     33  N   UNL     1      -0.323   0.656  11.389  0.00  0.00    +0.056 N 
ATOM     34  O   UNL     1       0.657   0.087  11.836  0.00  0.00    -0.126 OA
ATOM     35  O   UNL     1      -1.388   0.586  11.976  0.00  0.00    -0.126 OA
ENDBRANCH  31  33
ENDBRANCH  24  27
ENDBRANCH  22  24
ENDBRANCH   4  22
TORSDOF 7
