REMARK  Name = ZINC57343111
REMARK  3 active torsions:
REMARK  status: ('A' for Active; 'I' for Inactive)
REMARK    1  A    between atoms: C_3  and  O_19
REMARK    2  A    between atoms: C_6  and  N_7
REMARK    3  A    between atoms: O_19  and  C_20
REMARK                            x       y       z     vdW  Elec       q    Type
REMARK                         _______ _______ _______ _____ _____    ______ ____
ROOT
ATOM      1  N   UNL     1      -1.201  -0.721   0.010  0.00  0.00    -0.285 N 
ATOM      2  C   UNL     1      -1.185  -2.087  -0.101  0.00  0.00    +0.200 A 
ATOM      3  N   UNL     1      -0.034  -2.723  -0.110  0.00  0.00    -0.220 NA
ATOM      4  C   UNL     1       0.037  -4.056  -0.211  0.00  0.00    +0.053 A 
ATOM      5  C   UNL     1      -1.105  -4.783  -0.306  0.00  0.00    +0.038 A 
ATOM      6  C   UNL     1      -2.345  -4.109  -0.305  0.00  0.00    +0.256 A 
ATOM      7  N   UNL     1      -2.362  -2.765  -0.195  0.00  0.00    -0.295 N 
ATOM      8  O   UNL     1      -3.389  -4.734  -0.400  0.00  0.00    -0.267 OA
ATOM      9  C   UNL     1      -1.116  -6.284  -0.403  0.00  0.00    +0.042 C 
ATOM     10  C   UNL     1       0.259  -6.805  -0.819  0.00  0.00    +0.005 C 
ATOM     11  C   UNL     1       1.312  -6.176   0.102  0.00  0.00    +0.006 C 
ATOM     12  C   UNL     1       1.405  -4.686  -0.220  0.00  0.00    +0.056 C 
ATOM     13  H   UNL     1      -2.045  -0.252   0.100  0.00  0.00    +0.155 HD
ATOM     14  H   UNL     1      -3.205  -2.286  -0.186  0.00  0.00    +0.172 HD
ENDROOT
BRANCH   1  20
ATOM     15  C   UNL     1       1.067  -0.451  -0.775  0.00  0.00    +0.027 A 
ATOM     16  C   UNL     1       2.253   0.257  -0.791  0.00  0.00    +0.048 A 
ATOM     17  C   UNL     1       2.379   1.416  -0.038  0.00  0.00    +0.130 A 
ATOM     18  C   UNL     1       1.315   1.863   0.731  0.00  0.00    +0.048 A 
ATOM     19  C   UNL     1       0.129   1.156   0.748  0.00  0.00    +0.027 A 
ATOM     20  C   UNL     1       0.002  -0.003  -0.006  0.00  0.00    +0.034 A 
BRANCH  17  21
ATOM     21  O   UNL     1       3.546   2.113  -0.054  0.00  0.00    -0.406 OA
BRANCH  21  22
ATOM     22  C   UNL     1       3.606   3.297   0.744  0.00  0.00    +0.575 C 
ATOM     23  F   UNL     1       3.384   2.966   2.086  0.00  0.00    -0.133 F 
ATOM     24  F   UNL     1       4.868   3.885   0.612  0.00  0.00    -0.133 F 
ATOM     25  F   UNL     1       2.624   4.197   0.317  0.00  0.00    -0.133 F 
ENDBRANCH  21  22
ENDBRANCH  17  21
ENDBRANCH   1  20
TORSDOF 3
