REMARK  Name = ZINC23590945
REMARK  5 active torsions:
REMARK  status: ('A' for Active; 'I' for Inactive)
REMARK    1  A    between atoms: C_1  and  C_2
REMARK    2  A    between atoms: C_11  and  N_26
REMARK    3  A    between atoms: C_13  and  S_15
REMARK    4  A    between atoms: S_15  and  C_16
REMARK    5  A    between atoms: C_16  and  C_17
REMARK                            x       y       z     vdW  Elec       q    Type
REMARK                         _______ _______ _______ _____ _____    ______ ____
ROOT
ATOM      1  C   UNL     1      -1.243  -0.754  -0.606  0.00  0.00    +0.008 C 
ATOM      2  C   UNL     1       0.165  -0.165  -0.721  0.00  0.00    -0.009 C 
ATOM      3  C   UNL     1       1.021  -0.638   0.458  0.00  0.00    +0.008 C 
ATOM      4  C   UNL     1       2.484  -0.262   0.219  0.00  0.00    +0.037 C 
ATOM      5  C   UNL     1       2.567   1.230  -0.094  0.00  0.00    -0.025 A 
ATOM      6  C   UNL     1       1.469   1.910  -0.494  0.00  0.00    -0.004 A 
ATOM      7  S   UNL     1       2.018   3.580  -0.741  0.00  0.00    -0.073 S 
ATOM      8  C   UNL     1       3.715   3.367  -0.311  0.00  0.00    +0.115 A 
ATOM      9  C   UNL     1       3.802   1.990   0.015  0.00  0.00    +0.051 A 
ATOM     10  C   UNL     1       5.080   1.499   0.412  0.00  0.00    +0.129 A 
ATOM     11  N   UNL     1       6.065   2.393   0.436  0.00  0.00    -0.207 NA
ATOM     12  C   UNL     1       5.913   3.670   0.117  0.00  0.00    +0.191 A 
ATOM     13  N   UNL     1       4.743   4.190  -0.262  0.00  0.00    -0.214 NA
ATOM     14  C   UNL     1       0.086   1.367  -0.687  0.00  0.00    +0.046 C 
ENDROOT
BRANCH  10  15
ATOM     15  N   UNL     1       5.283   0.174   0.753  0.00  0.00    -0.343 N 
ATOM     16  H   UNL     1       6.284  -0.169   1.055  0.00  0.00    +0.144 HD
ATOM     17  H   UNL     1       4.444  -0.536   0.723  0.00  0.00    +0.144 HD
ENDBRANCH  10  15
BRANCH  12  18
ATOM     18  S   UNL     1       7.318   4.729   0.197  0.00  0.00    -0.077 S 
BRANCH  18  19
ATOM     19  C   UNL     1       8.574   3.546   0.743  0.00  0.00    +0.173 C 
BRANCH  19  20
ATOM     20  C   UNL     1       9.899   4.249   0.885  0.00  0.00    +0.226 C 
ATOM     21  O   UNL     1       9.986   5.434   0.641  0.00  0.00    -0.275 OA
ATOM     22  N   UNL     1      10.988   3.562   1.283  0.00  0.00    -0.301 N 
ATOM     23  C   UNL     1      10.849   2.152   1.572  0.00  0.00    +0.108 C 
ATOM     24  C   UNL     1      10.470   1.954   3.055  0.00  0.00    +0.019 C 
ATOM     25  C   UNL     1      11.617   2.268   3.921  0.00  0.00    +0.002 C 
ATOM     26  C   UNL     1      12.087   3.718   3.840  0.00  0.00    +0.002 C 
ATOM     27  C   UNL     1      13.041   3.870   2.680  0.00  0.00    +0.019 C 
ATOM     28  C   UNL     1      12.270   4.280   1.412  0.00  0.00    +0.108 C 
ENDBRANCH  19  20
ENDBRANCH  18  19
ENDBRANCH  12  18
TORSDOF 4
