REMARK  Name = ZINC35523027
REMARK  6 active torsions:
REMARK  status: ('A' for Active; 'I' for Inactive)
REMARK    1  A    between atoms: C_5  and  C_7
REMARK    2  A    between atoms: N_16  and  C_17
REMARK    3  A    between atoms: C_17  and  C_18
REMARK    4  A    between atoms: N_20  and  C_21
REMARK    5  A    between atoms: C_21  and  C_22
REMARK    6  A    between atoms: C_22  and  C_23
REMARK                            x       y       z     vdW  Elec       q    Type
REMARK                         _______ _______ _______ _____ _____    ______ ____
ROOT
ATOM      1  C   UNL     1       1.229  -2.186  -0.022  0.00  0.00    +0.012 C 
ATOM      2  C   UNL     1       1.358  -2.702   1.390  0.00  0.00    +0.009 A 
ATOM      3  C   UNL     1       2.168  -2.262   2.365  0.00  0.00    +0.021 A 
ATOM      4  C   UNL     1       1.922  -3.057   3.505  0.00  0.00    +0.019 A 
ATOM      5  C   UNL     1       0.968  -3.954   3.177  0.00  0.00    +0.086 A 
ATOM      6  N   UNL     1       0.619  -3.746   1.883  0.00  0.00    -0.353 N 
ATOM      7  C   UNL     1      -0.368  -4.477   1.079  0.00  0.00    +0.103 C 
ATOM      8  C   UNL     1      -0.110  -4.153  -0.399  0.00  0.00    -0.055 C 
ATOM      9  N   UNL     1      -0.033  -2.697  -0.584  0.00  0.00    +0.395 N 
ATOM     10  H   UNL     1      -0.811  -2.257  -0.115  0.00  0.00    -0.080 HD
ENDROOT
BRANCH   1  15
ATOM     11  C   UNL     1      -0.017   1.378   0.010  0.00  0.00    +0.000 A 
ATOM     12  C   UNL     1       1.171   2.086   0.002  0.00  0.00    +0.001 A 
ATOM     13  C   UNL     1       2.377   1.412  -0.013  0.00  0.00    +0.020 A 
ATOM     14  C   UNL     1       2.397   0.029  -0.021  0.00  0.00    +0.043 A 
ATOM     15  C   UNL     1       1.208  -0.679  -0.013  0.00  0.00    -0.037 A 
ATOM     16  C   UNL     1       0.002  -0.004   0.002  0.00  0.00    +0.004 A 
ATOM     17 CL   UNL     1       3.912  -0.818  -0.041  0.00  0.00    -0.083 Cl
ENDBRANCH   1  15
BRANCH   9  18
ATOM     18  C   UNL     1      -0.090  -2.384  -2.018  0.00  0.00    +0.020 C 
BRANCH  18  19
ATOM     19  C   UNL     1      -1.431  -2.795  -2.570  0.00  0.00    +0.197 C 
ATOM     20  O   UNL     1      -2.258  -3.300  -1.840  0.00  0.00    -0.278 OA
ATOM     21  N   UNL     1      -1.711  -2.603  -3.874  0.00  0.00    -0.317 N 
ATOM     22  H   UNL     1      -1.050  -2.199  -4.457  0.00  0.00    +0.149 HD
BRANCH  21  23
ATOM     23  C   UNL     1      -3.015  -3.003  -4.409  0.00  0.00    +0.109 C 
BRANCH  23  24
ATOM     24  C   UNL     1      -3.074  -2.676  -5.903  0.00  0.00    +0.055 C 
BRANCH  24  25
ATOM     25  C   UNL     1      -4.415  -3.088  -6.454  0.00  0.00    -0.027 A 
ATOM     26  C   UNL     1      -4.566  -4.326  -7.050  0.00  0.00    +0.006 A 
ATOM     27  C   UNL     1      -5.796  -4.705  -7.556  0.00  0.00    +0.020 A 
ATOM     28  C   UNL     1      -6.876  -3.844  -7.466  0.00  0.00    +0.042 A 
ATOM     29  C   UNL     1      -6.725  -2.605  -6.869  0.00  0.00    +0.040 A 
ATOM     30  C   UNL     1      -5.495  -2.229  -6.359  0.00  0.00    +0.046 A 
ATOM     31 CL   UNL     1      -5.306  -0.677  -5.605  0.00  0.00    -0.083 Cl
ATOM     32 CL   UNL     1      -8.420  -4.319  -8.101  0.00  0.00    -0.083 Cl
ENDBRANCH  24  25
ENDBRANCH  23  24
ENDBRANCH  21  23
ENDBRANCH  18  19
ENDBRANCH   9  18
TORSDOF 6
