REMARK  Name = ZINC32635228
REMARK  5 active torsions:
REMARK  status: ('A' for Active; 'I' for Inactive)
REMARK    1  A    between atoms: C_1  and  C_2
REMARK    2  A    between atoms: C_6  and  C_29
REMARK    3  A    between atoms: C_7  and  N_8
REMARK    4  A    between atoms: N_20  and  C_21
REMARK    5  A    between atoms: C_21  and  C_23
REMARK                            x       y       z     vdW  Elec       q    Type
REMARK                         _______ _______ _______ _____ _____    ______ ____
ROOT
ATOM      1  N   UNL     1       6.066   1.669  -0.046  0.00  0.00    -0.275 N 
ATOM      2  C   UNL     1       7.139   0.736   0.226  0.00  0.00    +0.116 C 
ATOM      3  C   UNL     1       8.573   1.079  -0.200  0.00  0.00    +0.190 C 
ATOM      4  S   UNL     1       9.318  -0.614  -0.290  0.00  0.00    -0.028 S 
ATOM      5  O   UNL     1       9.832  -0.826  -1.598  0.00  0.00    -0.174 OA
ATOM      6  O   UNL     1      10.164  -0.810   0.835  0.00  0.00    -0.174 OA
ATOM      7  C   UNL     1       7.775  -1.627  -0.074  0.00  0.00    +0.182 C 
ATOM      8  C   UNL     1       6.793  -0.584  -0.557  0.00  0.00    +0.097 C 
ATOM      9  S   UNL     1       5.059  -0.662  -0.041  0.00  0.00    -0.086 S 
ATOM     10  C   UNL     1       4.787   1.119  -0.037  0.00  0.00    +0.154 C 
ATOM     11  N   UNL     1       3.628   1.762  -0.023  0.00  0.00    -0.155 NA
ENDROOT
BRANCH   1  18
ATOM     12  C   UNL     1       6.496   2.478  -2.740  0.00  0.00    +0.046 C 
ATOM     13  C   UNL     1       6.512   3.463  -1.600  0.00  0.00    -0.028 A 
ATOM     14  C   UNL     1       6.735   4.803  -1.848  0.00  0.00    +0.020 A 
ATOM     15  C   UNL     1       6.756   5.708  -0.801  0.00  0.00    +0.018 A 
ATOM     16  C   UNL     1       6.548   5.273   0.496  0.00  0.00    +0.020 A 
ATOM     17  C   UNL     1       6.320   3.935   0.749  0.00  0.00    -0.028 A 
ATOM     18  C   UNL     1       6.298   3.025  -0.300  0.00  0.00    +0.042 A 
ATOM     19  C   UNL     1       6.093   3.463   2.162  0.00  0.00    +0.046 C 
ATOM     20 BR   UNL     1       7.070   7.541  -1.144  0.00  0.00    -0.050 Br
ENDBRANCH   1  18
BRANCH  11  21
ATOM     21  C   UNL     1       2.480   1.073  -0.015  0.00  0.00    +0.269 C 
ATOM     22  O   UNL     1       2.501  -0.145  -0.022  0.00  0.00    -0.268 OA
BRANCH  21  23
ATOM     23  C   UNL     1       1.185   1.791   0.000  0.00  0.00    +0.039 A 
ATOM     24  C   UNL     1      -0.013   1.076   0.008  0.00  0.00    +0.013 A 
ATOM     25  C   UNL     1      -1.216   1.751   0.017  0.00  0.00    +0.001 A 
ATOM     26  C   UNL     1      -1.236   3.134   0.031  0.00  0.00    +0.000 A 
ATOM     27  C   UNL     1      -0.052   3.849   0.023  0.00  0.00    +0.001 A 
ATOM     28  C   UNL     1       1.158   3.186   0.008  0.00  0.00    +0.013 A 
ENDBRANCH  21  23
ENDBRANCH  11  21
TORSDOF 3
