REMARK  Name = ZINC38599002
REMARK  5 active torsions:
REMARK  status: ('A' for Active; 'I' for Inactive)
REMARK    1  A    between atoms: C_3  and  C_7
REMARK    2  A    between atoms: C_10  and  N_21
REMARK    3  A    between atoms: C_14  and  C_16
REMARK    4  A    between atoms: N_21  and  C_22
REMARK    5  A    between atoms: C_22  and  C_23
REMARK                            x       y       z     vdW  Elec       q    Type
REMARK                         _______ _______ _______ _____ _____    ______ ____
ROOT
ATOM      1  C   UNL     1       3.696   2.049  -0.023  0.00  0.00    +0.171 C 
ATOM      2  N   UNL     1       4.705   1.266  -0.788  0.00  0.00    -0.292 NA
ATOM      3  C   UNL     1       5.649   2.315  -1.246  0.00  0.00    +0.106 C 
ATOM      4  N   UNL     1       4.903   3.583  -1.203  0.00  0.00    -0.231 N 
ATOM      5  N   UNL     1       3.616   3.316  -0.793  0.00  0.00    -0.217 NA
ATOM      6  C   UNL     1       5.396   4.799  -1.507  0.00  0.00    +0.266 C 
ATOM      7  O   UNL     1       6.556   4.916  -1.855  0.00  0.00    -0.268 OA
ATOM      8  H   UNL     1       5.170   0.596  -0.193  0.00  0.00    +0.124 HD
ATOM      9  H   UNL     1       3.252   4.064  -0.222  0.00  0.00    +0.147 HD
ENDROOT
BRANCH   1  12
ATOM     10  C   UNL     1      -0.017   1.378   0.010  0.00  0.00    +0.020 A 
ATOM     11  C   UNL     1       1.185   2.070   0.002  0.00  0.00    +0.009 A 
ATOM     12  C   UNL     1       2.365   1.343  -0.013  0.00  0.00    +0.003 A 
ATOM     13  C   UNL     1       2.305  -0.038  -0.020  0.00  0.00    +0.117 A 
ATOM     14  N   UNL     1       1.144  -0.663  -0.013  0.00  0.00    -0.263 NA
ATOM     15  C   UNL     1       0.002  -0.004   0.002  0.00  0.00    +0.111 A 
ENDBRANCH   1  12
BRANCH   6  16
ATOM     16  C   UNL     1       4.534   5.982  -1.419  0.00  0.00    +0.075 A 
ATOM     17  C   UNL     1       4.839   7.307  -1.690  0.00  0.00    +0.021 A 
ATOM     18  C   UNL     1       3.812   8.204  -1.515  0.00  0.00    +0.008 A 
ATOM     19  C   UNL     1       2.604   7.749  -1.100  0.00  0.00    +0.046 A 
ATOM     20  S   UNL     1       2.820   6.091  -0.943  0.00  0.00    -0.092 S 
ENDBRANCH   6  16
BRANCH   3  21
ATOM     21  N   UNL     1       6.809   2.378  -0.348  0.00  0.00    +0.403 N 
ATOM     22  H   UNL     1       7.391   3.162  -0.605  0.00  0.00    -0.081 HD
ATOM     23  H   UNL     1       6.492   2.492   0.603  0.00  0.00    -0.081 HD
BRANCH  21  24
ATOM     24  C   UNL     1       7.585   1.136  -0.461  0.00  0.00    -0.042 C 
BRANCH  24  25
ATOM     25  C   UNL     1       8.775   1.201   0.461  0.00  0.00    -0.064 C 
ATOM     26  C   UNL     1       8.702   0.652   1.711  0.00  0.00    +0.007 C 
ATOM     27  C   UNL     1       9.889   0.718   2.463  0.00  0.00    -0.018 C 
ATOM     28  C   UNL     1      10.134   0.809   3.780  0.00  0.00    +0.025 C 
ATOM     29  C   UNL     1      11.492   1.143   3.982  0.00  0.00    +0.106 C 
ATOM     30  N   UNL     1      12.165   1.151   2.867  0.00  0.00    -0.279 NA
ATOM     31  C   UNL     1      11.258   0.744   1.804  0.00  0.00    +0.158 C 
ATOM     32  C   UNL     1      11.180   1.681   0.636  0.00  0.00    +0.004 C 
ATOM     33  C   UNL     1      10.007   1.845   0.016  0.00  0.00    -0.000 C 
ENDBRANCH  24  25
ENDBRANCH  21  24
ENDBRANCH   3  21
TORSDOF 5
