REMARK  Name = ZINC13726983
REMARK  12 active torsions:
REMARK  status: ('A' for Active; 'I' for Inactive)
REMARK    1  A    between atoms: C_1  and  C_2
REMARK    2  A    between atoms: C_3  and  C_21
REMARK    3  A    between atoms: C_9  and  O_19
REMARK    4  A    between atoms: C_15  and  C_17
REMARK    5  A    between atoms: C_15  and  C_18
REMARK    6  A    between atoms: O_19  and  C_20
REMARK    7  A    between atoms: C_21  and  C_22
REMARK    8  A    between atoms: N_24  and  C_25
REMARK    9  A    between atoms: C_27  and  C_32
REMARK   10  A    between atoms: C_27  and  C_33
REMARK   11  A    between atoms: C_28  and  C_30
REMARK   12  A    between atoms: C_28  and  C_31
REMARK                            x       y       z     vdW  Elec       q    Type
REMARK                         _______ _______ _______ _____ _____    ______ ____
ROOT
ATOM      1  C   UNL     1      -2.539  -0.042   0.020  0.00  0.00    +0.045 C 
ATOM      2  C   UNL     1      -1.206  -0.746   0.008  0.00  0.00    -0.026 A 
ATOM      3  C   UNL     1      -1.140  -2.103   0.045  0.00  0.00    +0.049 A 
ATOM      4  C   UNL     1       0.114  -2.744   0.032  0.00  0.00    +0.341 A 
ATOM      5  O   UNL     1       0.165  -3.961   0.067  0.00  0.00    -0.245 OA
ATOM      6  O   UNL     1       1.255  -2.036  -0.017  0.00  0.00    -0.421 OA
ATOM      7  C   UNL     1       1.232  -0.685  -0.055  0.00  0.00    +0.149 A 
ATOM      8  C   UNL     1       0.001  -0.005  -0.043  0.00  0.00    +0.063 A 
ATOM      9  C   UNL     1      -0.018   1.401  -0.081  0.00  0.00    +0.134 A 
ATOM     10  C   UNL     1       1.172   2.095  -0.132  0.00  0.00    +0.092 A 
ATOM     11  C   UNL     1       2.391   1.416  -0.147  0.00  0.00    +0.131 A 
ATOM     12  C   UNL     1       2.420   0.033  -0.106  0.00  0.00    +0.038 A 
ATOM     13  C   UNL     1       3.722  -0.727  -0.113  0.00  0.00    +0.046 C 
ATOM     14  C   UNL     1       4.850   0.184  -0.604  0.00  0.00    +0.052 C 
ATOM     15  C   UNL     1       4.758   1.514   0.155  0.00  0.00    +0.105 C 
ATOM     16  O   UNL     1       3.531   2.152  -0.204  0.00  0.00    -0.486 OA
ATOM     17  C   UNL     1       4.780   1.251   1.662  0.00  0.00    +0.055 C 
ATOM     18  C   UNL     1       5.936   2.410  -0.230  0.00  0.00    +0.055 C 
ENDROOT
BRANCH   9  19
ATOM     19  O   UNL     1      -1.200   2.068  -0.073  0.00  0.00    -0.494 OA
ATOM     20  C   UNL     1      -1.139   3.495  -0.113  0.00  0.00    +0.277 C 
ENDBRANCH   9  19
BRANCH   3  21
ATOM     21  C   UNL     1      -2.406  -2.919   0.099  0.00  0.00    +0.138 C 
BRANCH  21  22
ATOM     22  C   UNL     1      -2.793  -3.151   1.537  0.00  0.00    +0.218 C 
ATOM     23  O   UNL     1      -2.108  -2.697   2.430  0.00  0.00    -0.275 OA
ATOM     24  N   UNL     1      -3.900  -3.862   1.831  0.00  0.00    -0.312 N 
ATOM     25  H   UNL     1      -4.447  -4.224   1.117  0.00  0.00    +0.149 HD
BRANCH  24  26
ATOM     26  C   UNL     1      -4.277  -4.087   3.232  0.00  0.00    +0.070 C 
ATOM     27  C   UNL     1      -3.553  -5.328   3.755  0.00  0.00    +0.009 C 
ATOM     28  C   UNL     1      -3.944  -5.601   5.205  0.00  0.00    -0.072 C 
ATOM     29  C   UNL     1      -6.200  -4.592   4.760  0.00  0.00    -0.072 C 
ATOM     30  C   UNL     1      -5.783  -4.333   3.314  0.00  0.00    +0.009 C 
ATOM     31  C   UNL     1      -6.201  -3.270   5.538  0.00  0.00    -0.010 C 
ATOM     32  C   UNL     1      -7.656  -5.110   4.738  0.00  0.00    -0.010 C 
ATOM     33  C   UNL     1      -3.237  -4.597   6.124  0.00  0.00    -0.010 C 
ATOM     34  C   UNL     1      -3.418  -7.006   5.572  0.00  0.00    -0.010 C 
ATOM     35  N   UNL     1      -5.409  -5.637   5.463  0.00  0.00    +0.386 N 
ATOM     36  H   UNL     1      -5.557  -5.522   6.473  0.00  0.00    -0.084 HD
ATOM     37  H   UNL     1      -5.761  -6.555   5.167  0.00  0.00    -0.084 HD
ENDBRANCH  24  26
ENDBRANCH  21  22
ENDBRANCH   3  21
TORSDOF 4
