REMARK  Name = ZINC45190934
REMARK  11 active torsions:
REMARK  status: ('A' for Active; 'I' for Inactive)
REMARK    1  A    between atoms: C_1  and  C_2
REMARK    2  A    between atoms: C_2  and  C_3
REMARK    3  A    between atoms: C_3  and  N_4
REMARK    4  A    between atoms: N_4  and  C_5
REMARK    5  A    between atoms: C_5  and  C_6
REMARK    6  A    between atoms: C_9  and  C_12
REMARK    7  A    between atoms: C_15  and  C_18
REMARK    8  A    between atoms: C_18  and  N_19
REMARK    9  A    between atoms: N_19  and  C_20
REMARK   10  A    between atoms: C_20  and  C_21
REMARK   11  A    between atoms: C_27  and  C_29
REMARK                            x       y       z     vdW  Elec       q    Type
REMARK                         _______ _______ _______ _____ _____    ______ ____
ROOT
ATOM      1  C   UNL     1      -2.657 -12.495   0.292  0.00  0.00    +0.143 C 
ENDROOT
BRANCH   1   5
ATOM      2  C   UNL     1      -2.714  -8.222   0.132  0.00  0.00    +0.000 A 
ATOM      3  C   UNL     1      -2.704  -8.966  -1.047  0.00  0.00    +0.010 A 
ATOM      4  C   UNL     1      -2.685 -10.345  -0.989  0.00  0.00    +0.006 A 
ATOM      5  C   UNL     1      -2.676 -10.989   0.236  0.00  0.00    -0.030 A 
ATOM      6  C   UNL     1      -2.686 -10.255   1.408  0.00  0.00    +0.006 A 
ATOM      7  C   UNL     1      -2.699  -8.876   1.363  0.00  0.00    +0.010 A 
BRANCH   2  11
ATOM      8  C   UNL     1      -2.771  -4.018   0.007  0.00  0.00    -0.046 A 
ATOM      9  C   UNL     1      -2.767  -4.712  -1.195  0.00  0.00    +0.005 A 
ATOM     10  C   UNL     1      -2.748  -6.095  -1.159  0.00  0.00    +0.028 A 
ATOM     11  C   UNL     1      -2.734  -6.740   0.076  0.00  0.00    +0.071 A 
ATOM     12  N   UNL     1      -2.738  -6.040   1.202  0.00  0.00    -0.255 NA
ATOM     13  C   UNL     1      -2.750  -4.722   1.196  0.00  0.00    +0.113 A 
BRANCH   8  14
ATOM     14  C   UNL     1      -2.792  -2.511   0.015  0.00  0.00    -0.045 C 
BRANCH  14  15
ATOM     15  N   UNL     1      -1.413  -2.002   0.005  0.00  0.00    +0.382 N 
ATOM     16  H   UNL     1      -0.941  -2.328  -0.825  0.00  0.00    -0.085 HD
ATOM     17  H   UNL     1      -0.925  -2.337   0.822  0.00  0.00    -0.085 HD
BRANCH  15  18
ATOM     18  C   UNL     1      -1.433  -0.534   0.013  0.00  0.00    -0.082 C 
BRANCH  18  20
ATOM     19  C   UNL     1      -0.019   1.526   0.010  0.00  0.00    +0.002 C 
ATOM     20  C   UNL     1       0.002  -0.004   0.002  0.00  0.00    -0.022 C 
ENDBRANCH  18  20
ENDBRANCH  15  18
ENDBRANCH  14  15
ENDBRANCH   8  14
ENDBRANCH   2  11
ENDBRANCH   1   5
BRANCH   1  21
ATOM     21  N   UNL     1      -1.269 -12.964   0.310  0.00  0.00    -0.294 N 
ATOM     22  C   UNL     1      -0.631 -13.224  -0.848  0.00  0.00    +0.224 C 
ATOM     23  O   UNL     1      -1.205 -13.069  -1.905  0.00  0.00    -0.275 OA
BRANCH  22  24
ATOM     24  C   UNL     1       0.796 -13.708  -0.829  0.00  0.00    +0.113 C 
ATOM     25  C   UNL     1       1.705 -12.644  -0.197  0.00  0.00    +0.097 C 
ATOM     26  C   UNL     1       2.694 -12.272  -1.274  0.00  0.00    +0.164 C 
ATOM     27  O   UNL     1       3.587 -11.458  -1.171  0.00  0.00    -0.292 OA
ATOM     28  C   UNL     1       2.387 -13.070  -2.473  0.00  0.00    +0.021 A 
ATOM     29  C   UNL     1       1.295 -13.908  -2.241  0.00  0.00    -0.025 A 
ATOM     30  C   UNL     1       0.841 -14.745  -3.242  0.00  0.00    +0.005 A 
ATOM     31  C   UNL     1       1.465 -14.759  -4.477  0.00  0.00    +0.000 A 
ATOM     32  C   UNL     1       2.549 -13.933  -4.718  0.00  0.00    +0.001 A 
ATOM     33  C   UNL     1       3.013 -13.090  -3.729  0.00  0.00    +0.011 A 
ENDBRANCH  22  24
BRANCH  21  34
ATOM     34  C   UNL     1      -0.576 -13.152   1.587  0.00  0.00    +0.139 C 
BRANCH  34  35
ATOM     35  C   UNL     1      -0.798 -14.582   2.083  0.00  0.00    +0.136 C 
ATOM     36  C   UNL     1      -0.173 -14.754   3.484  0.00  0.00    +0.035 C 
ATOM     37  C   UNL     1       0.435 -16.180   3.401  0.00  0.00    +0.031 C 
ATOM     38  C   UNL     1       0.869 -16.230   1.915  0.00  0.00    +0.160 C 
ATOM     39  O   UNL     1      -0.150 -15.508   1.202  0.00  0.00    -0.375 OA
ENDBRANCH  34  35
ENDBRANCH  21  34
ENDBRANCH   1  21
TORSDOF 10
