REMARK  Name = ZINC20208388
REMARK  10 active torsions:
REMARK  status: ('A' for Active; 'I' for Inactive)
REMARK    1  A    between atoms: C_1  and  C_2
REMARK    2  A    between atoms: C_2  and  S_3
REMARK    3  A    between atoms: S_3  and  C_6
REMARK    4  A    between atoms: C_12  and  C_13
REMARK    5  A    between atoms: C_16  and  O_21
REMARK    6  A    between atoms: C_17  and  O_19
REMARK    7  A    between atoms: O_19  and  C_20
REMARK    8  A    between atoms: O_21  and  C_22
REMARK    9  A    between atoms: C_22  and  C_23
REMARK   10  A    between atoms: C_28  and  C_29
REMARK                            x       y       z     vdW  Elec       q    Type
REMARK                         _______ _______ _______ _____ _____    ______ ____
ROOT
ATOM      1  C   UNL     1      -4.565 -10.836   2.654  0.00  0.00    +0.235 C 
ATOM      2  N   UNL     1      -4.529  -9.808   1.855  0.00  0.00    -0.145 NA
ATOM      3  N   UNL     1      -3.336  -9.333   1.353  0.00  0.00    -0.150 N 
ATOM      4  C   UNL     1      -3.177  -8.179   0.556  0.00  0.00    +0.153 C 
ATOM      5  N   UNL     1      -4.039  -7.198   0.534  0.00  0.00    -0.283 NA
ATOM      6  C   UNL     1      -1.928  -8.191  -0.258  0.00  0.00    +0.081 C 
ATOM      7  C   UNL     1      -1.868  -7.605  -1.502  0.00  0.00    +0.024 C 
ATOM      8  C   UNL     1      -0.753  -8.868   0.345  0.00  0.00    +0.273 C 
ATOM      9  O   UNL     1       0.383  -8.565   0.017  0.00  0.00    -0.268 OA
ATOM     10  N   UNL     1      -0.977  -9.827   1.265  0.00  0.00    -0.152 NA
ATOM     11  C   UNL     1      -2.199 -10.037   1.687  0.00  0.00    +0.182 C 
ATOM     12  S   UNL     1      -2.836 -11.269   2.792  0.00  0.00    -0.015 S 
ATOM     13  H   UNL     1      -4.868  -7.269   1.032  0.00  0.00    +0.188 HD
ENDROOT
BRANCH   7  14
ATOM     14  C   UNL     1      -3.091  -7.108  -2.137  0.00  0.00    -0.021 A 
ATOM     15  C   UNL     1      -3.052  -5.951  -2.928  0.00  0.00    +0.012 A 
ATOM     16  C   UNL     1      -4.203  -5.487  -3.524  0.00  0.00    +0.050 A 
ATOM     17  C   UNL     1      -5.404  -6.162  -3.344  0.00  0.00    +0.162 A 
ATOM     18  C   UNL     1      -5.452  -7.314  -2.558  0.00  0.00    +0.162 A 
ATOM     19  C   UNL     1      -4.303  -7.791  -1.961  0.00  0.00    +0.057 A 
BRANCH  18  20
ATOM     20  O   UNL     1      -6.630  -7.970  -2.385  0.00  0.00    -0.491 OA
ATOM     21  C   UNL     1      -6.606  -9.143  -1.569  0.00  0.00    +0.277 C 
ENDBRANCH  18  20
BRANCH  17  22
ATOM     22  O   UNL     1      -6.535  -5.698  -3.934  0.00  0.00    -0.484 OA
BRANCH  22  23
ATOM     23  C   UNL     1      -6.417  -4.513  -4.724  0.00  0.00    +0.265 C 
BRANCH  23  24
ATOM     24  C   UNL     1      -7.764  -4.153  -5.295  0.00  0.00    -0.007 A 
ATOM     25  C   UNL     1      -8.867  -4.935  -5.009  0.00  0.00    +0.007 A 
ATOM     26  C   UNL     1     -10.103  -4.604  -5.532  0.00  0.00    +0.000 A 
ATOM     27  C   UNL     1     -10.236  -3.490  -6.340  0.00  0.00    +0.000 A 
ATOM     28  C   UNL     1      -9.133  -2.707  -6.625  0.00  0.00    +0.004 A 
ATOM     29  C   UNL     1      -7.898  -3.036  -6.098  0.00  0.00    -0.044 A 
ATOM     30  C   UNL     1      -6.696  -2.179  -6.404  0.00  0.00    +0.044 C 
ENDBRANCH  23  24
ENDBRANCH  22  23
ENDBRANCH  17  22
ENDBRANCH   7  14
BRANCH   1  31
ATOM     31  S   UNL     1      -5.961 -11.599   3.411  0.00  0.00    +0.022 S 
ATOM     32  O   UNL     1      -6.977 -10.607   3.383  0.00  0.00    -0.167 OA
ATOM     33  O   UNL     1      -5.473 -12.101   4.648  0.00  0.00    -0.167 OA
BRANCH  31  35
ATOM     34  C   UNL     1      -7.609 -13.715   2.873  0.00  0.00    +0.028 C 
ATOM     35  C   UNL     1      -6.396 -12.972   2.309  0.00  0.00    +0.171 C 
ENDBRANCH  31  35
ENDBRANCH   1  31
TORSDOF 7
