REMARK  Name = ZINC43743548
REMARK  13 active torsions:
REMARK  status: ('A' for Active; 'I' for Inactive)
REMARK    1  A    between atoms: CG1_1  and  CB_2
REMARK    2  A    between atoms: CB_2  and  CG2_3
REMARK    3  A    between atoms: CB_2  and  CA_4
REMARK    4  A    between atoms: CA_4  and  C_6
REMARK    5  A    between atoms: CA_4  and  N_9
REMARK    6  A    between atoms: C_10  and  C_12
REMARK    7  A    between atoms: C_12  and  O_13
REMARK    8  A    between atoms: O_13  and  N_14
REMARK    9  A    between atoms: C_18  and  C_40
REMARK   10  A    between atoms: C_23  and  C_39
REMARK   11  A    between atoms: C_34  and  C_35
REMARK   12  A    between atoms: C_34  and  O_38
REMARK   13  A    between atoms: C_35  and  C_37
REMARK                            x       y       z     vdW  Elec       q    Type
REMARK                         _______ _______ _______ _____ _____    ______ ____
ROOT
ATOM      1  N   UNK A   0      -3.516  -7.455   0.583  0.00  0.00    -0.089 NA
ATOM      2  C   UNK A   0      -4.609  -7.820   1.174  0.00  0.00    +0.080 C 
ATOM      3  C   UNK A   0      -5.619  -6.812   1.690  0.00  0.00    +0.059 C 
ATOM      4  C   UNK A   0      -5.906  -7.154   3.152  0.00  0.00    +0.017 C 
ATOM      5  C   UNK A   0      -6.361  -8.582   3.328  0.00  0.00    -0.007 C 
ATOM      6  C   UNK A   0      -7.885  -8.701   3.305  0.00  0.00    +0.002 C 
ATOM      7  C   UNK A   0      -8.487  -7.755   4.340  0.00  0.00    +0.005 C 
ATOM      8  C   UNK A   0     -10.011  -7.928   4.446  0.00  0.00    +0.010 C 
ATOM      9  C   UNK A   0     -10.275  -9.380   4.797  0.00  0.00    +0.007 C 
ATOM     10  C   UNK A   0      -9.785 -10.238   3.599  0.00  0.00    +0.002 C 
ATOM     11  C   UNK A   0      -8.270 -10.159   3.607  0.00  0.00    -0.003 C 
ATOM     12  C   UNK A   0      -7.711 -11.080   2.522  0.00  0.00    +0.008 C 
ATOM     13  C   UNK A   0      -6.179 -11.024   2.527  0.00  0.00    +0.031 C 
ATOM     14  C   UNK A   0      -5.770  -9.570   2.371  0.00  0.00    -0.062 C 
ATOM     15  C   UNK A   0      -4.949  -9.242   1.380  0.00  0.00    +0.026 C 
ATOM     16  C   UNK A   0     -10.383 -11.609   3.934  0.00  0.00    +0.008 C 
ATOM     17  C   UNK A   0     -11.807 -11.252   4.442  0.00  0.00    +0.043 C 
ATOM     18  C   UNK A   0     -11.737  -9.788   4.946  0.00  0.00    +0.129 C 
ATOM     19  C   UNK A   0      -9.500  -9.757   6.061  0.00  0.00    +0.015 C 
ATOM     20  C   UNK A   0      -5.926  -9.014   4.730  0.00  0.00    +0.016 C 
ENDROOT
BRANCH  18  21
ATOM     21  C   UNK A   0     -12.615  -8.903   4.099  0.00  0.00    +0.162 C 
ATOM     22  O   UNK A   0     -12.185  -8.425   3.078  0.00  0.00    -0.295 OA
ATOM     23  C   UNK A   0     -14.031  -8.614   4.529  0.00  0.00    +0.089 C 
ENDBRANCH  18  21
BRANCH  18  24
ATOM     24  O   UNK A   0     -12.134  -9.717   6.316  0.00  0.00    -0.381 OA
ATOM     25  H   UNK A   0     -13.056  -9.966   6.472  0.00  0.00    +0.211 HD
ENDBRANCH  18  24
BRANCH   1  26
ATOM     26  O   UNK A   0      -3.232  -6.079   0.407  0.00  0.00    -0.384 OA
BRANCH  26  27
ATOM     27  C   UNK A   0      -1.994  -5.822  -0.260  0.00  0.00    +0.358 C 
BRANCH  27  29
ATOM     28  N   VAL A   1      -0.688  -3.853  -0.993  0.00  0.00    -0.299 N 
ATOM     29  C   UNK A   0      -1.794  -4.334  -0.392  0.00  0.00    +0.254 C 
ATOM     30  O   UNK A   0      -2.630  -3.569   0.042  0.00  0.00    -0.272 OA
ATOM     31  H   VAL A   1      -0.020  -4.465  -1.340  0.00  0.00    +0.150 HD
BRANCH  28  32
ATOM     32  CA  VAL A   1      -0.494  -2.407  -1.122  0.00  0.00    +0.189 C 
BRANCH  32  34
ATOM     33  CG1 VAL A   1       1.204  -0.591  -1.370  0.00  0.00    +0.009 C 
ATOM     34  CB  VAL A   1       1.001  -2.101  -1.236  0.00  0.00    +0.014 C 
ATOM     35  CG2 VAL A   1       1.721  -2.603   0.018  0.00  0.00    +0.009 C 
ENDBRANCH  32  34
BRANCH  32  36
ATOM     36  C   VAL A   1      -1.203  -1.913  -2.356  0.00  0.00    +0.376 C 
ATOM     37  O   VAL A   1      -1.658  -2.710  -3.158  0.00  0.00    -0.244 OA
ATOM     38  OXT VAL A   1      -1.323  -0.715  -2.552  0.00  0.00    -0.244 OA
ENDBRANCH  32  36
ENDBRANCH  28  32
ENDBRANCH  27  29
ENDBRANCH  26  27
ENDBRANCH   1  26
TORSDOF 8
