REMARK  Name = ZINC13063730
REMARK  14 active torsions:
REMARK  status: ('A' for Active; 'I' for Inactive)
REMARK    1  A    between atoms: C_1  and  C_2
REMARK    2  A    between atoms: C_2  and  C_3
REMARK    3  A    between atoms: C_10  and  C_15
REMARK    4  A    between atoms: C_15  and  N_75
REMARK    5  A    between atoms: C_16  and  C_17
REMARK    6  A    between atoms: C_16  and  N_75
REMARK    7  A    between atoms: C_20  and  C_23
REMARK    8  A    between atoms: C_24  and  C_26
REMARK    9  A    between atoms: C_24  and  C_28
REMARK   10  A    between atoms: C_24  and  N_75
REMARK   11  A    between atoms: C_26  and  C_27
REMARK   12  A    between atoms: N_32  and  C_33
REMARK   13  A    between atoms: C_33  and  C_34
REMARK   14  A    between atoms: C_34  and  C_35
REMARK                            x       y       z     vdW  Elec       q    Type
REMARK                         _______ _______ _______ _____ _____    ______ ____
ROOT
ATOM      1  N   UNL     1      -0.054   1.437   0.378  0.00  0.00    +0.392 N 
ATOM      2  H   UNL     1      -0.461   2.022   1.118  0.00  0.00    -0.080 HD
ENDROOT
BRANCH   1   3
ATOM      3  C   UNL     1      -0.605   1.863  -0.926  0.00  0.00    -0.036 C 
BRANCH   3  11
ATOM      4  C   UNL     1       0.203  -2.569  -5.169  0.00  0.00    -0.047 A 
ATOM      5  C   UNL     1       1.398  -2.081  -5.678  0.00  0.00    +0.005 A 
ATOM      6  C   UNL     1       1.963  -0.932  -5.169  0.00  0.00    +0.026 A 
ATOM      7  C   UNL     1       1.330  -0.253  -4.132  0.00  0.00    +0.049 A 
ATOM      8  C   UNL     1       0.118  -0.751  -3.618  0.00  0.00    -0.001 A 
ATOM      9  C   UNL     1      -0.437  -1.919  -4.151  0.00  0.00    +0.013 A 
ATOM     10  C   UNL     1      -0.537  -0.032  -2.523  0.00  0.00    +0.017 A 
ATOM     11  C   UNL     1       0.046   1.097  -2.050  0.00  0.00    +0.001 A 
ATOM     12  C   UNL     1       1.262   1.554  -2.600  0.00  0.00    +0.251 A 
ATOM     13  O   UNL     1       1.771   2.569  -2.157  0.00  0.00    -0.268 OA
ATOM     14  N   UNL     1       1.873   0.898  -3.603  0.00  0.00    -0.322 N 
ATOM     15  H   UNL     1       2.708   1.240  -3.958  0.00  0.00    +0.169 HD
BRANCH   4  17
ATOM     16  C   UNL     1      -1.330  -3.466  -6.900  0.00  0.00    +0.009 C 
ATOM     17  C   UNL     1      -0.396  -3.828  -5.743  0.00  0.00    +0.032 C 
ENDBRANCH   4  17
ENDBRANCH   3  11
ENDBRANCH   1   3
BRANCH   1  18
ATOM     18  C   UNL     1      -0.402   0.024   0.636  0.00  0.00    -0.042 C 
BRANCH  18  19
ATOM     19  C   UNL     1      -1.841  -0.046   1.077  0.00  0.00    -0.064 A 
ATOM     20  C   UNL     1      -2.153  -0.040   2.424  0.00  0.00    +0.002 A 
ATOM     21  C   UNL     1      -3.473  -0.101   2.828  0.00  0.00    +0.003 A 
ATOM     22  C   UNL     1      -4.482  -0.177   1.885  0.00  0.00    -0.050 A 
ATOM     23  C   UNL     1      -4.170  -0.188   0.538  0.00  0.00    +0.003 A 
ATOM     24  C   UNL     1      -2.849  -0.123   0.134  0.00  0.00    +0.002 A 
ATOM     25  C   UNL     1      -5.921  -0.248   2.326  0.00  0.00    +0.044 C 
ENDBRANCH  18  19
ENDBRANCH   1  18
BRANCH   1  26
ATOM     26  C   UNL     1       1.414   1.606   0.386  0.00  0.00    +0.003 C 
BRANCH  26  27
ATOM     27  C   UNL     1       1.984   0.922   1.602  0.00  0.00    +0.138 A 
ATOM     28  N   UNL     1       1.513   0.979   2.824  0.00  0.00    -0.115 NA
ATOM     29  N   UNL     1       2.273   0.262   3.577  0.00  0.00    -0.023 NA
ATOM     30  N   UNL     1       3.222  -0.244   2.868  0.00  0.00    -0.044 NA
ATOM     31  N   UNL     1       3.078   0.140   1.645  0.00  0.00    -0.231 N 
BRANCH  31  32
ATOM     32  C   UNL     1       3.943  -0.210   0.516  0.00  0.00    +0.152 C 
BRANCH  32  33
ATOM     33  C   UNL     1       5.061   0.827   0.390  0.00  0.00    +0.058 C 
BRANCH  33  34
ATOM     34  C   UNL     1       5.951   0.467  -0.772  0.00  0.00    -0.046 A 
ATOM     35  C   UNL     1       7.050  -0.347  -0.575  0.00  0.00    +0.004 A 
ATOM     36  C   UNL     1       7.863  -0.682  -1.642  0.00  0.00    +0.000 A 
ATOM     37  C   UNL     1       7.583  -0.193  -2.904  0.00  0.00    +0.000 A 
ATOM     38  C   UNL     1       6.487   0.626  -3.100  0.00  0.00    +0.000 A 
ATOM     39  C   UNL     1       5.671   0.956  -2.035  0.00  0.00    +0.004 A 
ENDBRANCH  33  34
ENDBRANCH  32  33
ENDBRANCH  31  32
ENDBRANCH  26  27
BRANCH  26  40
ATOM     40  C   UNL     1       1.737   3.101   0.443  0.00  0.00    -0.011 C 
ATOM     41  C   UNL     1       1.128   3.706   1.709  0.00  0.00    +0.002 C 
ENDBRANCH  26  40
ENDBRANCH   1  26
TORSDOF 11
