REMARK  Name = ZINC64623042
REMARK  4 active torsions:
REMARK  status: ('A' for Active; 'I' for Inactive)
REMARK    1  A    between atoms: C_1  and  O_2
REMARK    2  A    between atoms: O_2  and  C_3
REMARK    3  A    between atoms: C_6  and  C_9
REMARK    4  A    between atoms: N_26  and  C_27
REMARK                            x       y       z     vdW  Elec       q    Type
REMARK                         _______ _______ _______ _____ _____    ______ ____
ROOT
ATOM      1  C   UNL     1       2.611  -2.328  -3.437  0.00  0.00    +0.134 C 
ATOM      2  C   UNL     1       1.524  -2.453  -4.510  0.00  0.00    +0.131 C 
ATOM      3  C   UNL     1       0.858  -3.806  -4.299  0.00  0.00    -0.035 C 
ATOM      4  C   UNL     1      -0.438  -3.565  -4.142  0.00  0.00    -0.001 A 
ATOM      5  C   UNL     1      -1.588  -4.468  -3.973  0.00  0.00    +0.010 A 
ATOM      6  C   UNL     1      -2.801  -3.872  -3.825  0.00  0.00    +0.001 A 
ATOM      7  C   UNL     1      -2.982  -2.486  -3.828  0.00  0.00    +0.002 A 
ATOM      8  C   UNL     1      -1.982  -1.582  -3.982  0.00  0.00    +0.026 A 
ATOM      9  C   UNL     1      -0.661  -2.087  -4.151  0.00  0.00    +0.043 A 
ATOM     10  N   UNL     1       0.477  -1.443  -4.344  0.00  0.00    -0.375 N 
ATOM     11  C   UNL     1       1.643  -5.093  -4.222  0.00  0.00    +0.052 C 
ATOM     12  C   UNL     1       2.768  -4.864  -3.196  0.00  0.00    +0.114 C 
ATOM     13  N   UNL     1       3.405  -3.567  -3.451  0.00  0.00    -0.276 N 
ATOM     14  C   UNL     1       4.728  -3.509  -3.701  0.00  0.00    +0.307 C 
ATOM     15  O   UNL     1       5.278  -2.432  -3.821  0.00  0.00    -0.252 OA
ATOM     16  N   UNL     1       5.441  -4.647  -3.820  0.00  0.00    -0.268 N 
ATOM     17  H   UNL     1       4.993  -5.506  -3.789  0.00  0.00    +0.156 HD
ATOM     18  H   UNL     1       0.606  -0.482  -4.366  0.00  0.00    +0.160 HD
ENDROOT
BRANCH  16  19
ATOM     19  C   UNL     1       6.830  -4.588  -3.988  0.00  0.00    +0.049 A 
ATOM     20  C   UNL     1       7.410  -3.483  -4.597  0.00  0.00    +0.024 A 
ATOM     21  C   UNL     1       8.781  -3.427  -4.761  0.00  0.00    +0.002 A 
ATOM     22  C   UNL     1       9.575  -4.470  -4.319  0.00  0.00    +0.001 A 
ATOM     23  C   UNL     1       9.000  -5.572  -3.713  0.00  0.00    +0.017 A 
ATOM     24  C   UNL     1       7.630  -5.631  -3.541  0.00  0.00    +0.039 A 
ATOM     25 BR   UNL     1       6.846  -7.135  -2.705  0.00  0.00    -0.048 Br
ENDBRANCH  16  19
BRANCH   1  29
ATOM     26  C   UNL     1       0.802  -1.812   0.401  0.00  0.00    +0.120 A 
ATOM     27  C   UNL     1       0.537  -2.951  -0.345  0.00  0.00    +0.046 A 
ATOM     28  C   UNL     1       1.123  -3.116  -1.585  0.00  0.00    +0.009 A 
ATOM     29  C   UNL     1       1.973  -2.146  -2.084  0.00  0.00    -0.024 A 
ATOM     30  C   UNL     1       2.240  -1.010  -1.342  0.00  0.00    +0.009 A 
ATOM     31  C   UNL     1       1.652  -0.838  -0.104  0.00  0.00    +0.046 A 
BRANCH  26  33
ATOM     32  C   UNL     1      -0.636  -2.692   2.077  0.00  0.00    +0.277 C 
ATOM     33  O   UNL     1       0.227  -1.648   1.621  0.00  0.00    -0.495 OA
ENDBRANCH  26  33
ENDBRANCH   1  29
TORSDOF 3
