REMARK  Name = ZINC13565012
REMARK  8 active torsions:
REMARK  status: ('A' for Active; 'I' for Inactive)
REMARK    1  A    between atoms: C_1  and  C_2
REMARK    2  A    between atoms: C_6  and  C_8
REMARK    3  A    between atoms: C_17  and  C_19
REMARK    4  A    between atoms: C_20  and  C_35
REMARK    5  A    between atoms: C_25  and  C_27
REMARK    6  A    between atoms: C_27  and  N_70
REMARK    7  A    between atoms: C_28  and  N_70
REMARK    8  A    between atoms: C_29  and  N_70
REMARK                            x       y       z     vdW  Elec       q    Type
REMARK                         _______ _______ _______ _____ _____    ______ ____
ROOT
ATOM      1  C   UNL     1       6.440   4.281  -0.606  0.00  0.00    +0.083 A 
ATOM      2  C   UNL     1       6.910   3.165   0.028  0.00  0.00    +0.016 A 
ATOM      3  S   UNL     1       8.621   3.185  -0.489  0.00  0.00    -0.057 S 
ATOM      4  C   UNL     1       8.537   4.670  -1.480  0.00  0.00    +0.165 A 
ATOM      5  N   UNL     1       7.268   5.007  -1.343  0.00  0.00    -0.224 NA
ATOM      6  N   UNL     1       9.541   5.303  -2.203  0.00  0.00    -0.266 N 
ATOM      7  C   UNL     1      10.788   4.791  -2.215  0.00  0.00    +0.202 C 
ATOM      8  O   UNL     1      11.034   3.778  -1.595  0.00  0.00    -0.277 OA
ATOM      9  C   UNL     1       6.185   2.187   0.917  0.00  0.00    +0.054 C 
ATOM     10  H   UNL     1       9.345   6.113  -2.700  0.00  0.00    +0.157 HD
ENDROOT
BRANCH   1  20
ATOM     11  C   UNL     1      -0.070   5.323   0.030  0.00  0.00    +0.251 C 
ATOM     12  O   UNL     1      -0.050   4.111   0.126  0.00  0.00    -0.270 OA
ATOM     13  N   UNL     1       1.085   6.009  -0.080  0.00  0.00    -0.267 N 
ATOM     14  C   UNL     1       1.196   7.470  -0.086  0.00  0.00    +0.118 C 
ATOM     15  C   UNL     1       2.698   7.760  -0.230  0.00  0.00    +0.056 C 
ATOM     16  C   UNL     1       3.345   6.395  -0.297  0.00  0.00    -0.024 A 
ATOM     17  C   UNL     1       2.352   5.431  -0.200  0.00  0.00    +0.040 A 
ATOM     18  C   UNL     1       2.705   4.080  -0.243  0.00  0.00    +0.024 A 
ATOM     19  C   UNL     1       4.024   3.707  -0.373  0.00  0.00    +0.012 A 
ATOM     20  C   UNL     1       5.018   4.679  -0.466  0.00  0.00    +0.002 A 
ATOM     21  C   UNL     1       4.668   6.028  -0.427  0.00  0.00    +0.015 A 
BRANCH  11  27
ATOM     22  C   UNL     1      -5.059   5.244  -0.054  0.00  0.00    +0.044 C 
ATOM     23  C   UNL     1      -3.762   6.011  -0.006  0.00  0.00    -0.050 A 
ATOM     24  C   UNL     1      -3.779   7.393   0.043  0.00  0.00    +0.003 A 
ATOM     25  C   UNL     1      -2.593   8.104   0.093  0.00  0.00    +0.001 A 
ATOM     26  C   UNL     1      -1.385   7.438   0.089  0.00  0.00    +0.013 A 
ATOM     27  C   UNL     1      -1.361   6.043   0.034  0.00  0.00    +0.037 A 
ATOM     28  C   UNL     1      -2.561   5.332  -0.017  0.00  0.00    +0.016 A 
ENDBRANCH  11  27
ENDBRANCH   1  20
BRANCH   7  29
ATOM     29  C   UNL     1      11.877   5.477  -2.999  0.00  0.00    +0.019 C 
BRANCH  29  31
ATOM     30  C   UNL     1      13.615   4.779  -1.466  0.00  0.00    -0.095 C 
ATOM     31  N   UNL     1      13.127   4.701  -2.858  0.00  0.00    +0.385 N 
ATOM     32  H   UNL     1      12.938   3.719  -3.091  0.00  0.00    -0.081 HD
BRANCH  31  33
ATOM     33  C   UNL     1      14.153   5.225  -3.784  0.00  0.00    -0.068 C 
ATOM     34  C   UNL     1      13.653   5.066  -5.221  0.00  0.00    -0.015 C 
ATOM     35  C   UNL     1      14.717   5.583  -6.191  0.00  0.00    -0.002 C 
ATOM     36  C   UNL     1      16.007   4.781  -6.008  0.00  0.00    -0.000 C 
ATOM     37  C   UNL     1      16.507   4.940  -4.571  0.00  0.00    -0.002 C 
ATOM     38  C   UNL     1      15.444   4.423  -3.601  0.00  0.00    -0.015 C 
ENDBRANCH  31  33
ENDBRANCH  29  31
ENDBRANCH   7  29
TORSDOF 5
