REMARK  Name = ZINC37720893
REMARK  12 active torsions:
REMARK  status: ('A' for Active; 'I' for Inactive)
REMARK    1  A    between atoms: C_1  and  C_2
REMARK    2  A    between atoms: C_2  and  C_3
REMARK    3  A    between atoms: C_3  and  C_4
REMARK    4  A    between atoms: C_3  and  C_5
REMARK    5  A    between atoms: C_3  and  N_6
REMARK    6  A    between atoms: C_7  and  C_9
REMARK    7  A    between atoms: C_9  and  C_11
REMARK    8  A    between atoms: C_9  and  O_12
REMARK    9  A    between atoms: O_12  and  C_13
REMARK   10  A    between atoms: C_18  and  C_19
REMARK   11  A    between atoms: C_19  and  C_20
REMARK   12  A    between atoms: C_20  and  N_21
REMARK                            x       y       z     vdW  Elec       q    Type
REMARK                         _______ _______ _______ _____ _____    ______ ____
ROOT
ATOM      1  C   UNL     1       1.546  -5.835  -3.937  0.00  0.00    +0.125 A 
ATOM      2  C   UNL     1       0.590  -6.553  -3.233  0.00  0.00    +0.047 A 
ATOM      3  C   UNL     1       0.226  -7.816  -3.657  0.00  0.00    +0.019 A 
ATOM      4  C   UNL     1       0.814  -8.366  -4.783  0.00  0.00    +0.018 A 
ATOM      5  C   UNL     1       1.768  -7.652  -5.486  0.00  0.00    +0.022 A 
ATOM      6  C   UNL     1       2.130  -6.385  -5.069  0.00  0.00    -0.006 A 
ATOM      7 BR   UNL     1       0.314 -10.095  -5.360  0.00  0.00    -0.050 Br
ENDROOT
BRANCH   1   8
ATOM      8  O   UNL     1       1.906  -4.592  -3.522  0.00  0.00    -0.480 OA
BRANCH   8   9
ATOM      9  C   UNL     1       1.175  -4.037  -2.427  0.00  0.00    +0.255 C 
ATOM     10  C   UNL     1       1.783  -4.522  -1.109  0.00  0.00    +0.062 C 
BRANCH   9  12
ATOM     11  N   UNL     1       0.540  -1.790  -1.609  0.00  0.00    -0.307 N 
ATOM     12  C   UNL     1       1.244  -2.533  -2.487  0.00  0.00    +0.254 C 
ATOM     13  O   UNL     1       1.932  -1.990  -3.326  0.00  0.00    -0.272 OA
ATOM     14  H   UNL     1      -0.010  -2.224  -0.939  0.00  0.00    +0.149 HD
BRANCH  11  15
ATOM     15  C   UNL     1       0.608  -0.328  -1.669  0.00  0.00    +0.029 C 
ATOM     16  C   UNL     1       0.115   0.151  -3.036  0.00  0.00    +0.031 C 
ATOM     17  C   UNL     1       2.054   0.126  -1.461  0.00  0.00    +0.031 C 
BRANCH  15  19
ATOM     18  C   UNL     1      -0.206   1.795  -0.632  0.00  0.00    +0.006 C 
ATOM     19  C   UNL     1      -0.276   0.268  -0.571  0.00  0.00    +0.022 C 
ENDBRANCH  15  19
ENDBRANCH  11  15
ENDBRANCH   9  12
ENDBRANCH   8   9
ENDBRANCH   1   8
BRANCH   6  20
ATOM     20  C   UNL     1       3.164  -5.605  -5.839  0.00  0.00    +0.019 C 
BRANCH  20  21
ATOM     21  C   UNL     1       4.540  -5.817  -5.205  0.00  0.00    -0.082 C 
BRANCH  21  22
ATOM     22  N   UNL     1       5.548  -5.056  -5.956  0.00  0.00    +0.378 N 
ATOM     23  H   UNL     1       6.455  -5.196  -5.537  0.00  0.00    -0.090 HD
ATOM     24  H   UNL     1       5.566  -5.375  -6.913  0.00  0.00    -0.090 HD
ATOM     25  H   UNL     1       5.314  -4.075  -5.933  0.00  0.00    -0.090 HD
ENDBRANCH  21  22
ENDBRANCH  20  21
ENDBRANCH   6  20
TORSDOF 8
