REMARK  Name = ZINC13073374
REMARK  8 active torsions:
REMARK  status: ('A' for Active; 'I' for Inactive)
REMARK    1  A    between atoms: C_1  and  C_2
REMARK    2  A    between atoms: C_6  and  N_9
REMARK    3  A    between atoms: C_7  and  C_8
REMARK    4  A    between atoms: C_10  and  C_12
REMARK    5  A    between atoms: C_12  and  N_46
REMARK    6  A    between atoms: C_13  and  N_46
REMARK    7  A    between atoms: C_14  and  N_15
REMARK    8  A    between atoms: C_14  and  N_46
REMARK                            x       y       z     vdW  Elec       q    Type
REMARK                         _______ _______ _______ _____ _____    ______ ____
ROOT
ATOM      1  C   UNL     1      -2.043   5.683  -1.514  0.00  0.00    -0.093 C 
ATOM      2  N   UNL     1      -1.422   6.114  -0.244  0.00  0.00    +0.397 N 
ATOM      3  H   UNL     1      -1.943   5.702   0.538  0.00  0.00    -0.079 HD
ENDROOT
BRANCH   2   4
ATOM      4  C   UNL     1      -0.020   5.650  -0.184  0.00  0.00    +0.021 C 
BRANCH   4   6
ATOM      5  N   UNL     1       1.162   3.485   0.009  0.00  0.00    -0.287 N 
ATOM      6  C   UNL     1      -0.009   4.147  -0.078  0.00  0.00    +0.201 C 
ATOM      7  O   UNL     1      -1.055   3.532  -0.072  0.00  0.00    -0.278 OA
ATOM      8  H   UNL     1       1.993   3.979   0.085  0.00  0.00    +0.155 HD
BRANCH   5  14
ATOM      9  C   UNL     1       3.389  -0.737   1.187  0.00  0.00    +0.044 C 
ATOM     10  C   UNL     1       2.245   0.014   0.554  0.00  0.00    -0.046 A 
ATOM     11  C   UNL     1       1.211  -0.680  -0.045  0.00  0.00    +0.004 A 
ATOM     12  C   UNL     1       0.160   0.005  -0.627  0.00  0.00    +0.002 A 
ATOM     13  C   UNL     1       0.141   1.386  -0.611  0.00  0.00    +0.023 A 
ATOM     14  C   UNL     1       1.178   2.086  -0.009  0.00  0.00    +0.036 A 
ATOM     15  C   UNL     1       2.232   1.395   0.575  0.00  0.00    -0.026 A 
ATOM     16  C   UNL     1       3.359   2.151   1.229  0.00  0.00    +0.046 C 
ENDBRANCH   5  14
ENDBRANCH   4   6
ENDBRANCH   2   4
BRANCH   2  17
ATOM     17  C   UNL     1      -1.472   7.587  -0.132  0.00  0.00    +0.072 C 
BRANCH  17  18
ATOM     18  N   UNL     1      -2.868   8.002   0.021  0.00  0.00    -0.257 N 
ATOM     19  C   UNL     1      -3.716   8.328  -0.975  0.00  0.00    +0.181 A 
ATOM     20  S   UNL     1      -3.352   8.332  -2.648  0.00  0.00    -0.011 S 
ATOM     21  N   UNL     1      -4.903   8.649  -0.420  0.00  0.00    -0.276 N 
ATOM     22  C   UNL     1      -6.096   9.047  -0.976  0.00  0.00    +0.115 A 
ATOM     23  C   UNL     1      -7.158   9.322  -0.198  0.00  0.00    +0.059 A 
ATOM     24  C   UNL     1      -7.069   9.207   1.205  0.00  0.00    +0.045 A 
ATOM     25  C   UNL     1      -5.902   8.817   1.777  0.00  0.00    +0.087 A 
ATOM     26  C   UNL     1      -4.786   8.528   0.951  0.00  0.00    +0.178 A 
ATOM     27  N   UNL     1      -3.563   8.139   1.231  0.00  0.00    -0.151 NA
ATOM     28 CL   UNL     1      -5.778   8.671   3.502  0.00  0.00    -0.080 Cl
ATOM     29 CL   UNL     1      -8.653   9.822  -0.926  0.00  0.00    -0.082 Cl
ENDBRANCH  17  18
ENDBRANCH   2  17
TORSDOF 5
