REMARK  Name = ZINC65182394
REMARK  10 active torsions:
REMARK  status: ('A' for Active; 'I' for Inactive)
REMARK    1  A    between atoms: C_1  and  C_2
REMARK    2  A    between atoms: C_2  and  C_3
REMARK    3  A    between atoms: C_6  and  C_31
REMARK    4  A    between atoms: C_11  and  C_13
REMARK    5  A    between atoms: C_16  and  C_19
REMARK    6  A    between atoms: C_19  and  C_20
REMARK    7  A    between atoms: C_20  and  N_21
REMARK    8  A    between atoms: N_21  and  C_22
REMARK    9  A    between atoms: C_23  and  C_25
REMARK   10  A    between atoms: C_28  and  C_30
REMARK                            x       y       z     vdW  Elec       q    Type
REMARK                         _______ _______ _______ _____ _____    ______ ____
ROOT
ATOM      1  C   UNL     1      -2.125  -3.104  -1.687  0.00  0.00    +0.318 C 
ATOM      2  N   UNL     1      -2.414  -4.532  -1.479  0.00  0.00    -0.291 N 
ATOM      3  C   UNL     1      -1.208  -5.191  -1.516  0.00  0.00    +0.139 C 
ATOM      4  N   UNL     1      -0.233  -4.380  -1.714  0.00  0.00    -0.072 NA
ATOM      5  O   UNL     1      -0.698  -3.046  -1.837  0.00  0.00    -0.367 OA
ATOM      6  H   UNL     1      -3.287  -4.931  -1.343  0.00  0.00    +0.151 HD
ENDROOT
BRANCH   1  15
ATOM      7  C   UNL     1      -2.342  -0.812  -0.724  0.00  0.00    -0.033 C 
ATOM      8  C   UNL     1      -3.560  -0.229  -0.657  0.00  0.00    -0.000 A 
ATOM      9  C   UNL     1      -4.007   1.160  -0.815  0.00  0.00    +0.013 A 
ATOM     10  C   UNL     1      -5.324   1.444  -0.688  0.00  0.00    -0.050 A 
ATOM     11  C   UNL     1      -6.269   0.448  -0.410  0.00  0.00    +0.005 A 
ATOM     12  C   UNL     1      -5.935  -0.851  -0.252  0.00  0.00    +0.026 A 
ATOM     13  C   UNL     1      -4.579  -1.263  -0.365  0.00  0.00    +0.043 A 
ATOM     14  N   UNL     1      -4.012  -2.440  -0.255  0.00  0.00    -0.373 N 
ATOM     15  C   UNL     1      -2.569  -2.286  -0.472  0.00  0.00    +0.169 C 
ATOM     16  C   UNL     1      -5.785   2.870  -0.849  0.00  0.00    +0.044 C 
ATOM     17  H   UNL     1      -4.471  -3.273  -0.067  0.00  0.00    +0.160 HD
BRANCH   7  19
ATOM     18  C   UNL     1      -1.257   1.367  -1.196  0.00  0.00    +0.008 C 
ATOM     19  C   UNL     1      -1.026  -0.133  -1.000  0.00  0.00    +0.030 C 
ENDBRANCH   7  19
ENDBRANCH   1  15
BRANCH   3  20
ATOM     20  C   UNL     1      -1.050  -6.680  -1.345  0.00  0.00    +0.094 C 
BRANCH  20  21
ATOM     21  C   UNL     1       0.432  -7.051  -1.446  0.00  0.00    +0.115 C 
BRANCH  21  22
ATOM     22  N   UNL     1       0.585  -8.498  -1.279  0.00  0.00    -0.300 N 
ATOM     23  C   UNL     1       0.538  -9.379  -2.449  0.00  0.00    +0.132 C 
ATOM     24  C   UNL     1       0.770  -9.019  -0.050  0.00  0.00    +0.253 C 
ATOM     25  O   UNL     1       0.706  -8.302   0.931  0.00  0.00    -0.269 OA
BRANCH  24  26
ATOM     26  C   UNL     1       1.049 -10.450   0.105  0.00  0.00    +0.074 A 
ATOM     27  C   UNL     1       1.151 -11.199   1.267  0.00  0.00    +0.021 A 
ATOM     28  C   UNL     1       1.425 -12.535   1.094  0.00  0.00    +0.011 A 
ATOM     29  C   UNL     1       1.573 -13.020  -0.164  0.00  0.00    -0.013 A 
ATOM     30  S   UNL     1       1.338 -11.681  -1.151  0.00  0.00    -0.089 S 
ATOM     31  C   UNL     1       1.872 -14.436  -0.581  0.00  0.00    +0.051 C 
ENDBRANCH  24  26
ENDBRANCH  21  22
ENDBRANCH  20  21
ENDBRANCH   3  20
TORSDOF 6
