REMARK  Name = ZINC38888935
REMARK  10 active torsions:
REMARK  status: ('A' for Active; 'I' for Inactive)
REMARK    1  A    between atoms: C_1  and  C_2
REMARK    2  A    between atoms: C_6  and  C_8
REMARK    3  A    between atoms: C_10  and  C_13
REMARK    4  A    between atoms: C_13  and  N_14
REMARK    5  A    between atoms: C_18  and  C_21
REMARK    6  A    between atoms: N_23  and  C_24
REMARK    7  A    between atoms: C_24  and  C_25
REMARK    8  A    between atoms: C_25  and  C_27
REMARK    9  A    between atoms: C_25  and  C_28
REMARK   10  A    between atoms: C_28  and  C_29
REMARK                            x       y       z     vdW  Elec       q    Type
REMARK                         _______ _______ _______ _____ _____    ______ ____
ROOT
ATOM      1  N   UNL     1       1.501  -6.360   4.554  0.00  0.00    +0.386 N 
ATOM      2  C   UNL     1       2.147  -5.532   5.579  0.00  0.00    -0.078 C 
ATOM      3  C   UNL     1       3.620  -5.927   5.704  0.00  0.00    -0.018 C 
ATOM      4  C   UNL     1       3.716  -7.402   6.103  0.00  0.00    +0.009 C 
ATOM      5  C   UNL     1       2.974  -8.250   5.065  0.00  0.00    +0.058 C 
ATOM      6  C   UNL     1       1.525  -7.770   4.964  0.00  0.00    -0.065 C 
ATOM      7  H   UNL     1       1.994  -6.256   3.680  0.00  0.00    -0.081 HD
ENDROOT
BRANCH   5   8
ATOM      8  C   UNL     1       2.998  -9.696   5.488  0.00  0.00    +0.214 C 
ATOM      9  O   UNL     1       1.957 -10.287   5.685  0.00  0.00    -0.276 OA
ATOM     10  N   UNL     1       4.175 -10.333   5.646  0.00  0.00    -0.315 N 
ATOM     11  H   UNL     1       5.007  -9.861   5.489  0.00  0.00    +0.149 HD
BRANCH  10  12
ATOM     12  C   UNL     1       4.197 -11.739   6.057  0.00  0.00    +0.107 C 
BRANCH  12  13
ATOM     13  C   UNL     1       5.647 -12.216   6.163  0.00  0.00    +0.007 C 
ATOM     14  C   UNL     1       6.354 -11.455   7.286  0.00  0.00    +0.009 C 
BRANCH  13  15
ATOM     15  C   UNL     1       5.670 -13.715   6.470  0.00  0.00    +0.040 C 
BRANCH  15  16
ATOM     16  C   UNL     1       7.093 -14.210   6.453  0.00  0.00    -0.039 A 
ATOM     17  C   UNL     1       7.612 -14.760   5.321  0.00  0.00    +0.004 A 
ATOM     18  C   UNL     1       8.926 -15.223   5.286  0.00  0.00    +0.001 A 
ATOM     19  C   UNL     1       9.728 -15.140   6.383  0.00  0.00    +0.008 A 
ATOM     20  C   UNL     1       9.227 -14.578   7.569  0.00  0.00    -0.018 A 
ATOM     21  C   UNL     1       7.892 -14.101   7.603  0.00  0.00    -0.015 A 
ATOM     22  C   UNL     1       7.393 -13.534   8.788  0.00  0.00    +0.009 A 
ATOM     23  C   UNL     1       8.197 -13.445   9.883  0.00  0.00    +0.001 A 
ATOM     24  C   UNL     1       9.511 -13.908   9.848  0.00  0.00    +0.001 A 
ATOM     25  C   UNL     1      10.024 -14.475   8.722  0.00  0.00    +0.008 A 
ENDBRANCH  15  16
ENDBRANCH  13  15
ENDBRANCH  12  13
ENDBRANCH  10  12
ENDBRANCH   5   8
BRANCH   1  26
ATOM     26  C   UNL     1       0.108  -5.926   4.382  0.00  0.00    +0.022 C 
BRANCH  26  29
ATOM     27  C   UNL     1       0.051  -2.846   2.464  0.00  0.00    +0.202 A 
ATOM     28  N   UNL     1       0.075  -4.185   2.585  0.00  0.00    -0.193 NA
ATOM     29  C   UNL     1       0.083  -4.518   3.844  0.00  0.00    +0.211 A 
ATOM     30  O   UNL     1       0.066  -3.400   4.580  0.00  0.00    -0.340 OA
ATOM     31  N   UNL     1       0.051  -2.316   3.662  0.00  0.00    -0.056 NA
BRANCH  27  37
ATOM     32  C   UNL     1      -0.018   1.503   0.010  0.00  0.00    +0.044 C 
ATOM     33  C   UNL     1       0.002  -0.004   0.002  0.00  0.00    -0.050 A 
ATOM     34  C   UNL     1       0.006  -0.688  -1.201  0.00  0.00    +0.003 A 
ATOM     35  C   UNL     1       0.024  -2.071  -1.216  0.00  0.00    +0.001 A 
ATOM     36  C   UNL     1       0.039  -2.776  -0.029  0.00  0.00    +0.012 A 
ATOM     37  C   UNL     1       0.036  -2.092   1.185  0.00  0.00    +0.023 A 
ATOM     38  C   UNL     1       0.023  -0.699   1.194  0.00  0.00    +0.015 A 
ENDBRANCH  27  37
ENDBRANCH  26  29
ENDBRANCH   1  26
TORSDOF 8
