REMARK  Name = ZINC19818109
REMARK  5 active torsions:
REMARK  status: ('A' for Active; 'I' for Inactive)
REMARK    1  A    between atoms: C_1  and  C_2
REMARK    2  A    between atoms: C_3  and  C_30
REMARK    3  A    between atoms: C_4  and  C_21
REMARK    4  A    between atoms: C_10  and  C_15
REMARK    5  A    between atoms: C_25  and  N_27
REMARK                            x       y       z     vdW  Elec       q    Type
REMARK                         _______ _______ _______ _____ _____    ______ ____
ROOT
ATOM      1  C   UNL     1       3.181   3.129  -0.750  0.00  0.00    +0.061 C 
ATOM      2  C   UNL     1       1.755   2.640  -0.768  0.00  0.00    +0.019 C 
ATOM      3  C   UNL     1       1.398   1.597  -0.003  0.00  0.00    +0.058 C 
ATOM      4  C   UNL     1      -0.013   1.086   0.008  0.00  0.00    +0.096 C 
ATOM      5  C   UNL     1      -0.777   1.577  -1.196  0.00  0.00    +0.024 C 
ATOM      6  C   UNL     1      -0.328   2.626  -1.917  0.00  0.00    +0.016 C 
ATOM      7  N   UNL     1       0.832   3.263  -1.568  0.00  0.00    -0.320 N 
ATOM      8  C   UNL     1      -1.085   3.120  -3.125  0.00  0.00    +0.059 C 
ATOM      9  C   UNL     1      -2.581   2.863  -2.935  0.00  0.00    +0.032 C 
ATOM     10  C   UNL     1      -2.792   1.360  -2.719  0.00  0.00    +0.088 C 
ATOM     11  C   UNL     1      -1.967   0.915  -1.542  0.00  0.00    +0.162 C 
ATOM     12  O   UNL     1      -2.336  -0.035  -0.880  0.00  0.00    -0.292 OA
ATOM     13  H   UNL     1       1.021   4.283  -1.934  0.00  0.00    +0.152 HD
ENDROOT
BRANCH   9  14
ATOM     14  C   UNL     1      -3.332   3.308  -4.163  0.00  0.00    -0.044 A 
ATOM     15  C   UNL     1      -3.046   2.741  -5.391  0.00  0.00    +0.004 A 
ATOM     16  C   UNL     1      -3.738   3.146  -6.517  0.00  0.00    +0.000 A 
ATOM     17  C   UNL     1      -4.708   4.126  -6.417  0.00  0.00    +0.000 A 
ATOM     18  C   UNL     1      -4.990   4.696  -5.190  0.00  0.00    +0.000 A 
ATOM     19  C   UNL     1      -4.302   4.288  -4.063  0.00  0.00    +0.004 A 
ENDBRANCH   9  14
BRANCH   4  20
ATOM     20  C   UNL     1      -0.703   1.564   1.260  0.00  0.00    -0.033 A 
ATOM     21  C   UNL     1      -0.846   2.919   1.495  0.00  0.00    +0.005 A 
ATOM     22  C   UNL     1      -1.479   3.357   2.643  0.00  0.00    +0.003 A 
ATOM     23  C   UNL     1      -1.969   2.441   3.555  0.00  0.00    +0.033 A 
ATOM     24  C   UNL     1      -1.826   1.087   3.319  0.00  0.00    +0.126 A 
ATOM     25  C   UNL     1      -1.197   0.648   2.169  0.00  0.00    +0.037 A 
BRANCH  24  26
ATOM     26  N   UNL     1      -2.351   0.106   4.296  0.00  0.00    +0.056 N 
ATOM     27  O   UNL     1      -2.909   0.493   5.308  0.00  0.00    -0.126 OA
ATOM     28  O   UNL     1      -2.225  -1.087   4.088  0.00  0.00    -0.126 OA
ENDBRANCH  24  26
ENDBRANCH   4  20
BRANCH   3  29
ATOM     29  C   UNL     1       2.382   0.961   0.820  0.00  0.00    +0.097 C 
ATOM     30  N   UNL     1       3.162   0.455   1.472  0.00  0.00    -0.191 NA
ENDBRANCH   3  29
TORSDOF 4
