REMARK  Name = ZINC39637449
REMARK  8 active torsions:
REMARK  status: ('A' for Active; 'I' for Inactive)
REMARK    1  A    between atoms: C_1  and  C_2
REMARK    2  A    between atoms: C_7  and  N_12
REMARK    3  A    between atoms: C_9  and  C_11
REMARK    4  A    between atoms: C_13  and  C_15
REMARK    5  A    between atoms: C_26  and  C_28
REMARK    6  A    between atoms: C_34  and  O_36
REMARK    7  A    between atoms: O_36  and  C_37
REMARK    8  A    between atoms: C_37  and  C_38
REMARK                            x       y       z     vdW  Elec       q    Type
REMARK                         _______ _______ _______ _____ _____    ______ ____
ROOT
ATOM      1  C   UNL     1       2.785  -4.239   3.627  0.00  0.00    +0.100 C 
ATOM      2  C   UNL     1       4.061  -3.403   3.871  0.00  0.00    +0.121 C 
ATOM      3  N   UNL     1       5.065  -4.383   4.351  0.00  0.00    -0.300 N 
ATOM      4  C   UNL     1       4.825  -5.591   3.525  0.00  0.00    +0.115 C 
ATOM      5  C   UNL     1       3.290  -5.674   3.400  0.00  0.00    -0.004 C 
ATOM      6  C   UNL     1       2.901  -6.157   2.006  0.00  0.00    -0.010 C 
ATOM      7  C   UNL     1       3.363  -7.606   1.825  0.00  0.00    -0.082 C 
ATOM      8  N   UNL     1       2.739  -8.452   2.849  0.00  0.00    +0.379 N 
ATOM      9  C   UNL     1       3.192  -8.039   4.183  0.00  0.00    -0.082 C 
ATOM     10  C   UNL     1       2.723  -6.609   4.464  0.00  0.00    -0.010 C 
ATOM     11  C   UNL     1       5.987  -4.214   5.319  0.00  0.00    +0.219 C 
ATOM     12  O   UNL     1       6.744  -5.118   5.600  0.00  0.00    -0.275 OA
ATOM     13  H   UNL     1       1.736  -8.361   2.793  0.00  0.00    -0.086 HD
ATOM     14  H   UNL     1       2.997  -9.414   2.691  0.00  0.00    -0.086 HD
ENDROOT
BRANCH  11  15
ATOM     15  C   UNL     1       6.076  -2.901   6.053  0.00  0.00    +0.078 C 
ATOM     16  C   UNL     1       6.375  -1.778   5.057  0.00  0.00    +0.032 C 
ATOM     17  C   UNL     1       6.431  -0.441   5.802  0.00  0.00    +0.112 C 
ATOM     18  N   UNL     1       7.404  -0.550   6.897  0.00  0.00    -0.267 N 
ATOM     19  C   UNL     1       7.262  -1.650   7.861  0.00  0.00    +0.112 C 
ATOM     20  C   UNL     1       7.197  -2.974   7.093  0.00  0.00    +0.032 C 
ATOM     21  C   UNL     1       8.408   0.341   7.015  0.00  0.00    +0.403 C 
ATOM     22  O   UNL     1       8.515   1.246   6.210  0.00  0.00    -0.226 OA
BRANCH  21  23
ATOM     23  O   UNL     1       9.293   0.229   8.023  0.00  0.00    -0.445 OA
BRANCH  23  24
ATOM     24  C   UNL     1      10.332   1.209   8.087  0.00  0.00    +0.269 C 
BRANCH  24  25
ATOM     25  C   UNL     1      11.219   0.924   9.272  0.00  0.00    -0.010 A 
ATOM     26  C   UNL     1      10.927   1.481  10.503  0.00  0.00    +0.007 A 
ATOM     27  C   UNL     1      11.741   1.220  11.589  0.00  0.00    +0.000 A 
ATOM     28  C   UNL     1      12.845   0.402  11.445  0.00  0.00    +0.000 A 
ATOM     29  C   UNL     1      13.136  -0.156  10.214  0.00  0.00    +0.000 A 
ATOM     30  C   UNL     1      12.320   0.101   9.129  0.00  0.00    +0.007 A 
ENDBRANCH  24  25
ENDBRANCH  23  24
ENDBRANCH  21  23
ENDBRANCH  11  15
BRANCH   1  32
ATOM     31  N   UNL     1       0.719  -3.878   2.316  0.00  0.00    -0.312 N 
ATOM     32  C   UNL     1       2.056  -3.740   2.406  0.00  0.00    +0.218 C 
ATOM     33  O   UNL     1       2.674  -3.214   1.504  0.00  0.00    -0.275 OA
ATOM     34  H   UNL     1       0.225  -4.299   3.038  0.00  0.00    +0.149 HD
BRANCH  31  40
ATOM     35  C   UNL     1      -3.638  -2.271   0.618  0.00  0.00    +0.008 C 
ATOM     36  C   UNL     1      -2.184  -2.579   0.254  0.00  0.00    -0.009 C 
ATOM     37  C   UNL     1      -2.147  -3.652  -0.836  0.00  0.00    +0.003 C 
ATOM     38  C   UNL     1      -0.693  -3.959  -1.200  0.00  0.00    +0.002 C 
ATOM     39  C   UNL     1       0.047  -4.466   0.039  0.00  0.00    +0.022 C 
ATOM     40  C   UNL     1       0.010  -3.393   1.129  0.00  0.00    +0.076 C 
ATOM     41  C   UNL     1      -1.444  -3.086   1.494  0.00  0.00    +0.009 C 
ATOM     42  C   UNL     1      -2.121  -4.358   2.007  0.00  0.00    +0.009 C 
ENDBRANCH  31  40
ENDBRANCH   1  32
TORSDOF 6
