REMARK  Name = ZINC44938092
REMARK  4 active torsions:
REMARK  status: ('A' for Active; 'I' for Inactive)
REMARK    1  A    between atoms: C_4  and  N_11
REMARK    2  A    between atoms: C_5  and  C_7
REMARK    3  A    between atoms: N_13  and  C_28
REMARK    4  A    between atoms: C_14  and  C_17
REMARK                            x       y       z     vdW  Elec       q    Type
REMARK                         _______ _______ _______ _____ _____    ______ ____
ROOT
ATOM      1  N   UNL     1       3.554  -0.505   0.177  0.00  0.00    -0.294 N 
ATOM      2  C   UNL     1       4.769   0.125  -0.033  0.00  0.00    +0.148 A 
ATOM      3  N   UNL     1       5.986  -0.400  -0.100  0.00  0.00    -0.291 N 
ATOM      4  C   UNL     1       7.055   0.375  -0.312  0.00  0.00    +0.062 A 
ATOM      5  C   UNL     1       6.885   1.720  -0.461  0.00  0.00    +0.075 A 
ATOM      6  S   UNL     1       5.111   1.860  -0.293  0.00  0.00    -0.061 S 
ATOM      7  H   UNL     1       3.529  -1.449   0.397  0.00  0.00    +0.154 HD
ENDROOT
BRANCH   4   8
ATOM      8  C   UNL     1       8.410  -0.222  -0.385  0.00  0.00    -0.000 A 
ATOM      9  C   UNL     1       8.584  -1.497  -0.922  0.00  0.00    +0.012 A 
ATOM     10  C   UNL     1       9.845  -2.049  -0.989  0.00  0.00    +0.024 A 
ATOM     11  C   UNL     1      10.943  -1.337  -0.521  0.00  0.00    +0.037 A 
ATOM     12  C   UNL     1      10.772  -0.066   0.015  0.00  0.00    -0.025 A 
ATOM     13  C   UNL     1       9.514   0.493   0.079  0.00  0.00    +0.015 A 
ATOM     14  C   UNL     1      11.966   0.702   0.519  0.00  0.00    +0.046 C 
ATOM     15  C   UNL     1      12.982  -0.270   1.121  0.00  0.00    +0.101 C 
ATOM     16  C   UNL     1      13.222  -1.413   0.171  0.00  0.00    +0.218 C 
ATOM     17  O   UNL     1      14.329  -1.902   0.089  0.00  0.00    -0.275 OA
ATOM     18  N   UNL     1      12.223  -1.898  -0.589  0.00  0.00    -0.285 N 
ATOM     19  H   UNL     1      12.391  -2.642  -1.187  0.00  0.00    +0.155 HD
ENDBRANCH   4   8
BRANCH   3  20
ATOM     20  C   UNL     1       6.151  -1.761   0.051  0.00  0.00    +0.050 A 
ATOM     21  C   UNL     1       6.810  -2.253   1.193  0.00  0.00    +0.028 A 
ATOM     22  C   UNL     1       6.997  -3.579   1.389  0.00  0.00    +0.032 A 
ATOM     23  C   UNL     1       6.525  -4.507   0.434  0.00  0.00    +0.093 A 
ATOM     24  C   UNL     1       5.834  -4.003  -0.763  0.00  0.00    +0.021 A 
ATOM     25  C   UNL     1       5.661  -2.611  -0.915  0.00  0.00    +0.037 A 
ATOM     26  C   UNL     1       5.487  -5.113  -1.511  0.00  0.00    +0.113 A 
ATOM     27  N   UNL     1       5.915  -6.202  -0.855  0.00  0.00    -0.284 N 
ATOM     28  N   UNL     1       6.549  -5.824   0.334  0.00  0.00    -0.174 NA
ATOM     29  H   UNL     1       5.802  -7.116  -1.159  0.00  0.00    +0.188 HD
ENDBRANCH   3  20
BRANCH   1  33
ATOM     30  C   UNL     1       0.006   1.654  -0.137  0.00  0.00    +0.001 A 
ATOM     31  C   UNL     1       1.135   2.079  -0.814  0.00  0.00    +0.002 A 
ATOM     32  C   UNL     1       2.313   1.366  -0.712  0.00  0.00    +0.024 A 
ATOM     33  C   UNL     1       2.364   0.220   0.072  0.00  0.00    +0.044 A 
ATOM     34  C   UNL     1       1.228  -0.204   0.750  0.00  0.00    +0.076 A 
ATOM     35  C   UNL     1       0.053   0.514   0.644  0.00  0.00    +0.014 A 
BRANCH  34  36
ATOM     36  C   UNL     1       1.278  -1.447   1.601  0.00  0.00    +0.419 C 
ATOM     37  F   UNL     1       0.023  -1.668   2.178  0.00  0.00    -0.166 F 
ATOM     38  F   UNL     1       1.625  -2.544   0.805  0.00  0.00    -0.166 F 
ATOM     39  F   UNL     1       2.233  -1.283   2.611  0.00  0.00    -0.166 F 
ENDBRANCH  34  36
ENDBRANCH   1  33
TORSDOF 4
