REMARK  Name = ZINC40140888
REMARK  8 active torsions:
REMARK  status: ('A' for Active; 'I' for Inactive)
REMARK    1  A    between atoms: C_1  and  C_2
REMARK    2  A    between atoms: C_2  and  N_3
REMARK    3  A    between atoms: N_3  and  C_4
REMARK    4  A    between atoms: N_3  and  C_6
REMARK    5  A    between atoms: C_4  and  C_5
REMARK    6  A    between atoms: C_9  and  C_12
REMARK    7  A    between atoms: N_13  and  C_14
REMARK    8  A    between atoms: C_16  and  C_27
REMARK                            x       y       z     vdW  Elec       q    Type
REMARK                         _______ _______ _______ _____ _____    ______ ____
ROOT
ATOM      1  C   UNL     1      -2.405  -2.099  -8.216  0.00  0.00    +0.222 C 
ATOM      2  C   UNL     1      -1.906  -1.131  -9.271  0.00  0.00    +0.002 C 
ATOM      3  C   UNL     1      -1.401  -1.684 -10.451  0.00  0.00    +0.003 A 
ATOM      4  C   UNL     1      -0.916  -0.857 -11.485  0.00  0.00    +0.025 A 
ATOM      5  C   UNL     1      -0.428  -1.421 -12.624  0.00  0.00    +0.019 A 
ATOM      6  C   UNL     1      -0.398  -2.805 -12.790  0.00  0.00    +0.017 A 
ATOM      7  C   UNL     1      -0.852  -3.654 -11.828  0.00  0.00    +0.025 A 
ATOM      8  C   UNL     1      -1.370  -3.141 -10.625  0.00  0.00    +0.041 A 
ATOM      9  N   UNL     1      -1.815  -3.977  -9.681  0.00  0.00    -0.283 N 
ATOM     10  C   UNL     1      -2.312  -3.575  -8.529  0.00  0.00    +0.246 C 
ATOM     11  O   UNL     1      -2.698  -4.394  -7.716  0.00  0.00    -0.273 OA
ATOM     12 BR   UNL     1       0.220  -0.307 -14.007  0.00  0.00    -0.050 Br
ATOM     13  H   UNL     1      -1.770  -4.930  -9.854  0.00  0.00    +0.155 HD
ENDROOT
BRANCH   2  14
ATOM     14  C   UNL     1      -1.951   0.272  -9.071  0.00  0.00    -0.019 A 
ATOM     15  C   UNL     1      -0.761   1.014  -9.000  0.00  0.00    +0.008 A 
ATOM     16  C   UNL     1      -0.816   2.376  -8.806  0.00  0.00    +0.001 A 
ATOM     17  C   UNL     1      -2.039   3.014  -8.680  0.00  0.00    +0.000 A 
ATOM     18  C   UNL     1      -3.219   2.291  -8.748  0.00  0.00    +0.001 A 
ATOM     19  C   UNL     1      -3.187   0.929  -8.948  0.00  0.00    +0.008 A 
ENDBRANCH   2  14
BRANCH   1  21
ATOM     20  C   UNL     1      -2.258  -1.429  -5.925  0.00  0.00    +0.114 C 
ATOM     21  N   UNL     1      -1.648  -1.852  -6.986  0.00  0.00    -0.274 NA
BRANCH  20  25
ATOM     22  C   UNL     1      -0.065  -0.714  -2.361  0.00  0.00    +0.030 A 
ATOM     23  C   UNL     1      -1.439  -0.494  -2.387  0.00  0.00    +0.024 A 
ATOM     24  C   UNL     1      -2.153  -0.725  -3.541  0.00  0.00    +0.011 A 
ATOM     25  C   UNL     1      -1.496  -1.181  -4.688  0.00  0.00    -0.007 A 
ATOM     26  C   UNL     1      -0.116  -1.401  -4.658  0.00  0.00    +0.011 A 
ATOM     27  C   UNL     1       0.593  -1.163  -3.502  0.00  0.00    +0.024 A 
BRANCH  22  28
ATOM     28  N   UNL     1       0.654  -0.479  -1.192  0.00  0.00    -0.330 N 
BRANCH  28  30
ATOM     29  C   UNL     1      -0.056   1.523   0.019  0.00  0.00    +0.024 C 
ATOM     30  C   UNL     1      -0.037  -0.006   0.010  0.00  0.00    +0.102 C 
ENDBRANCH  28  30
BRANCH  28  31
ATOM     31  C   UNL     1       2.101  -0.705  -1.165  0.00  0.00    +0.102 C 
ATOM     32  C   UNL     1       2.385  -2.148  -0.745  0.00  0.00    +0.024 C 
ENDBRANCH  28  31
ENDBRANCH  22  28
ENDBRANCH  20  25
ENDBRANCH   1  21
TORSDOF 6
