REMARK  Name = ZINC27575792
REMARK  11 active torsions:
REMARK  status: ('A' for Active; 'I' for Inactive)
REMARK    1  A    between atoms: C_1  and  C_2
REMARK    2  A    between atoms: C_3  and  C_14
REMARK    3  A    between atoms: C_4  and  C_13
REMARK    4  A    between atoms: C_9  and  S_11
REMARK    5  A    between atoms: S_11  and  C_12
REMARK    6  A    between atoms: C_14  and  C_15
REMARK    7  A    between atoms: N_17  and  C_18
REMARK    8  A    between atoms: C_18  and  C_19
REMARK    9  A    between atoms: C_19  and  C_21
REMARK   10  A    between atoms: C_19  and  N_26
REMARK   11  A    between atoms: C_29  and  C_32
REMARK                            x       y       z     vdW  Elec       q    Type
REMARK                         _______ _______ _______ _____ _____    ______ ____
ROOT
ATOM      1  C   UNL     1       0.087  -2.675  -2.008  0.00  0.00    +0.217 C 
ATOM      2  O   UNL     1      -0.171  -2.095  -3.041  0.00  0.00    -0.275 OA
ATOM      3  N   UNL     1       0.551  -3.940  -2.043  0.00  0.00    -0.316 N 
ATOM      4  H   UNL     1       0.785  -4.466  -1.106  0.00  0.00    +0.149 HD
ENDROOT
BRANCH   1   5
ATOM      5  C   UNL     1      -0.109  -1.981  -0.685  0.00  0.00    +0.134 C 
BRANCH   5   8
ATOM      6  C   UNL     1      -2.977  -1.491  -0.810  0.00  0.00    +0.066 C 
ATOM      7  C   UNL     1      -2.009  -0.349  -0.982  0.00  0.00    +0.047 A 
ATOM      8  C   UNL     1      -0.631  -0.588  -0.921  0.00  0.00    +0.004 A 
ATOM      9  C   UNL     1       0.230   0.452  -1.077  0.00  0.00    +0.049 A 
ATOM     10  N   UNL     1      -0.271   1.697  -1.288  0.00  0.00    -0.200 N 
ATOM     11  C   UNL     1      -1.621   1.897  -1.343  0.00  0.00    +0.254 A 
ATOM     12  N   UNL     1      -2.462   0.868  -1.188  0.00  0.00    -0.216 NA
ATOM     13  N   UNL     1      -1.822   3.193  -1.557  0.00  0.00    -0.183 NA
ATOM     14  C   UNL     1      -0.652   3.821  -1.641  0.00  0.00    +0.211 A 
ATOM     15  N   UNL     1       0.325   2.950  -1.483  0.00  0.00    -0.137 NA
ATOM     16  C   UNL     1       1.719   0.227  -1.017  0.00  0.00    +0.066 C 
BRANCH  14  17
ATOM     17  S   UNL     1      -0.441   5.548  -1.919  0.00  0.00    -0.088 S 
ATOM     18  C   UNL     1      -2.136   6.181  -2.049  0.00  0.00    +0.093 C 
ENDBRANCH  14  17
ENDBRANCH   5   8
ENDBRANCH   1   5
BRANCH   3  19
ATOM     19  C   UNL     1       0.742  -4.615  -3.329  0.00  0.00    +0.094 C 
BRANCH  19  20
ATOM     20  C   UNL     1       1.272  -6.030  -3.089  0.00  0.00    -0.013 C 
BRANCH  20  21
ATOM     21  N   UNL     1       0.365  -6.745  -2.181  0.00  0.00    +0.386 N 
ATOM     22  C   UNL     1      -1.033  -6.588  -2.602  0.00  0.00    -0.078 C 
ATOM     23  C   UNL     1      -1.956  -7.220  -1.558  0.00  0.00    -0.015 C 
ATOM     24  C   UNL     1      -1.611  -8.705  -1.412  0.00  0.00    -0.018 C 
ATOM     25  C   UNL     1      -0.137  -8.843  -1.020  0.00  0.00    -0.015 C 
ATOM     26  C   UNL     1       0.733  -8.164  -2.080  0.00  0.00    -0.078 C 
ATOM     27  C   UNL     1      -2.490  -9.329  -0.326  0.00  0.00    +0.007 C 
ATOM     28  H   UNL     1       0.466  -6.301  -1.180  0.00  0.00    -0.081 HD
ENDBRANCH  20  21
BRANCH  20  29
ATOM     29  C   UNL     1       1.352  -6.766  -4.402  0.00  0.00    -0.022 A 
ATOM     30  C   UNL     1       2.448  -7.116  -5.119  0.00  0.00    +0.009 A 
ATOM     31  C   UNL     1       2.280  -7.796  -6.310  0.00  0.00    +0.008 A 
ATOM     32  C   UNL     1       1.025  -8.094  -6.726  0.00  0.00    +0.045 A 
ATOM     33  S   UNL     1       0.029  -7.410  -5.413  0.00  0.00    -0.103 S 
ENDBRANCH  20  29
ENDBRANCH  19  20
ENDBRANCH   3  19
TORSDOF 7
