REMARK  Name = ZINC22518171
REMARK  11 active torsions:
REMARK  status: ('A' for Active; 'I' for Inactive)
REMARK    1  A    between atoms: C_1  and  C_2
REMARK    2  A    between atoms: C_2  and  O_3
REMARK    3  A    between atoms: O_3  and  C_4
REMARK    4  A    between atoms: C_4  and  C_6
REMARK    5  A    between atoms: C_7  and  C_19
REMARK    6  A    between atoms: C_12  and  C_14
REMARK    7  A    between atoms: C_19  and  S_20
REMARK    8  A    between atoms: S_20  and  C_21
REMARK    9  A    between atoms: N_25  and  C_26
REMARK   10  A    between atoms: C_29  and  C_33
REMARK   11  A    between atoms: C_31  and  C_32
REMARK                            x       y       z     vdW  Elec       q    Type
REMARK                         _______ _______ _______ _____ _____    ______ ____
ROOT
ATOM      1  C   UNL     1       2.075  -2.139   1.443  0.00  0.00    +0.082 C 
ATOM      2  C   UNL     1       3.332  -2.513   1.768  0.00  0.00    +0.034 C 
ATOM      3  N   UNL     1       4.305  -2.615   0.816  0.00  0.00    -0.272 N 
ATOM      4  C   UNL     1       4.102  -2.362  -0.483  0.00  0.00    +0.304 C 
ATOM      5  O   UNL     1       5.032  -2.482  -1.258  0.00  0.00    -0.252 OA
ATOM      6  N   UNL     1       2.901  -1.980  -0.961  0.00  0.00    -0.285 N 
ATOM      7  C   UNL     1       1.783  -1.839  -0.013  0.00  0.00    +0.179 C 
ATOM      8  H   UNL     1       5.323  -2.921   1.100  0.00  0.00    +0.156 HD
ATOM      9  H   UNL     1       2.745  -1.774  -2.030  0.00  0.00    +0.151 HD
ENDROOT
BRANCH   7  10
ATOM     10  C   UNL     1       1.274  -0.423  -0.102  0.00  0.00    +0.130 A 
ATOM     11  C   UNL     1      -0.017  -0.048  -0.070  0.00  0.00    +0.047 A 
ATOM     12  C   UNL     1      -0.037   1.361  -0.183  0.00  0.00    +0.041 A 
ATOM     13  C   UNL     1       1.243   1.763  -0.278  0.00  0.00    +0.195 A 
ATOM     14  O   UNL     1       2.033   0.678  -0.229  0.00  0.00    -0.466 OA
ENDBRANCH   7  10
BRANCH   1  15
ATOM     15  C   UNL     1       1.066  -2.031   2.429  0.00  0.00    +0.339 C 
ATOM     16  O   UNL     1       0.244  -2.919   2.557  0.00  0.00    -0.245 OA
BRANCH  15  17
ATOM     17  O   UNL     1       1.015  -0.944   3.226  0.00  0.00    -0.462 OA
BRANCH  17  19
ATOM     18  C   UNL     1       0.073   0.396   5.003  0.00  0.00    +0.048 C 
ATOM     19  C   UNL     1      -0.030  -0.902   4.200  0.00  0.00    +0.229 C 
ENDBRANCH  17  19
ENDBRANCH  15  17
ENDBRANCH   1  15
BRANCH   2  20
ATOM     20  C   UNL     1       3.665  -2.822   3.205  0.00  0.00    +0.128 C 
BRANCH  20  21
ATOM     21  S   UNL     1       3.798  -4.614   3.422  0.00  0.00    -0.081 S 
BRANCH  21  22
ATOM     22  C   UNL     1       4.182  -4.686   5.140  0.00  0.00    +0.174 A 
ATOM     23  N   UNL     1       4.311  -3.656   5.942  0.00  0.00    -0.230 NA
ATOM     24  C   UNL     1       4.605  -4.089   7.180  0.00  0.00    +0.131 A 
ATOM     25  C   UNL     1       4.664  -5.432   7.157  0.00  0.00    +0.113 A 
ATOM     26  N   UNL     1       4.391  -5.824   5.863  0.00  0.00    -0.294 N 
BRANCH  26  27
ATOM     27  C   UNL     1       4.341  -7.140   5.383  0.00  0.00    +0.051 A 
ATOM     28  C   UNL     1       3.367  -8.013   5.848  0.00  0.00    +0.027 A 
ATOM     29  C   UNL     1       3.317  -9.307   5.369  0.00  0.00    +0.005 A 
ATOM     30  C   UNL     1       4.242  -9.737   4.435  0.00  0.00    -0.050 A 
ATOM     31  C   UNL     1       5.216  -8.871   3.974  0.00  0.00    +0.008 A 
ATOM     32  C   UNL     1       5.268  -7.574   4.445  0.00  0.00    -0.026 A 
ATOM     33  C   UNL     1       6.330  -6.630   3.943  0.00  0.00    +0.046 C 
ATOM     34  C   UNL     1       4.188 -11.152   3.919  0.00  0.00    +0.044 C 
ENDBRANCH  26  27
ENDBRANCH  21  22
ENDBRANCH  20  21
ENDBRANCH   2  20
TORSDOF 8
