REMARK  Name = ZINC06134589
REMARK  13 active torsions:
REMARK  status: ('A' for Active; 'I' for Inactive)
REMARK    1  A    between atoms: C_1  and  C_2
REMARK    2  A    between atoms: C_2  and  C_3
REMARK    3  A    between atoms: C_2  and  C_4
REMARK    4  A    between atoms: C_4  and  C_5
REMARK    5  A    between atoms: C_5  and  N_6
REMARK    6  A    between atoms: C_7  and  C_9
REMARK    7  A    between atoms: C_9  and  C_11
REMARK    8  A    between atoms: C_9  and  N_16
REMARK    9  A    between atoms: N_16  and  C_17
REMARK   10  A    between atoms: C_17  and  C_18
REMARK   11  A    between atoms: C_23  and  C_25
REMARK   12  A    between atoms: C_25  and  N_26
REMARK   13  A    between atoms: C_28  and  C_31
REMARK                            x       y       z     vdW  Elec       q    Type
REMARK                         _______ _______ _______ _____ _____    ______ ____
ROOT
ATOM      1  N   UNL     1      -3.039   0.930   1.328  0.00  0.00    -0.277 N 
ATOM      2  C   UNL     1      -2.595  -0.226   1.860  0.00  0.00    +0.240 C 
ATOM      3  O   UNL     1      -2.788  -0.468   3.033  0.00  0.00    -0.273 OA
ENDROOT
BRANCH   1   4
ATOM      4  C   UNL     1      -3.757   1.893   2.167  0.00  0.00    +0.228 C 
BRANCH   4   5
ATOM      5  C   UNL     1      -5.030   1.267   2.675  0.00  0.00    +0.134 A 
ATOM      6  C   UNL     1      -6.214   1.891   2.811  0.00  0.00    +0.047 A 
ATOM      7  C   UNL     1      -7.125   0.936   3.317  0.00  0.00    +0.041 A 
ATOM      8  C   UNL     1      -6.443  -0.215   3.459  0.00  0.00    +0.195 A 
ATOM      9  O   UNL     1      -5.176  -0.010   3.063  0.00  0.00    -0.465 OA
ENDBRANCH   4   5
BRANCH   4  11
ATOM     10  N   UNL     1      -3.345   3.170   4.245  0.00  0.00    -0.313 N 
ATOM     11  C   UNL     1      -2.889   2.287   3.334  0.00  0.00    +0.241 C 
ATOM     12  O   UNL     1      -1.781   1.810   3.455  0.00  0.00    -0.273 OA
ATOM     13  H   UNL     1      -4.232   3.552   4.149  0.00  0.00    +0.149 HD
BRANCH  10  14
ATOM     14  C   UNL     1      -2.502   3.552   5.380  0.00  0.00    +0.104 C 
BRANCH  14  15
ATOM     15  C   UNL     1      -3.251   4.559   6.256  0.00  0.00    +0.022 C 
BRANCH  15  17
ATOM     16  C   UNL     1      -1.137   5.705   6.931  0.00  0.00    +0.007 C 
ATOM     17  C   UNL     1      -2.371   4.958   7.442  0.00  0.00    -0.016 C 
ATOM     18  C   UNL     1      -3.164   5.867   8.383  0.00  0.00    +0.007 C 
ENDBRANCH  15  17
ENDBRANCH  14  15
ENDBRANCH  10  14
ENDBRANCH   4  11
ENDBRANCH   1   4
BRANCH   1  19
ATOM     19  C   UNL     1      -2.805   1.222  -0.088  0.00  0.00    +0.151 C 
BRANCH  19  20
ATOM     20  C   UNL     1      -1.555   2.051  -0.230  0.00  0.00    +0.007 A 
ATOM     21  C   UNL     1      -0.276   1.643  -0.413  0.00  0.00    +0.013 A 
ATOM     22  C   UNL     1       0.722   2.592  -0.524  0.00  0.00    +0.008 A 
ATOM     23  C   UNL     1       0.393   3.905  -0.441  0.00  0.00    +0.045 A 
ATOM     24  S   UNL     1      -1.374   3.827  -0.199  0.00  0.00    -0.100 S 
ENDBRANCH  19  20
ENDBRANCH   1  19
BRANCH   2  25
ATOM     25  C   UNL     1      -1.857  -1.217   0.998  0.00  0.00    +0.264 C 
BRANCH  25  26
ATOM     26  N   UNL     1      -1.482  -2.382   1.804  0.00  0.00    -0.154 N 
ATOM     27  N   UNL     1      -0.378  -2.512   2.456  0.00  0.00    -0.130 NA
ATOM     28  C   UNL     1      -0.402  -3.685   3.058  0.00  0.00    +0.205 A 
ATOM     29  N   UNL     1      -1.568  -4.260   2.733  0.00  0.00    -0.108 NA
ATOM     30  N   UNL     1      -2.200  -3.437   1.968  0.00  0.00    -0.045 NA
BRANCH  28  31
ATOM     31  C   UNL     1       0.659  -4.259   3.924  0.00  0.00    +0.023 A 
ATOM     32  C   UNL     1       1.827  -3.540   4.167  0.00  0.00    +0.014 A 
ATOM     33  C   UNL     1       2.809  -4.074   4.976  0.00  0.00    +0.039 A 
ATOM     34  C   UNL     1       2.639  -5.330   5.537  0.00  0.00    +0.123 A 
ATOM     35  C   UNL     1       1.481  -6.051   5.294  0.00  0.00    +0.039 A 
ATOM     36  C   UNL     1       0.492  -5.521   4.490  0.00  0.00    +0.014 A 
ATOM     37  F   UNL     1       3.604  -5.852   6.325  0.00  0.00    -0.205 F 
ENDBRANCH  28  31
ENDBRANCH  25  26
ENDBRANCH   2  25
TORSDOF 11
