REMARK  Name = ZINC60015863
REMARK  14 active torsions:
REMARK  status: ('A' for Active; 'I' for Inactive)
REMARK    1  A    between atoms: C_1  and  C_2
REMARK    2  A    between atoms: C_5  and  C_35
REMARK    3  A    between atoms: N_8  and  C_10
REMARK    4  A    between atoms: C_10  and  C_11
REMARK    5  A    between atoms: C_11  and  C_13
REMARK    6  A    between atoms: C_11  and  N_14
REMARK    7  A    between atoms: C_15  and  C_17
REMARK    8  A    between atoms: C_17  and  C_19
REMARK    9  A    between atoms: C_17  and  N_23
REMARK   10  A    between atoms: C_19  and  C_20
REMARK   11  A    between atoms: C_20  and  S_21
REMARK   12  A    between atoms: S_21  and  C_22
REMARK   13  A    between atoms: C_24  and  C_26
REMARK   14  A    between atoms: C_30  and  N_32
REMARK                            x       y       z     vdW  Elec       q    Type
REMARK                         _______ _______ _______ _____ _____    ______ ____
ROOT
ATOM      1  C   UNL     1       5.072  -2.332  -0.961  0.00  0.00    +0.160 C 
ENDROOT
BRANCH   1   3
ATOM      2  N   UNL     1       3.510  -2.495   0.951  0.00  0.00    -0.313 N 
ATOM      3  C   UNL     1       4.540  -1.852   0.365  0.00  0.00    +0.234 C 
ATOM      4  O   UNL     1       5.038  -0.887   0.905  0.00  0.00    -0.274 OA
ATOM      5  H   UNL     1       3.112  -3.266   0.519  0.00  0.00    +0.149 HD
BRANCH   2   6
ATOM      6  C   UNL     1       2.993  -2.028   2.239  0.00  0.00    +0.053 C 
ATOM      7  C   UNL     1       3.825  -2.634   3.372  0.00  0.00    +0.026 C 
BRANCH   6   8
ATOM      8  C   UNL     1       1.534  -2.461   2.390  0.00  0.00    -0.057 C 
BRANCH   8  14
ATOM      9  C   UNL     1      -0.019   1.526   0.010  0.00  0.00    +0.005 C 
ATOM     10  C   UNL     1       0.002  -0.004   0.002  0.00  0.00    -0.031 C 
ATOM     11  C   UNL     1      -1.434  -0.535   0.015  0.00  0.00    +0.003 C 
ATOM     12  C   UNL     1      -1.402  -2.064   0.086  0.00  0.00    -0.031 C 
ATOM     13  C   UNL     1      -0.613  -2.496   1.324  0.00  0.00    -0.076 C 
ATOM     14  N   UNL     1       0.758  -1.980   1.239  0.00  0.00    +0.381 N 
ATOM     15  C   UNL     1       0.740  -0.512   1.242  0.00  0.00    -0.076 C 
ATOM     16  C   UNL     1      -0.728  -2.620  -1.170  0.00  0.00    +0.005 C 
ATOM     17  H   UNL     1       1.188  -2.307   0.386  0.00  0.00    -0.082 HD
ENDBRANCH   8  14
ENDBRANCH   6   8
ENDBRANCH   2   6
ENDBRANCH   1   3
BRANCH   1  18
ATOM     18  N   UNL     1       6.181  -1.472  -1.382  0.00  0.00    -0.300 N 
ATOM     19  C   UNL     1       7.122  -1.949  -2.221  0.00  0.00    +0.245 C 
ATOM     20  O   UNL     1       7.051  -3.092  -2.628  0.00  0.00    -0.270 OA
ATOM     21  H   UNL     1       6.238  -0.560  -1.057  0.00  0.00    +0.150 HD
BRANCH  19  22
ATOM     22  C   UNL     1       8.242  -1.082  -2.646  0.00  0.00    +0.039 A 
ATOM     23  C   UNL     1       8.330   0.229  -2.176  0.00  0.00    +0.013 A 
ATOM     24  C   UNL     1       9.377   1.033  -2.576  0.00  0.00    +0.003 A 
ATOM     25  C   UNL     1      10.339   0.542  -3.442  0.00  0.00    +0.033 A 
ATOM     26  C   UNL     1      10.257  -0.756  -3.911  0.00  0.00    +0.127 A 
ATOM     27  C   UNL     1       9.218  -1.573  -3.514  0.00  0.00    +0.045 A 
BRANCH  26  28
ATOM     28  N   UNL     1      11.289  -1.273  -4.838  0.00  0.00    +0.056 N 
ATOM     29  O   UNL     1      12.203  -0.560  -5.182  0.00  0.00    -0.126 OA
ATOM     30  O   UNL     1      11.219  -2.408  -5.249  0.00  0.00    -0.126 OA
ENDBRANCH  26  28
ENDBRANCH  19  22
ENDBRANCH   1  18
BRANCH   1  31
ATOM     31  C   UNL     1       3.958  -2.276  -2.008  0.00  0.00    +0.042 C 
BRANCH  31  32
ATOM     32  C   UNL     1       4.461  -2.879  -3.321  0.00  0.00    +0.071 C 
BRANCH  32  33
ATOM     33  S   UNL     1       3.140  -2.813  -4.562  0.00  0.00    -0.164 S 
ATOM     34  C   UNL     1       3.888  -3.556  -6.039  0.00  0.00    +0.084 C 
ENDBRANCH  32  33
ENDBRANCH  31  32
ENDBRANCH   1  31
TORSDOF 10
