REMARK  Name = ZINC40814535
REMARK  9 active torsions:
REMARK  status: ('A' for Active; 'I' for Inactive)
REMARK    1  A    between atoms: C_1  and  C_2
REMARK    2  A    between atoms: C_6  and  C_7
REMARK    3  A    between atoms: N_9  and  C_10
REMARK    4  A    between atoms: N_9  and  C_11
REMARK    5  A    between atoms: N_14  and  C_17
REMARK    6  A    between atoms: N_22  and  N_23
REMARK    7  A    between atoms: C_24  and  C_26
REMARK    8  A    between atoms: C_26  and  C_27
REMARK    9  A    between atoms: C_30  and  N_33
REMARK                            x       y       z     vdW  Elec       q    Type
REMARK                         _______ _______ _______ _____ _____    ______ ____
ROOT
ATOM      1  C   UNL     1       0.652   1.487   0.072  0.00  0.00    +0.048 C 
ATOM      2  C   UNL     1       0.699  -0.020   0.079  0.00  0.00    +0.009 A 
ATOM      3  C   UNL     1       0.936  -0.858  -1.018  0.00  0.00    +0.042 A 
ATOM      4  C   UNL     1       0.888  -2.155  -0.564  0.00  0.00    +0.115 A 
ATOM      5  O   UNL     1       0.639  -2.124   0.743  0.00  0.00    -0.454 OA
ATOM      6  C   UNL     1       0.524  -0.841   1.157  0.00  0.00    +0.193 A 
ATOM      7  C   UNL     1       1.093  -3.347  -1.464  0.00  0.00    +0.075 C 
ATOM      8  C   UNL     1       0.836  -2.938  -2.916  0.00  0.00    +0.014 C 
ATOM      9  C   UNL     1       1.672  -1.708  -3.287  0.00  0.00    +0.058 C 
ATOM     10  C   UNL     1       1.201  -0.537  -2.438  0.00  0.00    +0.070 C 
ATOM     11  N   UNL     1       1.042   0.655  -2.924  0.00  0.00    -0.184 NA
ENDROOT
BRANCH   6  12
ATOM     12  C   UNL     1       0.253  -0.405   2.531  0.00  0.00    +0.282 C 
ATOM     13  O   UNL     1       0.300   0.777   2.815  0.00  0.00    -0.267 OA
ATOM     14  N   UNL     1      -0.049  -1.315   3.480  0.00  0.00    -0.295 N 
ATOM     15  C   UNL     1      -0.031  -2.743   3.157  0.00  0.00    +0.132 C 
BRANCH  14  16
ATOM     16  C   UNL     1      -0.394  -0.874   4.834  0.00  0.00    +0.073 C 
ATOM     17  C   UNL     1      -1.804  -1.357   5.186  0.00  0.00    +0.004 C 
ATOM     18  C   UNL     1      -2.127  -0.962   6.628  0.00  0.00    -0.077 C 
ATOM     19  N   UNL     1      -1.155  -1.580   7.538  0.00  0.00    +0.378 N 
ATOM     20  C   UNL     1       0.191  -1.067   7.253  0.00  0.00    -0.077 C 
ATOM     21  C   UNL     1       0.603  -1.466   5.835  0.00  0.00    +0.004 C 
ATOM     22  C   UNL     1      -1.515  -1.263   8.926  0.00  0.00    -0.096 C 
ATOM     23  H   UNL     1      -1.166  -2.581   7.410  0.00  0.00    -0.082 HD
ENDBRANCH  14  16
ENDBRANCH   6  12
BRANCH  11  24
ATOM     24  N   UNL     1       1.308   0.902  -4.277  0.00  0.00    -0.206 N 
ATOM     25  C   UNL     1       1.144   2.141  -4.781  0.00  0.00    +0.237 C 
ATOM     26  O   UNL     1       0.766   3.043  -4.063  0.00  0.00    -0.274 OA
ATOM     27  H   UNL     1       1.611   0.181  -4.851  0.00  0.00    +0.177 HD
BRANCH  25  28
ATOM     28  C   UNL     1       1.430   2.406  -6.237  0.00  0.00    +0.132 C 
BRANCH  28  29
ATOM     29  C   UNL     1       1.170   3.858  -6.544  0.00  0.00    -0.038 A 
ATOM     30  C   UNL     1      -0.088   4.264  -6.950  0.00  0.00    +0.006 A 
ATOM     31  C   UNL     1      -0.327   5.596  -7.231  0.00  0.00    +0.033 A 
ATOM     32  C   UNL     1       0.692   6.522  -7.106  0.00  0.00    +0.126 A 
ATOM     33  C   UNL     1       1.949   6.117  -6.699  0.00  0.00    +0.033 A 
ATOM     34  C   UNL     1       2.187   4.785  -6.413  0.00  0.00    +0.006 A 
BRANCH  32  35
ATOM     35  N   UNL     1       0.436   7.949  -7.409  0.00  0.00    +0.056 N 
ATOM     36  O   UNL     1      -0.663   8.303  -7.765  0.00  0.00    -0.126 OA
ATOM     37  O   UNL     1       1.327   8.759  -7.299  0.00  0.00    -0.126 OA
ENDBRANCH  32  35
ENDBRANCH  28  29
ENDBRANCH  25  28
ENDBRANCH  11  24
TORSDOF 6
