REMARK  Name = ZINC09302021
REMARK  15 active torsions:
REMARK  status: ('A' for Active; 'I' for Inactive)
REMARK    1  A    between atoms: C_1  and  C_2
REMARK    2  A    between atoms: C_2  and  N_70
REMARK    3  A    between atoms: C_3  and  C_4
REMARK    4  A    between atoms: C_3  and  N_70
REMARK    5  A    between atoms: C_5  and  C_6
REMARK    6  A    between atoms: C_5  and  N_70
REMARK    7  A    between atoms: C_6  and  N_7
REMARK    8  A    between atoms: C_8  and  C_28
REMARK    9  A    between atoms: C_11  and  C_12
REMARK   10  A    between atoms: C_11  and  O_23
REMARK   11  A    between atoms: C_18  and  O_21
REMARK   12  A    between atoms: O_21  and  C_22
REMARK   13  A    between atoms: C_31  and  C_34
REMARK   14  A    between atoms: C_34  and  C_35
REMARK   15  A    between atoms: C_34  and  C_36
REMARK                            x       y       z     vdW  Elec       q    Type
REMARK                         _______ _______ _______ _____ _____    ______ ____
ROOT
ATOM      1  N   UNL     1       1.570   4.354   0.854  0.00  0.00    -0.285 N 
ATOM      2  C   UNL     1       1.661   3.040   0.210  0.00  0.00    +0.144 C 
ATOM      3  C   UNL     1       1.671   3.288  -1.280  0.00  0.00    +0.074 C 
ATOM      4  C   UNL     1       1.746   2.333  -2.282  0.00  0.00    +0.168 C 
ATOM      5  C   UNL     1       1.589   4.678  -1.445  0.00  0.00    +0.249 C 
ATOM      6  O   UNL     1       1.571   5.271  -2.509  0.00  0.00    -0.282 OA
ATOM      7  C   UNL     1       1.528   5.303  -0.097  0.00  0.00    +0.288 C 
ATOM      8  O   UNL     1       1.453   6.496   0.113  0.00  0.00    -0.266 OA
ENDROOT
BRANCH   4   9
ATOM      9  C   UNL     1       1.859   2.748  -3.680  0.00  0.00    +0.171 A 
ATOM     10  C   UNL     1       1.106   2.265  -4.708  0.00  0.00    +0.061 A 
ATOM     11  C   UNL     1       1.536   2.933  -5.882  0.00  0.00    +0.025 A 
ATOM     12  C   UNL     1       1.151   2.870  -7.227  0.00  0.00    +0.012 A 
ATOM     13  C   UNL     1       1.777   3.657  -8.150  0.00  0.00    +0.004 A 
ATOM     14  C   UNL     1       2.795   4.521  -7.768  0.00  0.00    +0.049 A 
ATOM     15  C   UNL     1       3.191   4.601  -6.445  0.00  0.00    +0.163 A 
ATOM     16  C   UNL     1       2.565   3.806  -5.486  0.00  0.00    +0.177 A 
ATOM     17  O   UNL     1       2.730   3.665  -4.155  0.00  0.00    -0.448 OA
BRANCH  15  18
ATOM     18  O   UNL     1       4.188   5.451  -6.082  0.00  0.00    -0.491 OA
ATOM     19  C   UNL     1       4.782   6.235  -7.118  0.00  0.00    +0.277 C 
ENDBRANCH  15  18
ENDBRANCH   4   9
BRANCH   2  20
ATOM     20  C   UNL     1       0.469   2.198   0.585  0.00  0.00    -0.022 A 
ATOM     21  C   UNL     1       0.628   0.849   0.841  0.00  0.00    +0.006 A 
ATOM     22  C   UNL     1      -0.466   0.077   1.185  0.00  0.00    +0.004 A 
ATOM     23  C   UNL     1      -1.720   0.653   1.268  0.00  0.00    -0.045 A 
ATOM     24  C   UNL     1      -1.878   2.003   1.017  0.00  0.00    +0.004 A 
ATOM     25  C   UNL     1      -0.785   2.775   0.673  0.00  0.00    +0.006 A 
BRANCH  23  26
ATOM     26  C   UNL     1      -2.913  -0.191   1.636  0.00  0.00    +0.013 C 
ATOM     27  C   UNL     1      -3.548   0.356   2.917  0.00  0.00    +0.012 C 
ATOM     28  C   UNL     1      -3.938  -0.148   0.501  0.00  0.00    +0.012 C 
ENDBRANCH  23  26
ENDBRANCH   2  20
BRANCH   4  29
ATOM     29  O   UNL     1       1.716   1.020  -1.967  0.00  0.00    -0.503 OA
ATOM     30  H   UNL     1       1.779   0.475  -2.803  0.00  0.00    +0.292 HD
ENDBRANCH   4  29
BRANCH   1  31
ATOM     31  C   UNL     1       1.532   4.594   2.298  0.00  0.00    +0.090 C 
BRANCH  31  32
ATOM     32  C   UNL     1       2.958   4.766   2.825  0.00  0.00    -0.060 C 
BRANCH  32  33
ATOM     33  N   UNL     1       2.904   4.986   4.285  0.00  0.00    +0.380 N 
ATOM     34  H   UNL     1       2.339   4.243   4.714  0.00  0.00    -0.082 HD
BRANCH  33  36
ATOM     35  C   UNL     1       4.708   3.479   4.955  0.00  0.00    -0.017 C 
ATOM     36  C   UNL     1       4.268   4.941   4.854  0.00  0.00    -0.082 C 
ENDBRANCH  33  36
BRANCH  33  37
ATOM     37  C   UNL     1       2.278   6.293   4.577  0.00  0.00    -0.082 C 
ATOM     38  C   UNL     1       1.889   6.333   6.056  0.00  0.00    -0.017 C 
ENDBRANCH  33  37
ENDBRANCH  32  33
ENDBRANCH  31  32
ENDBRANCH   1  31
TORSDOF 10
