REMARK  Name = ZINC08756609
REMARK  8 active torsions:
REMARK  status: ('A' for Active; 'I' for Inactive)
REMARK    1  A    between atoms: C_4  and  C_7
REMARK    2  A    between atoms: C_7  and  N_8
REMARK    3  A    between atoms: C_9  and  C_29
REMARK    4  A    between atoms: C_12  and  S_13
REMARK    5  A    between atoms: S_13  and  C_14
REMARK    6  A    between atoms: C_14  and  C_15
REMARK    7  A    between atoms: C_21  and  C_22
REMARK    8  A    between atoms: C_21  and  N_60
REMARK                            x       y       z     vdW  Elec       q    Type
REMARK                         _______ _______ _______ _____ _____    ______ ____
ROOT
ATOM      1  N   UNL     1       0.152   0.266   0.259  0.00  0.00    -0.298 N 
ATOM      2  C   UNL     1       0.217   1.611  -0.026  0.00  0.00    +0.165 A 
ATOM      3  N   UNL     1       1.468   1.883  -0.320  0.00  0.00    -0.128 NA
ATOM      4  N   UNL     1       2.179   0.816  -0.240  0.00  0.00    -0.122 NA
ATOM      5  C   UNL     1       1.425  -0.204   0.111  0.00  0.00    +0.192 A 
ENDROOT
BRANCH   2   6
ATOM      6  C   UNL     1      -0.909   2.568  -0.009  0.00  0.00    +0.022 A 
ATOM      7  C   UNL     1      -2.196   2.171  -0.395  0.00  0.00    +0.031 A 
ATOM      8  C   UNL     1      -3.218   3.095  -0.359  0.00  0.00    +0.111 A 
ATOM      9  N   UNL     1      -2.995   4.339   0.021  0.00  0.00    -0.263 NA
ATOM     10  C   UNL     1      -1.797   4.756   0.386  0.00  0.00    +0.111 A 
ATOM     11  C   UNL     1      -0.719   3.897   0.387  0.00  0.00    +0.031 A 
ENDBRANCH   2   6
BRANCH   1  12
ATOM     12  C   UNL     1      -1.036  -0.501   0.641  0.00  0.00    +0.161 C 
BRANCH  12  16
ATOM     13  C   UNL     1      -1.709  -0.087   4.839  0.00  0.00    +0.000 A 
ATOM     14  C   UNL     1      -2.380   0.730   3.948  0.00  0.00    +0.000 A 
ATOM     15  C   UNL     1      -2.162   0.596   2.589  0.00  0.00    +0.005 A 
ATOM     16  C   UNL     1      -1.273  -0.355   2.122  0.00  0.00    -0.028 A 
ATOM     17  C   UNL     1      -0.607  -1.175   3.013  0.00  0.00    +0.005 A 
ATOM     18  C   UNL     1      -0.822  -1.038   4.372  0.00  0.00    +0.000 A 
ENDBRANCH  12  16
ENDBRANCH   1  12
BRANCH   5  19
ATOM     19  S   UNL     1       1.959  -1.867   0.345  0.00  0.00    -0.083 S 
BRANCH  19  20
ATOM     20  C   UNL     1       3.720  -1.687  -0.029  0.00  0.00    +0.107 C 
BRANCH  20  21
ATOM     21  C   UNL     1       4.413  -3.044   0.113  0.00  0.00    +0.112 C 
ATOM     22  C   UNL     1       5.904  -2.892  -0.201  0.00  0.00    -0.046 C 
ATOM     23  C   UNL     1       6.397  -4.641   1.397  0.00  0.00    -0.050 C 
ATOM     24  C   UNL     1       4.901  -4.776   1.694  0.00  0.00    +0.141 C 
ATOM     25  O   UNL     1       4.258  -3.521   1.452  0.00  0.00    -0.379 OA
ATOM     26  N   UNL     1       6.565  -4.199  -0.003  0.00  0.00    +0.386 N 
ATOM     27  H   UNL     1       6.131  -4.891  -0.626  0.00  0.00    -0.081 HD
BRANCH  26  28
ATOM     28  C   UNL     1       8.003  -4.093  -0.331  0.00  0.00    -0.041 C 
BRANCH  28  29
ATOM     29  C   UNL     1       8.630  -2.943   0.414  0.00  0.00    -0.046 A 
ATOM     30  C   UNL     1       8.720  -1.699  -0.182  0.00  0.00    +0.003 A 
ATOM     31  C   UNL     1       9.295  -0.645   0.501  0.00  0.00    +0.000 A 
ATOM     32  C   UNL     1       9.780  -0.832   1.782  0.00  0.00    +0.001 A 
ATOM     33  C   UNL     1       9.690  -2.075   2.380  0.00  0.00    +0.020 A 
ATOM     34  C   UNL     1       9.110  -3.130   1.698  0.00  0.00    +0.042 A 
ATOM     35 CL   UNL     1       8.990  -4.690   2.451  0.00  0.00    -0.083 Cl
ENDBRANCH  28  29
ENDBRANCH  26  28
ENDBRANCH  20  21
ENDBRANCH  19  20
ENDBRANCH   5  19
TORSDOF 8
