REMARK  Name = ZINC13499140
REMARK  11 active torsions:
REMARK  status: ('A' for Active; 'I' for Inactive)
REMARK    1  A    between atoms: C_1  and  C_2
REMARK    2  A    between atoms: C_7  and  C_15
REMARK    3  A    between atoms: C_13  and  C_14
REMARK    4  A    between atoms: C_15  and  N_75
REMARK    5  A    between atoms: C_16  and  N_75
REMARK    6  A    between atoms: C_21  and  C_23
REMARK    7  A    between atoms: C_21  and  C_34
REMARK    8  A    between atoms: C_21  and  N_75
REMARK    9  A    between atoms: N_27  and  C_28
REMARK   10  A    between atoms: C_34  and  C_35
REMARK   11  A    between atoms: C_34  and  C_36
REMARK                            x       y       z     vdW  Elec       q    Type
REMARK                         _______ _______ _______ _____ _____    ______ ____
ROOT
ATOM      1  N   UNL     1       0.501  -0.901  -0.396  0.00  0.00    +0.391 N 
ATOM      2  H   UNL     1      -0.186  -1.663  -0.355  0.00  0.00    -0.080 HD
ENDROOT
BRANCH   1   3
ATOM      3  C   UNL     1       1.640  -1.233   0.485  0.00  0.00    -0.067 C 
ATOM      4  C   UNL     1       2.487  -2.350  -0.159  0.00  0.00    -0.015 C 
ATOM      5  C   UNL     1       2.911  -3.241   1.036  0.00  0.00    -0.002 C 
ATOM      6  C   UNL     1       1.648  -3.235   1.933  0.00  0.00    -0.002 C 
ATOM      7  C   UNL     1       1.107  -1.795   1.814  0.00  0.00    -0.015 C 
ENDBRANCH   1   3
BRANCH   1   8
ATOM      8  C   UNL     1      -0.142   0.350   0.059  0.00  0.00    -0.036 C 
BRANCH   8  15
ATOM      9  C   UNL     1      -3.634  -0.851   7.130  0.00  0.00    +0.044 C 
ATOM     10  C   UNL     1      -2.794  -0.541   5.917  0.00  0.00    -0.046 A 
ATOM     11  C   UNL     1      -1.531   0.013   6.080  0.00  0.00    +0.004 A 
ATOM     12  C   UNL     1      -0.754   0.302   4.994  0.00  0.00    +0.010 A 
ATOM     13  C   UNL     1      -1.234   0.037   3.707  0.00  0.00    -0.001 A 
ATOM     14  C   UNL     1      -0.428   0.334   2.522  0.00  0.00    +0.017 A 
ATOM     15  C   UNL     1      -0.946   0.056   1.300  0.00  0.00    +0.001 A 
ATOM     16  C   UNL     1      -2.237  -0.502   1.185  0.00  0.00    +0.251 A 
ATOM     17  O   UNL     1      -2.685  -0.740   0.077  0.00  0.00    -0.268 OA
ATOM     18  N   UNL     1      -2.983  -0.784   2.268  0.00  0.00    -0.322 N 
ATOM     19  H   UNL     1      -3.865  -1.171   2.154  0.00  0.00    +0.169 HD
ATOM     20  C   UNL     1      -2.514  -0.525   3.539  0.00  0.00    +0.052 A 
ATOM     21  C   UNL     1      -3.287  -0.811   4.659  0.00  0.00    -0.024 A 
ATOM     22  C   UNL     1      -4.659  -1.414   4.498  0.00  0.00    +0.046 C 
ENDBRANCH   8  15
ENDBRANCH   1   8
BRANCH   1  23
ATOM     23  C   UNL     1       0.968  -0.750  -1.790  0.00  0.00    +0.006 C 
BRANCH  23  24
ATOM     24  C   UNL     1      -0.197  -0.988  -2.717  0.00  0.00    +0.139 A 
ATOM     25  N   UNL     1      -1.390  -0.454  -2.627  0.00  0.00    -0.115 NA
ATOM     26  N   UNL     1      -2.102  -0.905  -3.601  0.00  0.00    -0.023 NA
ATOM     27  N   UNL     1      -1.394  -1.713  -4.311  0.00  0.00    -0.044 NA
ATOM     28  N   UNL     1      -0.211  -1.786  -3.801  0.00  0.00    -0.228 N 
BRANCH  28  29
ATOM     29  C   UNL     1       0.905  -2.590  -4.304  0.00  0.00    +0.111 C 
ATOM     30  C   UNL     1       1.248  -2.150  -5.729  0.00  0.00    +0.027 C 
ATOM     31  C   UNL     1       2.414  -2.990  -6.255  0.00  0.00    +0.002 C 
ATOM     32  C   UNL     1       2.018  -4.467  -6.259  0.00  0.00    +0.000 C 
ATOM     33  C   UNL     1       1.675  -4.907  -4.834  0.00  0.00    +0.002 C 
ATOM     34  C   UNL     1       0.509  -4.067  -4.308  0.00  0.00    +0.027 C 
ENDBRANCH  28  29
ENDBRANCH  23  24
BRANCH  23  35
ATOM     35  C   UNL     1       1.521   0.658  -2.019  0.00  0.00    -0.024 C 
ATOM     36  C   UNL     1       2.796   0.846  -1.194  0.00  0.00    +0.006 C 
ATOM     37  C   UNL     1       1.842   0.846  -3.503  0.00  0.00    +0.006 C 
ENDBRANCH  23  35
ENDBRANCH   1  23
TORSDOF 7
