REMARK  Name = ZINC12832933
REMARK  14 active torsions:
REMARK  status: ('A' for Active; 'I' for Inactive)
REMARK    1  A    between atoms: C_1  and  C_2
REMARK    2  A    between atoms: C_7  and  C_15
REMARK    3  A    between atoms: C_13  and  C_14
REMARK    4  A    between atoms: C_15  and  N_74
REMARK    5  A    between atoms: C_16  and  C_17
REMARK    6  A    between atoms: C_16  and  N_74
REMARK    7  A    between atoms: C_17  and  C_18
REMARK    8  A    between atoms: C_21  and  O_26
REMARK    9  A    between atoms: C_22  and  O_24
REMARK   10  A    between atoms: O_24  and  C_25
REMARK   11  A    between atoms: O_26  and  C_27
REMARK   12  A    between atoms: C_28  and  C_29
REMARK   13  A    between atoms: C_28  and  N_74
REMARK   14  A    between atoms: N_33  and  C_34
REMARK                            x       y       z     vdW  Elec       q    Type
REMARK                         _______ _______ _______ _____ _____    ______ ____
ROOT
ATOM      1  N   UNL     1      -0.747   1.852  -1.381  0.00  0.00    +0.387 N 
ATOM      2  H   UNL     1      -0.932   2.861  -1.439  0.00  0.00    -0.081 HD
ENDROOT
BRANCH   1   3
ATOM      3  C   UNL     1      -0.230   1.383  -2.683  0.00  0.00    -0.037 C 
BRANCH   3  10
ATOM      4  C   UNL     1      -4.076   5.218  -8.525  0.00  0.00    +0.044 C 
ATOM      5  C   UNL     1      -3.196   4.669  -7.432  0.00  0.00    -0.046 A 
ATOM      6  C   UNL     1      -2.052   5.361  -7.059  0.00  0.00    +0.004 A 
ATOM      7  C   UNL     1      -1.240   4.881  -6.071  0.00  0.00    +0.010 A 
ATOM      8  C   UNL     1      -1.564   3.681  -5.429  0.00  0.00    -0.001 A 
ATOM      9  C   UNL     1      -0.719   3.140  -4.363  0.00  0.00    +0.017 A 
ATOM     10  C   UNL     1      -1.080   1.970  -3.781  0.00  0.00    +0.001 A 
ATOM     11  C   UNL     1      -2.252   1.302  -4.195  0.00  0.00    +0.251 A 
ATOM     12  O   UNL     1      -2.561   0.253  -3.656  0.00  0.00    -0.268 OA
ATOM     13  N   UNL     1      -3.037   1.793  -5.171  0.00  0.00    -0.322 N 
ATOM     14  H   UNL     1      -3.835   1.308  -5.431  0.00  0.00    +0.169 HD
ATOM     15  C   UNL     1      -2.722   2.976  -5.805  0.00  0.00    +0.052 A 
ATOM     16  C   UNL     1      -3.534   3.484  -6.814  0.00  0.00    -0.024 A 
ATOM     17  C   UNL     1      -4.778   2.742  -7.231  0.00  0.00    +0.046 C 
ENDBRANCH   3  10
ENDBRANCH   1   3
BRANCH   1  18
ATOM     18  C   UNL     1       0.255   1.608  -0.322  0.00  0.00    -0.073 C 
BRANCH  18  19
ATOM     19  C   UNL     1       0.024   2.612   0.810  0.00  0.00    +0.017 C 
BRANCH  19  20
ATOM     20  C   UNL     1       1.121   2.476   1.834  0.00  0.00    -0.045 A 
ATOM     21  C   UNL     1       0.969   1.603   2.895  0.00  0.00    +0.007 A 
ATOM     22  C   UNL     1       1.975   1.470   3.834  0.00  0.00    +0.049 A 
ATOM     23  C   UNL     1       3.134   2.221   3.719  0.00  0.00    +0.161 A 
ATOM     24  C   UNL     1       3.284   3.104   2.654  0.00  0.00    +0.162 A 
ATOM     25  C   UNL     1       2.274   3.228   1.713  0.00  0.00    +0.053 A 
BRANCH  24  26
ATOM     26  O   UNL     1       4.419   3.844   2.537  0.00  0.00    -0.491 OA
ATOM     27  C   UNL     1       4.504   4.729   1.418  0.00  0.00    +0.277 C 
ENDBRANCH  24  26
BRANCH  23  28
ATOM     28  O   UNL     1       4.122   2.096   4.645  0.00  0.00    -0.491 OA
ATOM     29  C   UNL     1       3.899   1.171   5.710  0.00  0.00    +0.277 C 
ENDBRANCH  23  28
ENDBRANCH  19  20
ENDBRANCH  18  19
ENDBRANCH   1  18
BRANCH   1  30
ATOM     30  C   UNL     1      -2.007   1.151  -1.055  0.00  0.00    +0.001 C 
BRANCH  30  31
ATOM     31  C   UNL     1      -2.655   1.838   0.119  0.00  0.00    +0.135 A 
ATOM     32  N   UNL     1      -2.607   1.458   1.373  0.00  0.00    -0.115 NA
ATOM     33  N   UNL     1      -3.281   2.304   2.072  0.00  0.00    -0.023 NA
ATOM     34  N   UNL     1      -3.764   3.211   1.296  0.00  0.00    -0.044 NA
ATOM     35  N   UNL     1      -3.400   2.958   0.084  0.00  0.00    -0.228 N 
BRANCH  35  36
ATOM     36  C   UNL     1      -3.735   3.744  -1.107  0.00  0.00    +0.111 C 
ATOM     37  C   UNL     1      -3.143   5.163  -0.987  0.00  0.00    +0.027 C 
ATOM     38  C   UNL     1      -4.218   6.077  -1.626  0.00  0.00    +0.002 C 
ATOM     39  C   UNL     1      -5.543   5.426  -1.159  0.00  0.00    +0.002 C 
ATOM     40  C   UNL     1      -5.261   3.911  -1.216  0.00  0.00    +0.027 C 
ENDBRANCH  35  36
ENDBRANCH  30  31
ENDBRANCH   1  30
TORSDOF 10
