REMARK  Name = ZINC39344908
REMARK  8 active torsions:
REMARK  status: ('A' for Active; 'I' for Inactive)
REMARK    1  A    between atoms: C_1  and  C_2
REMARK    2  A    between atoms: C_2  and  C_4
REMARK    3  A    between atoms: C_2  and  N_11
REMARK    4  A    between atoms: C_12  and  C_14
REMARK    5  A    between atoms: C_16  and  C_30
REMARK    6  A    between atoms: C_18  and  S_20
REMARK    7  A    between atoms: S_20  and  N_23
REMARK    8  A    between atoms: N_23  and  C_24
REMARK                            x       y       z     vdW  Elec       q    Type
REMARK                         _______ _______ _______ _____ _____    ______ ____
ROOT
ATOM      1  C   UNL     1       0.766  -1.123   3.553  0.00  0.00    +0.039 A 
ATOM      2  C   UNL     1       0.085  -1.279   4.762  0.00  0.00    +0.019 A 
ATOM      3  C   UNL     1       0.758  -1.737   5.875  0.00  0.00    -0.017 A 
ATOM      4  C   UNL     1       2.106  -2.041   5.797  0.00  0.00    +0.034 A 
ATOM      5  C   UNL     1       2.787  -1.889   4.602  0.00  0.00    +0.106 A 
ATOM      6  C   UNL     1       2.124  -1.437   3.479  0.00  0.00    +0.041 A 
ENDROOT
BRANCH   3   7
ATOM      7  C   UNL     1       0.024  -1.906   7.181  0.00  0.00    +0.153 C 
ATOM      8  C   UNL     1      -0.811  -3.174   7.167  0.00  0.00    +0.025 C 
ATOM      9  C   UNL     1      -2.063  -2.737   7.316  0.00  0.00    +0.130 C 
ATOM     10  N   UNL     1      -2.092  -1.389   7.415  0.00  0.00    -0.186 NA
ATOM     11  N   UNL     1      -0.983  -0.845   7.353  0.00  0.00    -0.298 N 
ATOM     12  H   UNL     1      -0.806   0.108   7.408  0.00  0.00    +0.183 HD
ENDBRANCH   3   7
BRANCH   1  14
ATOM     13  N   UNL     1       0.711  -0.489   1.189  0.00  0.00    -0.305 N 
ATOM     14  C   UNL     1       0.051  -0.633   2.355  0.00  0.00    +0.245 C 
ATOM     15  O   UNL     1      -1.131  -0.361   2.423  0.00  0.00    -0.270 OA
ATOM     16  H   UNL     1       1.654  -0.707   1.135  0.00  0.00    +0.150 HD
BRANCH  13  18
ATOM     17  C   UNL     1      -0.019   1.526   0.010  0.00  0.00    +0.033 C 
ATOM     18  C   UNL     1       0.002  -0.004   0.002  0.00  0.00    +0.100 C 
BRANCH  18  19
ATOM     19  C   UNL     1       0.707  -0.490  -1.238  0.00  0.00    -0.027 A 
ATOM     20  C   UNL     1       2.089  -0.511  -1.283  0.00  0.00    +0.008 A 
ATOM     21  C   UNL     1       2.737  -0.957  -2.420  0.00  0.00    +0.038 A 
ATOM     22  C   UNL     1       2.002  -1.383  -3.513  0.00  0.00    +0.123 A 
ATOM     23  C   UNL     1       0.618  -1.362  -3.466  0.00  0.00    +0.038 A 
ATOM     24  C   UNL     1      -0.028  -0.920  -2.327  0.00  0.00    +0.008 A 
ATOM     25  F   UNL     1       2.634  -1.819  -4.624  0.00  0.00    -0.205 F 
ENDBRANCH  18  19
ENDBRANCH  13  18
ENDBRANCH   1  14
BRANCH   5  26
ATOM     26  S   UNL     1       4.503  -2.278   4.513  0.00  0.00    +0.059 S 
ATOM     27  O   UNL     1       5.032  -1.533   3.425  0.00  0.00    -0.153 OA
ATOM     28  O   UNL     1       5.014  -2.166   5.834  0.00  0.00    -0.153 OA
BRANCH  26  29
ATOM     29  N   UNL     1       4.621  -3.876   4.094  0.00  0.00    -0.187 NA
ATOM     30  H   UNL     1       5.004  -4.514   4.716  0.00  0.00    +0.148 HD
BRANCH  29  31
ATOM     31  C   UNL     1       4.147  -4.327   2.783  0.00  0.00    +0.077 C 
ATOM     32  C   UNL     1       5.320  -4.359   1.800  0.00  0.00    +0.020 C 
ATOM     33  C   UNL     1       4.825  -4.830   0.431  0.00  0.00    +0.002 C 
ATOM     34  C   UNL     1       4.227  -6.232   0.559  0.00  0.00    +0.000 C 
ATOM     35  C   UNL     1       3.055  -6.200   1.542  0.00  0.00    +0.002 C 
ATOM     36  C   UNL     1       3.550  -5.729   2.911  0.00  0.00    +0.020 C 
ENDBRANCH  29  31
ENDBRANCH  26  29
ENDBRANCH   5  26
TORSDOF 7
