REMARK  Name = ZINC28160988
REMARK  9 active torsions:
REMARK  status: ('A' for Active; 'I' for Inactive)
REMARK    1  A    between atoms: C_1  and  C_2
REMARK    2  A    between atoms: C_5  and  N_9
REMARK    3  A    between atoms: C_6  and  C_8
REMARK    4  A    between atoms: C_10  and  C_12
REMARK    5  A    between atoms: C_12  and  C_13
REMARK    6  A    between atoms: C_21  and  C_31
REMARK    7  A    between atoms: C_24  and  C_26
REMARK    8  A    between atoms: C_34  and  O_37
REMARK    9  A    between atoms: O_37  and  C_38
REMARK                            x       y       z     vdW  Elec       q    Type
REMARK                         _______ _______ _______ _____ _____    ______ ____
ROOT
ATOM      1  C   UNL     1       0.979   3.615   0.025  0.00  0.00    +0.150 C 
ATOM      2  C   UNL     1       2.259   4.437   0.112  0.00  0.00    +0.252 C 
ATOM      3  O   UNL     1       3.113   4.405  -0.753  0.00  0.00    -0.272 OA
ATOM      4  N   UNL     1       2.376   5.177   1.180  0.00  0.00    -0.157 NA
ATOM      5  C   UNL     1       1.471   5.242   2.149  0.00  0.00    +0.170 C 
ATOM      6  S   UNL     1       0.185   4.127   1.601  0.00  0.00    -0.078 S 
ATOM      7  N   UNL     1       1.512   5.984   3.292  0.00  0.00    -0.195 N 
ATOM      8  C   UNL     1       2.607   6.882   3.690  0.00  0.00    +0.136 C 
ATOM      9  C   UNL     1       2.135   7.453   5.042  0.00  0.00    +0.087 C 
ATOM     10  C   UNL     1       0.794   6.792   5.269  0.00  0.00    +0.075 C 
ATOM     11  N   UNL     1       0.526   6.010   4.277  0.00  0.00    -0.181 NA
ENDROOT
BRANCH   8  12
ATOM     12  C   UNL     1       3.891   6.111   3.857  0.00  0.00    -0.025 A 
ATOM     13  C   UNL     1       3.870   4.851   4.426  0.00  0.00    +0.009 A 
ATOM     14  C   UNL     1       5.045   4.139   4.575  0.00  0.00    +0.046 A 
ATOM     15  C   UNL     1       6.248   4.695   4.164  0.00  0.00    +0.120 A 
ATOM     16  C   UNL     1       6.267   5.962   3.599  0.00  0.00    +0.046 A 
ATOM     17  C   UNL     1       5.088   6.667   3.447  0.00  0.00    +0.009 A 
BRANCH  15  18
ATOM     18  O   UNL     1       7.406   4.000   4.314  0.00  0.00    -0.495 OA
ATOM     19  C   UNL     1       7.311   2.701   4.904  0.00  0.00    +0.277 C 
ENDBRANCH  15  18
ENDBRANCH   8  12
BRANCH  10  20
ATOM     20  C   UNL     1      -0.068   7.005   6.436  0.00  0.00    +0.035 A 
ATOM     21  C   UNL     1      -1.301   6.446   6.724  0.00  0.00    +0.017 A 
ATOM     22  C   UNL     1      -1.924   6.805   7.896  0.00  0.00    +0.008 A 
ATOM     23  C   UNL     1      -1.315   7.690   8.729  0.00  0.00    +0.046 A 
ATOM     24  S   UNL     1       0.202   8.048   7.860  0.00  0.00    -0.095 S 
ENDBRANCH  10  20
BRANCH   1  25
ATOM     25  C   UNL     1       1.279   2.114   0.012  0.00  0.00    +0.120 C 
BRANCH  25  27
ATOM     26  N   UNL     1       0.002  -0.004   0.002  0.00  0.00    -0.285 N 
ATOM     27  C   UNL     1      -0.016   1.343   0.012  0.00  0.00    +0.219 C 
ATOM     28  O   UNL     1      -1.074   1.936   0.016  0.00  0.00    -0.275 OA
ATOM     29  H   UNL     1       0.957  -0.541  -0.095  0.00  0.00    +0.155 HD
BRANCH  26  34
ATOM     30  C   UNL     1      -4.849  -2.909   0.462  0.00  0.00    +0.044 C 
ATOM     31  C   UNL     1      -3.560  -2.138   0.339  0.00  0.00    -0.050 A 
ATOM     32  C   UNL     1      -3.475  -0.853   0.845  0.00  0.00    +0.005 A 
ATOM     33  C   UNL     1      -2.295  -0.143   0.735  0.00  0.00    +0.024 A 
ATOM     34  C   UNL     1      -1.194  -0.721   0.115  0.00  0.00    +0.036 A 
ATOM     35  C   UNL     1      -1.286  -2.008  -0.397  0.00  0.00    -0.029 A 
ATOM     36  C   UNL     1      -2.466  -2.715  -0.278  0.00  0.00    +0.008 A 
ATOM     37  C   UNL     1      -0.095  -2.636  -1.075  0.00  0.00    +0.045 C 
ENDBRANCH  26  34
ENDBRANCH  25  27
ENDBRANCH   1  25
TORSDOF 6
