REMARK  Name = ZINC35231971
REMARK  6 active torsions:
REMARK  status: ('A' for Active; 'I' for Inactive)
REMARK    1  A    between atoms: C_12  and  C_33
REMARK    2  A    between atoms: C_15  and  C_17
REMARK    3  A    between atoms: C_17  and  N_18
REMARK    4  A    between atoms: N_18  and  C_19
REMARK    5  A    between atoms: N_24  and  C_25
REMARK    6  A    between atoms: C_28  and  C_31
REMARK                            x       y       z     vdW  Elec       q    Type
REMARK                         _______ _______ _______ _____ _____    ______ ____
ROOT
ATOM      1  C   UNL     1       1.307  -1.271  -2.433  0.00  0.00    +0.002 A 
ATOM      2  C   UNL     1       2.298  -0.310  -2.342  0.00  0.00    +0.002 A 
ATOM      3  C   UNL     1       3.512  -0.610  -1.752  0.00  0.00    +0.025 A 
ATOM      4  C   UNL     1       3.742  -1.881  -1.250  0.00  0.00    +0.061 A 
ATOM      5  C   UNL     1       2.739  -2.852  -1.351  0.00  0.00    +0.068 A 
ATOM      6  C   UNL     1       1.527  -2.544  -1.936  0.00  0.00    +0.028 A 
ATOM      7  N   UNL     1       3.018  -4.134  -0.855  0.00  0.00    -0.316 N 
ATOM      8  C   UNL     1       2.187  -5.176  -0.614  0.00  0.00    +0.092 A 
ATOM      9  C   UNL     1       2.926  -6.200  -0.130  0.00  0.00    +0.020 A 
ATOM     10  C   UNL     1       4.269  -5.768  -0.074  0.00  0.00    +0.025 A 
ATOM     11  C   UNL     1       4.302  -4.508  -0.522  0.00  0.00    +0.049 A 
ATOM     12  C   UNL     1       5.477  -3.574  -0.680  0.00  0.00    +0.159 C 
ATOM     13  N   UNL     1       4.963  -2.195  -0.637  0.00  0.00    -0.255 N 
ATOM     14  C   UNL     1       5.667  -1.233  -0.009  0.00  0.00    +0.238 C 
ATOM     15  O   UNL     1       5.283  -0.083  -0.037  0.00  0.00    -0.273 OA
ENDROOT
BRANCH  12  16
ATOM     16  C   UNL     1       6.155  -3.826  -2.002  0.00  0.00    -0.020 A 
ATOM     17  C   UNL     1       5.629  -3.290  -3.163  0.00  0.00    +0.006 A 
ATOM     18  C   UNL     1       6.251  -3.521  -4.375  0.00  0.00    +0.002 A 
ATOM     19  C   UNL     1       7.399  -4.289  -4.428  0.00  0.00    +0.020 A 
ATOM     20  C   UNL     1       7.926  -4.826  -3.268  0.00  0.00    +0.041 A 
ATOM     21  C   UNL     1       7.307  -4.589  -2.053  0.00  0.00    +0.025 A 
ATOM     22 CL   UNL     1       9.368  -5.791  -3.334  0.00  0.00    -0.084 Cl
ENDBRANCH  12  16
BRANCH  14  23
ATOM     23  C   UNL     1       6.932  -1.587   0.730  0.00  0.00    +0.205 C 
BRANCH  23  24
ATOM     24  N   UNL     1       7.433  -0.404   1.435  0.00  0.00    -0.274 N 
ATOM     25  C   UNL     1       8.292   0.433   0.822  0.00  0.00    +0.307 C 
ATOM     26  O   UNL     1       8.728   0.157  -0.280  0.00  0.00    -0.252 OA
ATOM     27  N   UNL     1       8.669   1.576   1.429  0.00  0.00    -0.269 N 
ATOM     28  H   UNL     1       8.405   1.747   2.346  0.00  0.00    +0.156 HD
BRANCH  27  29
ATOM     29  C   UNL     1       9.440   2.512   0.737  0.00  0.00    +0.035 A 
ATOM     30  C   UNL     1       9.254   2.689  -0.630  0.00  0.00    +0.024 A 
ATOM     31  C   UNL     1      10.012   3.612  -1.315  0.00  0.00    +0.020 A 
ATOM     32  C   UNL     1      10.969   4.371  -0.635  0.00  0.00    +0.052 A 
ATOM     33  C   UNL     1      11.152   4.190   0.738  0.00  0.00    +0.020 A 
ATOM     34  C   UNL     1      10.387   3.269   1.418  0.00  0.00    +0.024 A 
BRANCH  32  35
ATOM     35  C   UNL     1      11.760   5.331  -1.345  0.00  0.00    +0.099 C 
ATOM     36  N   UNL     1      12.387   6.093  -1.908  0.00  0.00    -0.191 NA
ENDBRANCH  32  35
ENDBRANCH  27  29
BRANCH  24  37
ATOM     37  C   UNL     1       6.999  -0.132   2.808  0.00  0.00    +0.078 C 
ATOM     38  C   UNL     1       6.268  -1.250   3.553  0.00  0.00    +0.024 C 
ATOM     39  C   UNL     1       5.494  -0.024   3.064  0.00  0.00    +0.024 C 
ENDBRANCH  24  37
ENDBRANCH  23  24
ENDBRANCH  14  23
TORSDOF 6
