REMARK  Name = ZINC19473854
REMARK  7 active torsions:
REMARK  status: ('A' for Active; 'I' for Inactive)
REMARK    1  A    between atoms: CE_1  and  SD_2
REMARK    2  A    between atoms: SD_2  and  CG_3
REMARK    3  A    between atoms: CG_3  and  CB_4
REMARK    4  A    between atoms: CB_4  and  CA_5
REMARK    5  A    between atoms: CA_5  and  C_7
REMARK    6  A    between atoms: CA_5  and  N_10
REMARK    7  A    between atoms: C_11  and  C_13
REMARK                            x       y       z     vdW  Elec       q    Type
REMARK                         _______ _______ _______ _____ _____    ______ ____
ROOT
ATOM      1  N   MET A   1       1.344   1.677   2.563  0.00  0.00    -0.298 N 
ATOM      2  C   UNK A   0       2.340   1.052   3.221  0.00  0.00    +0.245 C 
ATOM      3  O   UNK A   0       2.130  -0.009   3.775  0.00  0.00    -0.270 OA
ATOM      4  H   MET A   1       1.534   2.638   2.062  0.00  0.00    +0.150 HD
ENDROOT
BRANCH   2   5
ATOM      5  C   UNK A   0       3.692   1.658   3.269  0.00  0.00    +0.047 A 
ATOM      6  C   UNK A   0       3.953   2.877   2.639  0.00  0.00    +0.083 A 
ATOM      7  C   UNK A   0       5.229   3.416   2.716  0.00  0.00    +0.252 A 
ATOM      8  N   UNK A   0       6.193   2.786   3.367  0.00  0.00    -0.290 N 
ATOM      9  C   UNK A   0       5.987   1.628   3.972  0.00  0.00    +0.252 A 
ATOM     10  C   UNK A   0       4.737   1.025   3.946  0.00  0.00    +0.083 A 
ATOM     11  O   UNK A   0       7.010   1.022   4.626  0.00  0.00    -0.268 OA
ATOM     12  O   UNK A   0       5.492   4.605   2.117  0.00  0.00    -0.268 OA
ATOM     13  H   UNK A   0       7.201   3.224   3.416  0.00  0.00    +0.172 HD
ENDBRANCH   2   5
BRANCH   1  14
ATOM     14  CA  MET A   1       0.008   1.078   2.516  0.00  0.00    +0.187 C 
BRANCH  14  15
ATOM     15  C   MET A   1      -0.760   1.466   3.753  0.00  0.00    +0.376 C 
ATOM     16  O   MET A   1      -0.245   2.170   4.589  0.00  0.00    -0.244 OA
ATOM     17  OXT MET A   1      -2.017   1.028   3.927  0.00  0.00    -0.244 OA
ENDBRANCH  14  15
BRANCH  14  18
ATOM     18  CB  MET A   1      -0.733   1.582   1.276  0.00  0.00    +0.044 C 
BRANCH  18  19
ATOM     19  CG  MET A   1      -0.021   1.083   0.018  0.00  0.00    +0.071 C 
BRANCH  19  21
ATOM     20  CE  MET A   1       0.058   1.011  -2.839  0.00  0.00    +0.084 C 
ATOM     21  SD  MET A   1      -0.900   1.681  -1.452  0.00  0.00    -0.164 S 
ENDBRANCH  19  21
ENDBRANCH  18  19
ENDBRANCH  14  18
ENDBRANCH   1  14
TORSDOF 6
