REMARK  Name = ZINC16148747
REMARK  12 active torsions:
REMARK  status: ('A' for Active; 'I' for Inactive)
REMARK    1  A    between atoms: C_1  and  C_2
REMARK    2  A    between atoms: C_6  and  O_8
REMARK    3  A    between atoms: O_8  and  C_9
REMARK    4  A    between atoms: C_9  and  C_10
REMARK    5  A    between atoms: C_10  and  N_11
REMARK    6  A    between atoms: N_11  and  C_12
REMARK    7  A    between atoms: C_13  and  C_15
REMARK    8  A    between atoms: C_18  and  N_21
REMARK    9  A    between atoms: N_21  and  S_22
REMARK   10  A    between atoms: S_22  and  C_25
REMARK   11  A    between atoms: C_28  and  C_34
REMARK   12  A    between atoms: C_29  and  N_31
REMARK                            x       y       z     vdW  Elec       q    Type
REMARK                         _______ _______ _______ _____ _____    ______ ____
ROOT
ATOM      1  C   UNL     1      -3.559  -0.199   1.325  0.00  0.00    +0.037 A 
ATOM      2  C   UNL     1      -4.133  -1.296   1.974  0.00  0.00    +0.015 A 
ATOM      3  C   UNL     1      -5.502  -1.394   2.076  0.00  0.00    +0.025 A 
ATOM      4  C   UNL     1      -6.315  -0.408   1.525  0.00  0.00    +0.048 A 
ATOM      5  C   UNL     1      -5.747   0.683   0.873  0.00  0.00    +0.025 A 
ATOM      6  C   UNL     1      -4.379   0.790   0.772  0.00  0.00    +0.015 A 
ENDROOT
BRANCH   1   9
ATOM      7  N   UNL     1      -1.324  -1.191   1.308  0.00  0.00    -0.297 N 
ATOM      8  C   UNL     1      -1.949  -2.511   1.425  0.00  0.00    +0.132 C 
ATOM      9  C   UNL     1      -2.092  -0.087   1.218  0.00  0.00    +0.246 C 
ATOM     10  O   UNL     1      -1.576   1.000   1.048  0.00  0.00    -0.270 OA
BRANCH   7  11
ATOM     11  C   UNL     1       0.136  -1.071   1.290  0.00  0.00    +0.148 C 
BRANCH  11  12
ATOM     12  C   UNL     1       0.636  -1.153  -0.153  0.00  0.00    +0.248 C 
BRANCH  12  13
ATOM     13  O   UNL     1       0.155  -0.026  -0.888  0.00  0.00    -0.490 OA
BRANCH  13  19
ATOM     14  C   UNL     1      -0.025   2.361  -5.142  0.00  0.00    +0.044 C 
ATOM     15  C   UNL     1       0.444   1.202  -4.301  0.00  0.00    -0.047 A 
ATOM     16  C   UNL     1       1.239   0.219  -4.862  0.00  0.00    +0.003 A 
ATOM     17  C   UNL     1       1.671  -0.846  -4.093  0.00  0.00    +0.004 A 
ATOM     18  C   UNL     1       1.313  -0.928  -2.761  0.00  0.00    +0.045 A 
ATOM     19  C   UNL     1       0.512   0.055  -2.197  0.00  0.00    +0.121 A 
ATOM     20  C   UNL     1       0.080   1.122  -2.971  0.00  0.00    +0.049 A 
ENDBRANCH  13  19
ENDBRANCH  12  13
ENDBRANCH  11  12
ENDBRANCH   7  11
ENDBRANCH   1   9
BRANCH   4  21
ATOM     21  N   UNL     1      -7.698  -0.513   1.626  0.00  0.00    -0.216 N 
ATOM     22  H   UNL     1      -8.225   0.257   1.889  0.00  0.00    +0.174 HD
BRANCH  21  23
ATOM     23  S   UNL     1      -8.445  -1.954   1.296  0.00  0.00    +0.072 S 
ATOM     24  O   UNL     1      -7.789  -2.941   2.081  0.00  0.00    -0.150 OA
ATOM     25  O   UNL     1      -9.843  -1.716   1.385  0.00  0.00    -0.150 OA
BRANCH  23  26
ATOM     26  C   UNL     1      -8.107  -2.343  -0.389  0.00  0.00    +0.111 A 
ATOM     27  C   UNL     1      -8.904  -1.822  -1.391  0.00  0.00    +0.029 A 
ATOM     28  C   UNL     1      -8.635  -2.123  -2.713  0.00  0.00    +0.007 A 
ATOM     29  C   UNL     1      -7.576  -2.953  -3.032  0.00  0.00    -0.020 A 
ATOM     30  C   UNL     1      -6.783  -3.478  -2.029  0.00  0.00    +0.131 A 
ATOM     31  C   UNL     1      -7.048  -3.172  -0.707  0.00  0.00    +0.061 A 
ATOM     32  C   UNL     1      -7.287  -3.285  -4.473  0.00  0.00    +0.046 C 
BRANCH  30  33
ATOM     33  N   UNL     1      -5.650  -4.366  -2.370  0.00  0.00    +0.057 N 
ATOM     34  O   UNL     1      -4.970  -4.854  -1.485  0.00  0.00    -0.126 OA
ATOM     35  O   UNL     1      -5.396  -4.609  -3.537  0.00  0.00    -0.126 OA
ENDBRANCH  30  33
ENDBRANCH  23  26
ENDBRANCH  21  23
ENDBRANCH   4  21
TORSDOF 9
