REMARK  Name = ZINC04663425
REMARK  7 active torsions:
REMARK  status: ('A' for Active; 'I' for Inactive)
REMARK    1  A    between atoms: C_1  and  C_2
REMARK    2  A    between atoms: C_2  and  C_3
REMARK    3  A    between atoms: C_5  and  C_34
REMARK    4  A    between atoms: C_7  and  N_27
REMARK    5  A    between atoms: C_16  and  C_18
REMARK    6  A    between atoms: C_21  and  N_24
REMARK    7  A    between atoms: N_27  and  C_28
REMARK                            x       y       z     vdW  Elec       q    Type
REMARK                         _______ _______ _______ _____ _____    ______ ____
ROOT
ATOM      1  C   UNL     1       0.089   0.067  -0.301  0.00  0.00    +0.086 C 
ATOM      2  C   UNL     1       1.569  -0.064   0.081  0.00  0.00    +0.031 C 
ATOM      3  C   UNL     1       2.426   0.360  -1.111  0.00  0.00    +0.107 C 
ATOM      4  C   UNL     1       1.990   1.708  -1.621  0.00  0.00    -0.006 A 
ATOM      5  C   UNL     1       2.872   2.453  -2.386  0.00  0.00    +0.007 A 
ATOM      6  C   UNL     1       2.500   3.692  -2.871  0.00  0.00    +0.000 A 
ATOM      7  C   UNL     1       1.242   4.197  -2.595  0.00  0.00    +0.002 A 
ATOM      8  C   UNL     1       0.357   3.462  -1.832  0.00  0.00    +0.024 A 
ATOM      9  C   UNL     1       0.730   2.215  -1.343  0.00  0.00    +0.042 A 
ATOM     10  N   UNL     1      -0.182   1.486  -0.568  0.00  0.00    -0.264 N 
ATOM     11  C   UNL     1      -1.292   2.075  -0.081  0.00  0.00    +0.251 C 
ATOM     12  O   UNL     1      -2.222   1.394   0.305  0.00  0.00    -0.270 OA
ATOM     13  C   UNL     1       1.878  -1.518   0.447  0.00  0.00    +0.011 C 
ENDROOT
BRANCH  11  14
ATOM     14  C   UNL     1      -1.378   3.549  -0.017  0.00  0.00    +0.037 A 
ATOM     15  C   UNL     1      -0.227   4.311   0.187  0.00  0.00    +0.015 A 
ATOM     16  C   UNL     1      -0.313   5.687   0.240  0.00  0.00    +0.033 A 
ATOM     17  C   UNL     1      -1.540   6.311   0.104  0.00  0.00    +0.126 A 
ATOM     18  C   UNL     1      -2.687   5.562  -0.093  0.00  0.00    +0.033 A 
ATOM     19  C   UNL     1      -2.613   4.186  -0.154  0.00  0.00    +0.015 A 
BRANCH  17  20
ATOM     20  N   UNL     1      -1.627   7.787   0.168  0.00  0.00    +0.056 N 
ATOM     21  O   UNL     1      -2.706   8.340   0.048  0.00  0.00    -0.126 OA
ATOM     22  O   UNL     1      -0.620   8.450   0.342  0.00  0.00    -0.126 OA
ENDBRANCH  17  20
ENDBRANCH  11  14
BRANCH   1  24
ATOM     23  C   UNL     1      -0.514   0.429   2.097  0.00  0.00    +0.006 C 
ATOM     24  C   UNL     1      -0.789  -0.420   0.854  0.00  0.00    +0.020 C 
ENDBRANCH   1  24
BRANCH   3  25
ATOM     25  N   UNL     1       3.829   0.431  -0.697  0.00  0.00    -0.337 N 
ATOM     26  H   UNL     1       4.053   0.585   0.234  0.00  0.00    +0.147 HD
BRANCH  25  27
ATOM     27  C   UNL     1       4.845   0.279  -1.643  0.00  0.00    +0.028 A 
ATOM     28  C   UNL     1       4.527   0.053  -2.976  0.00  0.00    +0.023 A 
ATOM     29  C   UNL     1       5.534  -0.093  -3.910  0.00  0.00    +0.002 A 
ATOM     30  C   UNL     1       6.858  -0.025  -3.517  0.00  0.00    +0.000 A 
ATOM     31  C   UNL     1       7.179   0.194  -2.190  0.00  0.00    +0.002 A 
ATOM     32  C   UNL     1       6.177   0.346  -1.252  0.00  0.00    +0.023 A 
ENDBRANCH  25  27
ENDBRANCH   3  25
TORSDOF 5
