REMARK  Name = ZINC00902265
REMARK  9 active torsions:
REMARK  status: ('A' for Active; 'I' for Inactive)
REMARK    1  A    between atoms: C_1  and  O_2
REMARK    2  A    between atoms: O_2  and  C_3
REMARK    3  A    between atoms: C_3  and  C_5
REMARK    4  A    between atoms: C_9  and  N_10
REMARK    5  A    between atoms: C_11  and  C_13
REMARK    6  A    between atoms: C_13  and  S_14
REMARK    7  A    between atoms: S_14  and  C_15
REMARK    8  A    between atoms: C_17  and  C_25
REMARK    9  A    between atoms: C_19  and  C_21
REMARK                            x       y       z     vdW  Elec       q    Type
REMARK                         _______ _______ _______ _____ _____    ______ ____
ROOT
ATOM      1  N   UNL     1       2.829  -2.275   0.084  0.00  0.00    -0.279 N 
ATOM      2  C   UNL     1       3.770  -3.118   0.552  0.00  0.00    +0.228 C 
ATOM      3  O   UNL     1       3.645  -4.314   0.395  0.00  0.00    -0.275 OA
ATOM      4  H   UNL     1       2.929  -1.318   0.210  0.00  0.00    +0.155 HD
ENDROOT
BRANCH   1   9
ATOM      5  C   UNL     1       0.659  -2.064  -1.123  0.00  0.00    +0.091 A 
ATOM      6  C   UNL     1      -0.388  -2.831  -1.776  0.00  0.00    -0.021 A 
ATOM      7  C   UNL     1      -0.188  -4.166  -1.759  0.00  0.00    -0.004 A 
ATOM      8  S   UNL     1       1.345  -4.379  -0.902  0.00  0.00    -0.077 S 
ATOM      9  C   UNL     1       1.718  -2.775  -0.578  0.00  0.00    +0.086 A 
ATOM     10  C   UNL     1      -1.080  -5.217  -2.343  0.00  0.00    +0.043 C 
ATOM     11  C   UNL     1      -2.447  -4.580  -2.636  0.00  0.00    +0.005 C 
ATOM     12  C   UNL     1      -2.230  -3.260  -3.380  0.00  0.00    +0.005 C 
ATOM     13  C   UNL     1      -1.619  -2.224  -2.434  0.00  0.00    +0.037 C 
BRANCH   5  14
ATOM     14  C   UNL     1       0.601  -0.603  -1.048  0.00  0.00    +0.342 C 
ATOM     15  O   UNL     1       1.094   0.071  -1.932  0.00  0.00    -0.245 OA
BRANCH  14  17
ATOM     16  C   UNL     1      -0.017   1.425   0.010  0.00  0.00    +0.280 C 
ATOM     17  O   UNL     1       0.002  -0.004   0.002  0.00  0.00    -0.464 OA
ENDBRANCH  14  17
ENDBRANCH   5  14
ENDBRANCH   1   9
BRANCH   2  18
ATOM     18  C   UNL     1       4.978  -2.575   1.272  0.00  0.00    +0.173 C 
BRANCH  18  19
ATOM     19  S   UNL     1       6.050  -3.949   1.776  0.00  0.00    -0.077 S 
BRANCH  19  20
ATOM     20  C   UNL     1       7.398  -3.160   2.592  0.00  0.00    +0.190 A 
ATOM     21  N   UNL     1       8.377  -3.903   3.083  0.00  0.00    -0.219 NA
ATOM     22  C   UNL     1       9.411  -3.336   3.707  0.00  0.00    +0.111 A 
ATOM     23  C   UNL     1       9.444  -1.941   3.833  0.00  0.00    +0.064 A 
ATOM     24  C   UNL     1       8.399  -1.207   3.304  0.00  0.00    +0.149 A 
ATOM     25  N   UNL     1       7.407  -1.838   2.693  0.00  0.00    -0.218 NA
BRANCH  22  26
ATOM     26  C   UNL     1      10.502  -4.164   4.254  0.00  0.00    +0.153 A 
ATOM     27  C   UNL     1      10.585  -5.521   4.190  0.00  0.00    +0.051 A 
ATOM     28  C   UNL     1      11.782  -5.885   4.835  0.00  0.00    +0.042 A 
ATOM     29  C   UNL     1      12.366  -4.745   5.258  0.00  0.00    +0.196 A 
ATOM     30  O   UNL     1      11.593  -3.708   4.900  0.00  0.00    -0.461 OA
ENDBRANCH  22  26
BRANCH  24  31
ATOM     31  C   UNL     1       8.390   0.295   3.416  0.00  0.00    +0.434 C 
ATOM     32  F   UNL     1       9.031   0.850   2.303  0.00  0.00    -0.164 F 
ATOM     33  F   UNL     1       7.068   0.751   3.469  0.00  0.00    -0.164 F 
ATOM     34  F   UNL     1       9.063   0.680   4.581  0.00  0.00    -0.164 F 
ENDBRANCH  24  31
ENDBRANCH  19  20
ENDBRANCH  18  19
ENDBRANCH   2  18
TORSDOF 8
