REMARK  Name = ZINC09322130
REMARK  7 active torsions:
REMARK  status: ('A' for Active; 'I' for Inactive)
REMARK    1  A    between atoms: C_1  and  C_2
REMARK    2  A    between atoms: C_2  and  C_3
REMARK    3  A    between atoms: C_3  and  C_5
REMARK    4  A    between atoms: C_3  and  N_14
REMARK    5  A    between atoms: C_10  and  C_13
REMARK    6  A    between atoms: N_14  and  C_15
REMARK    7  A    between atoms: C_20  and  C_21
REMARK                            x       y       z     vdW  Elec       q    Type
REMARK                         _______ _______ _______ _____ _____    ______ ____
ROOT
ATOM      1  C   UNL     1       2.422   4.230   0.002  0.00  0.00    +0.157 C 
ENDROOT
BRANCH   1   2
ATOM      2  C   UNL     1       2.192   5.598  -0.588  0.00  0.00    +0.239 C 
ATOM      3  O   UNL     1       1.084   5.917  -0.965  0.00  0.00    -0.273 OA
ATOM      4  N   UNL     1       3.217   6.466  -0.698  0.00  0.00    -0.266 N 
ATOM      5  C   UNL     1       3.004   7.731  -1.244  0.00  0.00    +0.168 A 
ATOM      6  C   UNL     1       1.776   8.255  -1.729  0.00  0.00    +0.091 A 
ATOM      7  C   UNL     1       2.095   9.501  -2.147  0.00  0.00    +0.136 A 
ATOM      8  O   UNL     1       3.406   9.661  -1.911  0.00  0.00    -0.358 OA
ATOM      9  N   UNL     1       3.893   8.675  -1.408  0.00  0.00    -0.063 NA
ATOM     10  C   UNL     1       1.160  10.514  -2.756  0.00  0.00    +0.089 C 
ATOM     11  H   UNL     1       4.103   6.210  -0.396  0.00  0.00    +0.156 HD
ENDBRANCH   1   2
BRANCH   1  13
ATOM     12  C   UNL     1       3.290   2.993   1.991  0.00  0.00    +0.006 C 
ATOM     13  C   UNL     1       2.939   4.374   1.435  0.00  0.00    +0.028 C 
ENDBRANCH   1  13
BRANCH   1  14
ATOM     14  N   UNL     1       1.161   3.483   0.010  0.00  0.00    -0.333 N 
ATOM     15  H   UNL     1       0.316   3.959   0.021  0.00  0.00    +0.147 HD
BRANCH  14  16
ATOM     16  C   UNL     1       1.177   2.086   0.002  0.00  0.00    +0.031 A 
ATOM     17  C   UNL     1       2.387   1.404  -0.013  0.00  0.00    +0.024 A 
ATOM     18  C   UNL     1       2.400   0.023  -0.021  0.00  0.00    +0.017 A 
ATOM     19  C   UNL     1       1.209  -0.681  -0.013  0.00  0.00    +0.018 A 
ATOM     20  C   UNL     1       0.002  -0.004   0.002  0.00  0.00    +0.020 A 
ATOM     21  C   UNL     1      -0.017   1.377   0.010  0.00  0.00    -0.029 A 
ATOM     22  C   UNL     1      -1.331   2.114   0.020  0.00  0.00    +0.046 C 
ATOM     23 BR   UNL     1       1.230  -2.572  -0.024  0.00  0.00    -0.050 Br
ENDBRANCH  14  16
ENDBRANCH   1  14
TORSDOF 4
