REMARK  Name = ZINC06979908
REMARK  6 active torsions:
REMARK  status: ('A' for Active; 'I' for Inactive)
REMARK    1  A    between atoms: C_1  and  C_2
REMARK    2  A    between atoms: C_5  and  C_8
REMARK    3  A    between atoms: C_8  and  C_31
REMARK    4  A    between atoms: N_11  and  C_15
REMARK    5  A    between atoms: C_15  and  C_16
REMARK    6  A    between atoms: N_21  and  C_24
REMARK                            x       y       z     vdW  Elec       q    Type
REMARK                         _______ _______ _______ _____ _____    ______ ____
ROOT
ATOM      1  C   UNL     1       0.587   3.664   0.015  0.00  0.00    +0.135 C 
ATOM      2  C   UNL     1       1.087   2.233   0.004  0.00  0.00    +0.251 C 
ATOM      3  O   UNL     1       2.240   1.861  -0.008  0.00  0.00    -0.272 OA
ATOM      4  N   UNL     1      -0.018   1.461   0.010  0.00  0.00    -0.215 N 
ATOM      5  C   UNL     1      -1.135   2.197   0.019  0.00  0.00    +0.310 C 
ATOM      6  O   UNL     1      -2.255   1.726   0.022  0.00  0.00    -0.252 OA
ATOM      7  N   UNL     1      -0.879   3.518   0.028  0.00  0.00    -0.281 N 
ATOM      8  C   UNL     1       1.043   4.404  -1.244  0.00  0.00    +0.047 C 
ATOM      9  H   UNL     1      -1.533   4.235   0.038  0.00  0.00    +0.152 HD
ENDROOT
BRANCH   1  14
ATOM     10  C   UNL     1       2.397   6.412   4.765  0.00  0.00    +0.044 C 
ATOM     11  C   UNL     1       1.925   5.696   3.526  0.00  0.00    -0.050 A 
ATOM     12  C   UNL     1       0.727   6.052   2.936  0.00  0.00    +0.004 A 
ATOM     13  C   UNL     1       0.294   5.395   1.800  0.00  0.00    +0.006 A 
ATOM     14  C   UNL     1       1.059   4.381   1.254  0.00  0.00    -0.015 A 
ATOM     15  C   UNL     1       2.254   4.020   1.847  0.00  0.00    +0.006 A 
ATOM     16  C   UNL     1       2.690   4.681   2.981  0.00  0.00    +0.004 A 
ENDBRANCH   1  14
BRANCH   4  17
ATOM     17  C   UNL     1       0.002  -0.004   0.002  0.00  0.00    +0.213 C 
BRANCH  17  18
ATOM     18  C   UNL     1       0.022  -0.514   1.420  0.00  0.00    +0.234 C 
ATOM     19  O   UNL     1       0.021   0.269   2.346  0.00  0.00    -0.274 OA
ATOM     20  N   UNL     1       0.043  -1.840   1.659  0.00  0.00    -0.297 N 
ATOM     21  C   UNL     1       0.039  -2.807   0.551  0.00  0.00    +0.126 C 
ATOM     22  C   UNL     1       1.193  -3.798   0.772  0.00  0.00    +0.124 C 
ATOM     23  N   UNL     1       1.075  -4.389   2.111  0.00  0.00    -0.327 N 
ATOM     24  C   UNL     1       1.210  -3.368   3.158  0.00  0.00    +0.124 C 
ATOM     25  C   UNL     1       0.063  -2.359   3.035  0.00  0.00    +0.126 C 
BRANCH  23  26
ATOM     26  C   UNL     1       2.006  -5.416   2.290  0.00  0.00    +0.030 A 
ATOM     27  C   UNL     1       2.899  -5.368   3.352  0.00  0.00    +0.026 A 
ATOM     28  C   UNL     1       3.815  -6.387   3.530  0.00  0.00    +0.040 A 
ATOM     29  C   UNL     1       3.850  -7.450   2.643  0.00  0.00    +0.124 A 
ATOM     30  C   UNL     1       2.964  -7.497   1.580  0.00  0.00    +0.040 A 
ATOM     31  C   UNL     1       2.043  -6.484   1.402  0.00  0.00    +0.026 A 
ATOM     32  F   UNL     1       4.750  -8.442   2.816  0.00  0.00    -0.205 F 
ENDBRANCH  23  26
ENDBRANCH  17  18
ENDBRANCH   4  17
TORSDOF 4
