REMARK  Name = ZINC41152158
REMARK  6 active torsions:
REMARK  status: ('A' for Active; 'I' for Inactive)
REMARK    1  A    between atoms: C_1  and  C_2
REMARK    2  A    between atoms: C_2  and  C_3
REMARK    3  A    between atoms: C_3  and  C_4
REMARK    4  A    between atoms: C_3  and  C_5
REMARK    5  A    between atoms: C_3  and  N_18
REMARK    6  A    between atoms: C_7  and  C_10
REMARK                            x       y       z     vdW  Elec       q    Type
REMARK                         _______ _______ _______ _____ _____    ______ ____
ROOT
ATOM      1  C   UNL     1       0.762  -2.018   1.233  0.00  0.00    +0.161 A 
ATOM      2  N   UNL     1       1.237  -2.791   2.212  0.00  0.00    -0.193 NA
ATOM      3  C   UNL     1       1.104  -4.058   1.889  0.00  0.00    +0.261 A 
ATOM      4  O   UNL     1       0.531  -4.118   0.674  0.00  0.00    -0.333 OA
ATOM      5  N   UNL     1       0.315  -2.774   0.272  0.00  0.00    -0.062 NA
ENDROOT
BRANCH   3   6
ATOM      6  C   UNL     1       1.513  -5.213   2.715  0.00  0.00    +0.077 A 
ATOM      7  C   UNL     1       2.095  -5.008   3.967  0.00  0.00    +0.054 A 
ATOM      8  C   UNL     1       2.474  -6.092   4.734  0.00  0.00    +0.124 A 
ATOM      9  C   UNL     1       2.279  -7.381   4.263  0.00  0.00    +0.041 A 
ATOM     10  C   UNL     1       1.703  -7.591   3.024  0.00  0.00    +0.042 A 
ATOM     11  C   UNL     1       1.313  -6.515   2.248  0.00  0.00    +0.136 A 
ATOM     12  F   UNL     1       0.746  -6.722   1.040  0.00  0.00    -0.205 F 
ATOM     13  F   UNL     1       3.038  -5.896   5.946  0.00  0.00    -0.205 F 
ENDBRANCH   3   6
BRANCH   1  14
ATOM     14  C   UNL     1       0.742  -0.511   1.242  0.00  0.00    -0.009 C 
ATOM     15  C   UNL     1       2.178   0.019   1.231  0.00  0.00    -0.003 C 
BRANCH  14  16
ATOM     16  N   UNL     1       0.054  -0.037   2.450  0.00  0.00    +0.386 N 
ATOM     17  H   UNL     1      -0.892  -0.386   2.457  0.00  0.00    -0.089 HD
ATOM     18  H   UNL     1       0.542  -0.371   3.268  0.00  0.00    -0.089 HD
ATOM     19  H   UNL     1       0.041   0.972   2.456  0.00  0.00    -0.089 HD
ENDBRANCH  14  16
BRANCH  14  21
ATOM     20  C   UNL     1      -0.019   1.526   0.010  0.00  0.00    +0.003 C 
ATOM     21  C   UNL     1       0.002  -0.004   0.002  0.00  0.00    -0.009 C 
ENDBRANCH  14  21
ENDBRANCH   1  14
TORSDOF 4
