REMARK  Name = ZINC36207205
REMARK  15 active torsions:
REMARK  status: ('A' for Active; 'I' for Inactive)
REMARK    1  A    between atoms: C_1  and  C_2
REMARK    2  A    between atoms: C_2  and  O_3
REMARK    3  A    between atoms: O_3  and  C_4
REMARK    4  A    between atoms: C_4  and  C_6
REMARK    5  A    between atoms: C_7  and  C_38
REMARK    6  A    between atoms: C_13  and  C_17
REMARK    7  A    between atoms: C_17  and  N_18
REMARK    8  A    between atoms: N_18  and  C_19
REMARK    9  A    between atoms: N_18  and  C_26
REMARK   10  A    between atoms: C_19  and  C_20
REMARK   11  A    between atoms: C_26  and  C_27
REMARK   12  A    between atoms: C_27  and  C_29
REMARK   13  A    between atoms: C_27  and  O_37
REMARK   14  A    between atoms: C_29  and  O_30
REMARK   15  A    between atoms: O_30  and  C_31
REMARK                            x       y       z     vdW  Elec       q    Type
REMARK                         _______ _______ _______ _____ _____    ______ ____
ROOT
ATOM      1  N   UNL     1       4.712  -2.904  -8.139  0.00  0.00    +0.389 N 
ATOM      2  H   UNL     1       5.260  -2.368  -7.483  0.00  0.00    -0.081 HD
ENDROOT
BRANCH   1   3
ATOM      3  C   UNL     1       4.488  -4.253  -7.602  0.00  0.00    -0.003 C 
BRANCH   3  11
ATOM      4  C   UNL     1      10.571  -5.452  -6.356  0.00  0.00    +0.102 A 
ATOM      5  C   UNL     1       9.552  -6.352  -6.233  0.00  0.00    -0.015 A 
ATOM      6  C   UNL     1       8.245  -5.968  -6.538  0.00  0.00    +0.076 A 
ATOM      7  C   UNL     1       6.998  -6.764  -6.481  0.00  0.00    +0.260 A 
ATOM      8  O   UNL     1       7.016  -7.930  -6.127  0.00  0.00    -0.267 OA
ATOM      9  N   UNL     1       5.842  -6.166  -6.829  0.00  0.00    -0.312 N 
ATOM     10  H   UNL     1       5.016  -6.673  -6.797  0.00  0.00    +0.170 HD
ATOM     11  C   UNL     1       5.810  -4.869  -7.223  0.00  0.00    +0.094 A 
ATOM     12  N   UNL     1       6.890  -4.139  -7.286  0.00  0.00    -0.229 NA
ATOM     13  C   UNL     1       8.080  -4.630  -6.965  0.00  0.00    +0.116 A 
ATOM     14  S   UNL     1       9.731  -3.979  -6.913  0.00  0.00    -0.062 S 
ATOM     15  C   UNL     1       9.837  -7.758  -5.769  0.00  0.00    +0.046 C 
BRANCH   4  16
ATOM     16  C   UNL     1      11.998  -5.646  -6.090  0.00  0.00    +0.346 C 
ATOM     17  O   UNL     1      12.405  -6.727  -5.712  0.00  0.00    -0.244 OA
BRANCH  16  18
ATOM     18  O   UNL     1      12.861  -4.624  -6.266  0.00  0.00    -0.461 OA
BRANCH  18  20
ATOM     19  C   UNL     1      15.058  -3.616  -6.243  0.00  0.00    +0.048 C 
ATOM     20  C   UNL     1      14.239  -4.883  -5.988  0.00  0.00    +0.229 C 
ENDBRANCH  18  20
ENDBRANCH  16  18
ENDBRANCH   4  16
ENDBRANCH   3  11
ENDBRANCH   1   3
BRANCH   1  21
ATOM     21  C   UNL     1       3.419  -2.241  -8.354  0.00  0.00    -0.042 C 
BRANCH  21  22
ATOM     22  C   UNL     1       2.739  -2.024  -7.027  0.00  0.00    -0.064 A 
ATOM     23  C   UNL     1       1.791  -2.926  -6.581  0.00  0.00    +0.002 A 
ATOM     24  C   UNL     1       1.167  -2.728  -5.363  0.00  0.00    +0.000 A 
ATOM     25  C   UNL     1       1.491  -1.627  -4.592  0.00  0.00    +0.000 A 
ATOM     26  C   UNL     1       2.440  -0.726  -5.037  0.00  0.00    +0.000 A 
ATOM     27  C   UNL     1       3.067  -0.927  -6.253  0.00  0.00    +0.002 A 
ENDBRANCH  21  22
ENDBRANCH   1  21
BRANCH   1  28
ATOM     28  C   UNL     1       5.432  -2.999  -9.416  0.00  0.00    -0.043 C 
BRANCH  28  29
ATOM     29  C   UNL     1       5.776  -1.594  -9.914  0.00  0.00    +0.135 C 
BRANCH  29  30
ATOM     30  O   UNL     1       6.693  -0.979  -9.008  0.00  0.00    -0.390 OA
ATOM     31  H   UNL     1       7.527  -1.458  -8.907  0.00  0.00    +0.210 HD
ENDBRANCH  29  30
BRANCH  29  32
ATOM     32  C   UNL     1       6.413  -1.686 -11.302  0.00  0.00    +0.258 C 
BRANCH  32  33
ATOM     33  O   UNL     1       6.628  -0.370 -11.816  0.00  0.00    -0.489 OA
BRANCH  33  34
ATOM     34  C   UNL     1       7.191  -0.274 -13.049  0.00  0.00    +0.121 A 
ATOM     35  C   UNL     1       7.526  -1.422 -13.751  0.00  0.00    +0.045 A 
ATOM     36  C   UNL     1       8.099  -1.321 -15.004  0.00  0.00    +0.004 A 
ATOM     37  C   UNL     1       8.339  -0.077 -15.558  0.00  0.00    +0.000 A 
ATOM     38  C   UNL     1       8.006   1.069 -14.860  0.00  0.00    +0.004 A 
ATOM     39  C   UNL     1       7.428   0.973 -13.609  0.00  0.00    +0.045 A 
ENDBRANCH  33  34
ENDBRANCH  32  33
ENDBRANCH  29  32
ENDBRANCH  28  29
ENDBRANCH   1  28
TORSDOF 13
