REMARK  Name = ZINC09101001
REMARK  11 active torsions:
REMARK  status: ('A' for Active; 'I' for Inactive)
REMARK    1  A    between atoms: C_1  and  C_2
REMARK    2  A    between atoms: C_2  and  C_4
REMARK    3  A    between atoms: C_2  and  N_53
REMARK    4  A    between atoms: C_7  and  S_16
REMARK    5  A    between atoms: N_8  and  C_9
REMARK    6  A    between atoms: S_16  and  C_17
REMARK    7  A    between atoms: C_17  and  C_19
REMARK    8  A    between atoms: C_17  and  C_20
REMARK    9  A    between atoms: N_22  and  C_23
REMARK   10  A    between atoms: C_31  and  N_53
REMARK   11  A    between atoms: C_32  and  N_53
REMARK                            x       y       z     vdW  Elec       q    Type
REMARK                         _______ _______ _______ _____ _____    ______ ____
ROOT
ATOM      1  C   UNL     1      -8.364   3.127   0.442  0.00  0.00    +0.125 A 
ATOM      2  N   UNL     1      -7.498   3.992  -0.008  0.00  0.00    -0.135 NA
ATOM      3  N   UNL     1      -6.330   3.458  -0.068  0.00  0.00    -0.122 NA
ATOM      4  C   UNL     1      -6.388   2.210   0.334  0.00  0.00    +0.197 A 
ATOM      5  N   UNL     1      -7.688   1.959   0.676  0.00  0.00    -0.275 N 
ENDROOT
BRANCH   5   6
ATOM      6  C   UNL     1      -8.219   0.756   1.166  0.00  0.00    +0.050 A 
ATOM      7  C   UNL     1      -9.153   0.054   0.417  0.00  0.00    +0.028 A 
ATOM      8  C   UNL     1      -9.671  -1.133   0.899  0.00  0.00    +0.022 A 
ATOM      9  C   UNL     1      -9.268  -1.615   2.132  0.00  0.00    +0.041 A 
ATOM     10  C   UNL     1      -8.340  -0.913   2.882  0.00  0.00    +0.022 A 
ATOM     11  C   UNL     1      -7.816   0.271   2.402  0.00  0.00    +0.028 A 
ATOM     12 CL   UNL     1      -9.925  -3.103   2.737  0.00  0.00    -0.084 Cl
ENDBRANCH   5   6
BRANCH   1  14
ATOM     13  C   UNL     1     -10.030   4.215   1.922  0.00  0.00    -0.005 C 
ATOM     14  C   UNL     1      -9.835   3.369   0.663  0.00  0.00    -0.003 C 
BRANCH  14  17
ATOM     15  C   UNL     1     -11.850   4.226  -0.370  0.00  0.00    -0.096 C 
ATOM     16  C   UNL     1      -9.745   5.384  -0.677  0.00  0.00    -0.096 C 
ATOM     17  N   UNL     1     -10.388   4.062  -0.519  0.00  0.00    +0.382 N 
ATOM     18  H   UNL     1     -10.200   3.498  -1.356  0.00  0.00    -0.082 HD
ENDBRANCH  14  17
ENDBRANCH   1  14
BRANCH   4  19
ATOM     19  S   UNL     1      -5.043   1.074   0.422  0.00  0.00    -0.073 S 
BRANCH  19  20
ATOM     20  C   UNL     1      -3.702   2.128  -0.184  0.00  0.00    +0.137 C 
ATOM     21  C   UNL     1      -3.965   2.497  -1.645  0.00  0.00    +0.029 C 
BRANCH  20  22
ATOM     22  C   UNL     1      -2.395   1.385  -0.081  0.00  0.00    +0.230 C 
ATOM     23  O   UNL     1      -2.384   0.172  -0.088  0.00  0.00    -0.274 OA
ATOM     24  N   UNL     1      -1.238   2.069   0.019  0.00  0.00    -0.283 N 
ATOM     25  H   UNL     1      -1.251   3.035   0.105  0.00  0.00    +0.155 HD
BRANCH  24  26
ATOM     26  C   UNL     1      -0.016   1.385  -0.001  0.00  0.00    +0.053 A 
ATOM     27  C   UNL     1       0.076   0.144  -0.617  0.00  0.00    +0.025 A 
ATOM     28  C   UNL     1       1.283  -0.526  -0.641  0.00  0.00    +0.003 A 
ATOM     29  C   UNL     1       2.401   0.037  -0.053  0.00  0.00    +0.021 A 
ATOM     30  C   UNL     1       2.314   1.273   0.562  0.00  0.00    +0.061 A 
ATOM     31  C   UNL     1       1.107   1.950   0.589  0.00  0.00    +0.080 A 
ATOM     32 CL   UNL     1       0.998   3.502   1.359  0.00  0.00    -0.080 Cl
ATOM     33 CL   UNL     1       3.720   1.976   1.299  0.00  0.00    -0.082 Cl
ENDBRANCH  24  26
ENDBRANCH  20  22
ENDBRANCH  19  20
ENDBRANCH   4  19
TORSDOF 7
