REMARK  Name = ZINC64478821
REMARK  6 active torsions:
REMARK  status: ('A' for Active; 'I' for Inactive)
REMARK    1  A    between atoms: C_1  and  N_2
REMARK    2  A    between atoms: C_3  and  C_5
REMARK    3  A    between atoms: C_7  and  N_12
REMARK    4  A    between atoms: N_12  and  S_13
REMARK    5  A    between atoms: S_13  and  C_16
REMARK    6  A    between atoms: C_18  and  C_21
REMARK                            x       y       z     vdW  Elec       q    Type
REMARK                         _______ _______ _______ _____ _____    ______ ____
ROOT
ATOM      1  C   UNL     1      -1.136  -2.171   0.001  0.00  0.00    +0.074 A 
ATOM      2  C   UNL     1       0.081  -2.855  -0.008  0.00  0.00    +0.042 A 
ATOM      3  C   UNL     1       0.092  -4.240  -0.016  0.00  0.00    +0.075 A 
ATOM      4  C   UNL     1      -1.106  -4.946  -0.014  0.00  0.00    +0.029 A 
ATOM      5  C   UNL     1      -2.312  -4.272  -0.005  0.00  0.00    +0.041 A 
ATOM      6  C   UNL     1      -2.335  -2.889   0.009  0.00  0.00    +0.136 A 
ATOM      7  F   UNL     1      -3.516  -2.233   0.024  0.00  0.00    -0.205 F 
ENDROOT
BRANCH   1  10
ATOM      8  C   UNL     1      -0.018   1.461   0.010  0.00  0.00    +0.128 C 
ATOM      9  N   UNL     1       0.002  -0.004   0.002  0.00  0.00    -0.314 N 
ATOM     10  C   UNL     1      -1.156  -0.694   0.009  0.00  0.00    +0.247 C 
ATOM     11  O   UNL     1      -2.217  -0.100   0.023  0.00  0.00    -0.270 OA
ATOM     12  H   UNL     1       0.849  -0.478  -0.009  0.00  0.00    +0.149 HD
ENDBRANCH   1  10
BRANCH   3  13
ATOM     13  N   UNL     1       1.309  -4.929  -0.026  0.00  0.00    -0.097 NA
BRANCH  13  14
ATOM     14  S   UNL     1       1.323  -6.585  -0.035  0.00  0.00    +0.098 S 
ATOM     15  O   UNL     1       0.781  -7.003   1.211  0.00  0.00    -0.148 OA
ATOM     16  O   UNL     1       0.769  -6.989  -1.280  0.00  0.00    -0.148 OA
BRANCH  14  17
ATOM     17  C   UNL     1       3.010  -7.092  -0.046  0.00  0.00    +0.148 A 
ATOM     18  C   UNL     1       3.816  -7.344   1.004  0.00  0.00    +0.051 A 
ATOM     19  C   UNL     1       5.164  -7.747   0.678  0.00  0.00    +0.072 A 
ATOM     20  C   UNL     1       5.481  -7.830  -0.662  0.00  0.00    +0.062 A 
ATOM     21  S   UNL     1       4.062  -7.403  -1.448  0.00  0.00    -0.076 S 
BRANCH  19  22
ATOM     22  C   UNL     1       6.148  -8.052   1.722  0.00  0.00    +0.387 C 
ATOM     23  O   UNL     1       5.835  -7.968   2.902  0.00  0.00    -0.241 OA
ATOM     24  O   UNL     1       7.283  -8.391   1.413  0.00  0.00    -0.241 OA
ENDBRANCH  19  22
ENDBRANCH  14  17
ENDBRANCH  13  14
ENDBRANCH   3  13
TORSDOF 5
