REMARK  Name = ZINC39012863
REMARK  4 active torsions:
REMARK  status: ('A' for Active; 'I' for Inactive)
REMARK    1  A    between atoms: N_7  and  S_8
REMARK    2  A    between atoms: S_8  and  C_11
REMARK    3  A    between atoms: C_18  and  N_23
REMARK    4  A    between atoms: N_26  and  C_29
REMARK                            x       y       z     vdW  Elec       q    Type
REMARK                         _______ _______ _______ _____ _____    ______ ____
ROOT
ATOM      1  C   UNL     1       0.348   1.566   0.144  0.00  0.00    +0.002 A 
ATOM      2  C   UNL     1       1.591   2.215   0.055  0.00  0.00    +0.002 A 
ATOM      3  C   UNL     1       2.760   1.545  -0.033  0.00  0.00    +0.030 A 
ATOM      4  C   UNL     1       2.776   0.127  -0.038  0.00  0.00    +0.089 A 
ATOM      5  N   UNL     1       3.918  -0.521  -0.123  0.00  0.00    -0.226 NA
ATOM      6  C   UNL     1       3.968  -1.863  -0.130  0.00  0.00    +0.189 C 
ATOM      7  N   UNL     1       5.109  -2.480  -0.215  0.00  0.00    -0.110 NA
ATOM      8  C   UNL     1       2.677  -2.645  -0.038  0.00  0.00    +0.222 C 
ATOM      9  N   UNL     1       1.420  -1.887   0.056  0.00  0.00    -0.361 N 
ATOM     10  C   UNL     1       1.477  -0.585   0.056  0.00  0.00    +0.063 A 
ATOM     11  C   UNL     1       0.249   0.219   0.148  0.00  0.00    +0.027 A 
ATOM     12  H   UNL     1       0.567  -2.346   0.117  0.00  0.00    +0.162 HD
ENDROOT
BRANCH   8  13
ATOM     13  N   UNL     1       2.764  -3.516   1.142  0.00  0.00    -0.274 NA
ATOM     14  C   UNL     1       1.661  -4.486   1.163  0.00  0.00    +0.105 C 
ATOM     15  C   UNL     1       1.886  -5.486   2.302  0.00  0.00    +0.120 C 
ATOM     16  N   UNL     1       2.079  -4.735   3.552  0.00  0.00    -0.325 N 
ATOM     17  C   UNL     1       3.074  -3.653   3.567  0.00  0.00    +0.120 C 
ATOM     18  C   UNL     1       2.802  -2.724   2.379  0.00  0.00    +0.105 C 
BRANCH  16  19
ATOM     19  C   UNL     1       1.336  -5.043   4.696  0.00  0.00    +0.065 A 
ATOM     20  C   UNL     1       1.815  -5.974   5.607  0.00  0.00    +0.026 A 
ATOM     21  C   UNL     1       1.079  -6.276   6.737  0.00  0.00    +0.002 A 
ATOM     22  C   UNL     1      -0.135  -5.653   6.961  0.00  0.00    +0.003 A 
ATOM     23  C   UNL     1      -0.617  -4.725   6.056  0.00  0.00    +0.040 A 
ATOM     24  C   UNL     1       0.117  -4.413   4.926  0.00  0.00    +0.144 A 
ATOM     25  F   UNL     1      -0.350  -3.502   4.045  0.00  0.00    -0.204 F 
ENDBRANCH  16  19
ENDBRANCH   8  13
BRANCH   7  26
ATOM     26  S   UNL     1       6.515  -1.611  -0.315  0.00  0.00    +0.100 S 
ATOM     27  O   UNL     1       6.482  -0.926  -1.559  0.00  0.00    -0.146 OA
ATOM     28  O   UNL     1       6.662  -0.933   0.925  0.00  0.00    -0.146 OA
BRANCH  26  29
ATOM     29  C   UNL     1       7.838  -2.771  -0.414  0.00  0.00    +0.113 A 
ATOM     30  C   UNL     1       8.440  -3.233   0.741  0.00  0.00    +0.030 A 
ATOM     31  C   UNL     1       9.478  -4.143   0.664  0.00  0.00    +0.022 A 
ATOM     32  C   UNL     1       9.915  -4.591  -0.570  0.00  0.00    +0.041 A 
ATOM     33  C   UNL     1       9.312  -4.128  -1.726  0.00  0.00    +0.022 A 
ATOM     34  C   UNL     1       8.270  -3.223  -1.647  0.00  0.00    +0.030 A 
ATOM     35 CL   UNL     1      11.218  -5.733  -0.668  0.00  0.00    -0.084 Cl
ENDBRANCH  26  29
ENDBRANCH   7  26
TORSDOF 4
