REMARK  Name = ZINC06443608
REMARK  11 active torsions:
REMARK  status: ('A' for Active; 'I' for Inactive)
REMARK    1  A    between atoms: C_1  and  C_2
REMARK    2  A    between atoms: C_12  and  C_14
REMARK    3  A    between atoms: C_14  and  C_16
REMARK    4  A    between atoms: C_14  and  N_71
REMARK    5  A    between atoms: N_20  and  C_21
REMARK    6  A    between atoms: C_26  and  C_27
REMARK    7  A    between atoms: C_26  and  N_71
REMARK    8  A    between atoms: C_30  and  O_33
REMARK    9  A    between atoms: O_33  and  C_34
REMARK   10  A    between atoms: C_35  and  C_36
REMARK   11  A    between atoms: C_35  and  N_71
REMARK                            x       y       z     vdW  Elec       q    Type
REMARK                         _______ _______ _______ _____ _____    ______ ____
ROOT
ATOM      1  C   UNL     1      -0.217  -2.240   4.309  0.00  0.00    +0.040 C 
ENDROOT
BRANCH   1  13
ATOM      2  C   UNL     1      -1.073   3.655   1.531  0.00  0.00    +0.046 C 
ATOM      3  C   UNL     1      -1.466   2.274   1.075  0.00  0.00    -0.026 A 
ATOM      4  C   UNL     1      -2.133   2.103  -0.120  0.00  0.00    +0.005 A 
ATOM      5  C   UNL     1      -2.495   0.835  -0.554  0.00  0.00    +0.001 A 
ATOM      6  C   UNL     1      -2.209  -0.266   0.202  0.00  0.00    +0.010 A 
ATOM      7  C   UNL     1      -1.539  -0.116   1.420  0.00  0.00    -0.001 A 
ATOM      8  C   UNL     1      -1.163   1.167   1.861  0.00  0.00    +0.052 A 
ATOM      9  N   UNL     1      -0.503   1.309   3.062  0.00  0.00    -0.322 N 
ATOM     10  H   UNL     1      -0.245   2.194   3.364  0.00  0.00    +0.169 HD
ATOM     11  C   UNL     1      -0.211   0.239   3.822  0.00  0.00    +0.251 A 
ATOM     12  O   UNL     1       0.374   0.402   4.879  0.00  0.00    -0.268 OA
ATOM     13  C   UNL     1      -0.565  -1.069   3.426  0.00  0.00    +0.011 A 
ATOM     14  C   UNL     1      -1.215  -1.275   2.254  0.00  0.00    +0.017 A 
ENDBRANCH   1  13
BRANCH   1  15
ATOM     15  C   UNL     1       1.281  -2.366   4.409  0.00  0.00    +0.143 A 
ATOM     16  N   UNL     1       2.085  -1.605   5.111  0.00  0.00    -0.115 NA
ATOM     17  N   UNL     1       3.288  -2.031   4.939  0.00  0.00    -0.023 NA
ATOM     18  N   UNL     1       3.273  -3.045   4.145  0.00  0.00    -0.044 NA
ATOM     19  N   UNL     1       2.053  -3.286   3.801  0.00  0.00    -0.227 N 
BRANCH  19  20
ATOM     20  C   UNL     1       1.595  -4.356   2.913  0.00  0.00    +0.111 C 
ATOM     21  C   UNL     1       2.028  -5.728   3.470  0.00  0.00    +0.027 C 
ATOM     22  C   UNL     1       2.388  -6.553   2.209  0.00  0.00    +0.002 C 
ATOM     23  C   UNL     1       3.069  -5.504   1.296  0.00  0.00    +0.002 C 
ATOM     24  C   UNL     1       2.256  -4.214   1.530  0.00  0.00    +0.027 C 
ENDBRANCH  19  20
ENDBRANCH   1  15
BRANCH   1  25
ATOM     25  N   UNL     1      -0.767  -2.007   5.661  0.00  0.00    +0.397 N 
ATOM     26  H   UNL     1      -0.231  -1.259   6.114  0.00  0.00    -0.079 HD
BRANCH  25  27
ATOM     27  C   UNL     1      -2.183  -1.594   5.566  0.00  0.00    -0.041 C 
BRANCH  27  28
ATOM     28  C   UNL     1      -2.609  -1.018   6.892  0.00  0.00    -0.064 A 
ATOM     29  C   UNL     1      -3.184  -1.837   7.847  0.00  0.00    +0.005 A 
ATOM     30  C   UNL     1      -3.570  -1.312   9.065  0.00  0.00    +0.046 A 
ATOM     31  C   UNL     1      -3.391   0.038   9.326  0.00  0.00    +0.120 A 
ATOM     32  C   UNL     1      -2.819   0.858   8.364  0.00  0.00    +0.046 A 
ATOM     33  C   UNL     1      -2.430   0.328   7.149  0.00  0.00    +0.005 A 
BRANCH  31  34
ATOM     34  O   UNL     1      -3.775   0.557  10.522  0.00  0.00    -0.495 OA
ATOM     35  C   UNL     1      -4.253  -0.363  11.505  0.00  0.00    +0.277 C 
ENDBRANCH  31  34
ENDBRANCH  27  28
ENDBRANCH  25  27
BRANCH  25  36
ATOM     36  C   UNL     1      -0.653  -3.239   6.471  0.00  0.00    -0.001 C 
BRANCH  36  37
ATOM     37  C   UNL     1       0.760  -3.351   6.981  0.00  0.00    +0.089 A 
ATOM     38  C   UNL     1       1.259  -2.723   8.060  0.00  0.00    +0.042 A 
ATOM     39  C   UNL     1       2.614  -3.112   8.171  0.00  0.00    +0.041 A 
ATOM     40  C   UNL     1       2.862  -3.955   7.152  0.00  0.00    +0.195 A 
ATOM     41  O   UNL     1       1.734  -4.100   6.438  0.00  0.00    -0.470 OA
ENDBRANCH  36  37
ENDBRANCH  25  36
ENDBRANCH   1  25
TORSDOF 9
