REMARK  Name = ZINC36369656
REMARK  12 active torsions:
REMARK  status: ('A' for Active; 'I' for Inactive)
REMARK    1  A    between atoms: C_1  and  C_2
REMARK    2  A    between atoms: N_9  and  C_10
REMARK    3  A    between atoms: C_15  and  O_16
REMARK    4  A    between atoms: O_16  and  C_17
REMARK    5  A    between atoms: N_18  and  C_39
REMARK    6  A    between atoms: N_21  and  C_24
REMARK    7  A    between atoms: C_24  and  C_25
REMARK    8  A    between atoms: C_25  and  C_27
REMARK    9  A    between atoms: C_25  and  C_28
REMARK   10  A    between atoms: C_28  and  N_29
REMARK   11  A    between atoms: C_30  and  C_38
REMARK   12  A    between atoms: C_35  and  C_37
REMARK                            x       y       z     vdW  Elec       q    Type
REMARK                         _______ _______ _______ _____ _____    ______ ____
ROOT
ATOM      1  C   UNL     1       0.918   2.195  -2.291  0.00  0.00    +0.065 C 
ATOM      2  C   UNL     1       1.106   0.703  -2.186  0.00  0.00    +0.041 A 
ATOM      3  C   UNL     1       0.728  -0.197  -3.089  0.00  0.00    +0.116 A 
ATOM      4  N   UNL     1       1.077  -1.453  -2.626  0.00  0.00    -0.277 N 
ATOM      5  C   UNL     1       1.057  -2.811  -2.907  0.00  0.00    +0.157 A 
ATOM      6  C   UNL     1       1.665  -3.445  -1.824  0.00  0.00    +0.170 A 
ATOM      7  N   UNL     1       2.020  -2.501  -0.957  0.00  0.00    -0.193 NA
ATOM      8  C   UNL     1       1.677  -1.308  -1.421  0.00  0.00    +0.223 A 
ATOM      9  N   UNL     1       1.707   0.033  -1.135  0.00  0.00    -0.279 N 
ATOM     10  N   UNL     1       1.782  -4.826  -1.839  0.00  0.00    -0.279 N 
ATOM     11  C   UNL     1       1.314  -5.530  -2.887  0.00  0.00    +0.333 A 
ATOM     12  O   UNL     1       1.425  -6.741  -2.885  0.00  0.00    -0.246 OA
ATOM     13  N   UNL     1       0.726  -4.928  -3.935  0.00  0.00    -0.259 N 
ATOM     14  C   UNL     1       0.584  -3.588  -3.978  0.00  0.00    +0.283 A 
ATOM     15  O   UNL     1       0.048  -3.055  -4.935  0.00  0.00    -0.265 OA
ATOM     16  C   UNL     1       2.416  -5.520  -0.716  0.00  0.00    +0.155 C 
ENDROOT
BRANCH   9  17
ATOM     17  C   UNL     1       2.249   0.620   0.017  0.00  0.00    +0.091 A 
ATOM     18  C   UNL     1       1.456   0.811   1.139  0.00  0.00    +0.030 A 
ATOM     19  C   UNL     1       1.992   1.390   2.273  0.00  0.00    +0.002 A 
ATOM     20  C   UNL     1       3.318   1.781   2.293  0.00  0.00    +0.004 A 
ATOM     21  C   UNL     1       4.115   1.594   1.179  0.00  0.00    +0.048 A 
ATOM     22  C   UNL     1       3.587   1.008   0.040  0.00  0.00    +0.144 A 
BRANCH  22  23
ATOM     23  O   UNL     1       4.371   0.818  -1.055  0.00  0.00    -0.493 OA
ATOM     24  C   UNL     1       5.732   1.241  -0.959  0.00  0.00    +0.277 C 
ENDBRANCH  22  23
ENDBRANCH   9  17
BRANCH  13  25
ATOM     25  C   UNL     1       0.233  -5.741  -5.050  0.00  0.00    +0.131 C 
BRANCH  25  26
ATOM     26  C   UNL     1      -1.220  -6.141  -4.787  0.00  0.00    -0.011 C 
ATOM     27  C   UNL     1      -1.283  -7.054  -3.561  0.00  0.00    +0.007 C 
BRANCH  26  28
ATOM     28  C   UNL     1      -1.774  -6.883  -6.005  0.00  0.00    -0.073 C 
BRANCH  28  29
ATOM     29  N   UNL     1      -3.222  -6.656  -6.100  0.00  0.00    +0.383 N 
ATOM     30  C   UNL     1      -3.885  -7.237  -4.926  0.00  0.00    -0.071 C 
ATOM     31  C   UNL     1      -5.400  -7.075  -5.059  0.00  0.00    -0.016 C 
ATOM     32  C   UNL     1      -5.742  -5.585  -5.155  0.00  0.00    -0.003 C 
ATOM     33  C   UNL     1      -4.987  -4.973  -6.338  0.00  0.00    -0.016 C 
ATOM     34  C   UNL     1      -3.487  -5.213  -6.158  0.00  0.00    -0.071 C 
ATOM     35  C   UNL     1      -2.728  -4.603  -7.338  0.00  0.00    -0.013 C 
ATOM     36  C   UNL     1      -3.539  -8.724  -4.830  0.00  0.00    -0.013 C 
ATOM     37  H   UNL     1      -3.576  -7.096  -6.936  0.00  0.00    -0.081 HD
ENDBRANCH  28  29
ENDBRANCH  26  28
ENDBRANCH  25  26
ENDBRANCH  13  25
TORSDOF 6
