REMARK  Name = ZINC13092735
REMARK  11 active torsions:
REMARK  status: ('A' for Active; 'I' for Inactive)
REMARK    1  A    between atoms: C_1  and  C_2
REMARK    2  A    between atoms: C_2  and  O_3
REMARK    3  A    between atoms: O_3  and  C_4
REMARK    4  A    between atoms: C_4  and  C_6
REMARK    5  A    between atoms: C_10  and  N_11
REMARK    6  A    between atoms: C_12  and  C_14
REMARK    7  A    between atoms: C_14  and  S_15
REMARK    8  A    between atoms: S_15  and  C_16
REMARK    9  A    between atoms: C_20  and  C_23
REMARK   10  A    between atoms: C_23  and  C_24
REMARK   11  A    between atoms: C_24  and  C_25
REMARK                            x       y       z     vdW  Elec       q    Type
REMARK                         _______ _______ _______ _____ _____    ______ ____
ROOT
ATOM      1  N   UNL     1      -0.603  -2.454  -3.921  0.00  0.00    -0.279 N 
ATOM      2  C   UNL     1      -1.118  -2.781  -5.122  0.00  0.00    +0.228 C 
ATOM      3  O   UNL     1      -0.397  -3.224  -5.991  0.00  0.00    -0.275 OA
ATOM      4  H   UNL     1      -1.180  -2.100  -3.226  0.00  0.00    +0.155 HD
ENDROOT
BRANCH   1   9
ATOM      5  C   UNL     1       1.449  -2.344  -2.516  0.00  0.00    +0.091 A 
ATOM      6  C   UNL     1       2.885  -2.621  -2.515  0.00  0.00    -0.021 A 
ATOM      7  C   UNL     1       3.349  -3.116  -3.676  0.00  0.00    -0.004 A 
ATOM      8  S   UNL     1       1.922  -3.210  -4.726  0.00  0.00    -0.077 S 
ATOM      9  C   UNL     1       0.751  -2.623  -3.678  0.00  0.00    +0.086 A 
ATOM     10  C   UNL     1       4.830  -3.378  -3.621  0.00  0.00    +0.043 C 
ATOM     11  C   UNL     1       5.324  -2.577  -2.396  0.00  0.00    +0.010 C 
ATOM     12  C   UNL     1       4.048  -2.505  -1.532  0.00  0.00    +0.037 C 
BRANCH   5  13
ATOM     13  C   UNL     1       0.776  -1.800  -1.335  0.00  0.00    +0.342 C 
ATOM     14  O   UNL     1       0.312  -2.552  -0.499  0.00  0.00    -0.245 OA
BRANCH  13  15
ATOM     15  O   UNL     1       0.671  -0.465  -1.174  0.00  0.00    -0.461 OA
BRANCH  15  17
ATOM     16  C   UNL     1      -0.019   1.526   0.010  0.00  0.00    +0.048 C 
ATOM     17  C   UNL     1       0.002  -0.004   0.002  0.00  0.00    +0.229 C 
ENDBRANCH  15  17
ENDBRANCH  13  15
ENDBRANCH   5  13
ENDBRANCH   1   9
BRANCH   2  18
ATOM     18  C   UNL     1      -2.590  -2.597  -5.387  0.00  0.00    +0.173 C 
BRANCH  18  19
ATOM     19  S   UNL     1      -2.971  -3.124  -7.080  0.00  0.00    -0.075 S 
BRANCH  19  20
ATOM     20  C   UNL     1      -4.705  -2.851  -7.231  0.00  0.00    +0.213 A 
ATOM     21  N   UNL     1      -5.318  -3.139  -8.374  0.00  0.00    -0.180 NA
ATOM     22  C   UNL     1      -6.625  -2.931  -8.482  0.00  0.00    +0.296 A 
ATOM     23  O   UNL     1      -7.277  -3.216  -9.636  0.00  0.00    -0.264 OA
ATOM     24  C   UNL     1      -7.315  -2.413  -7.384  0.00  0.00    +0.130 A 
ATOM     25  N   UNL     1      -6.652  -2.147  -6.275  0.00  0.00    -0.146 NA
ATOM     26  N   UNL     1      -5.386  -2.365  -6.200  0.00  0.00    -0.122 NA
BRANCH  24  27
ATOM     27  C   UNL     1      -8.798  -2.162  -7.465  0.00  0.00    +0.074 C 
BRANCH  27  28
ATOM     28  C   UNL     1      -9.553  -3.417  -7.020  0.00  0.00    +0.131 C 
BRANCH  28  29
ATOM     29  C   UNL     1     -11.037  -3.165  -7.101  0.00  0.00    +0.356 C 
ATOM     30  O   UNL     1     -11.452  -2.083  -7.479  0.00  0.00    -0.246 OA
ATOM     31  O   UNL     1     -11.822  -4.044  -6.787  0.00  0.00    -0.246 OA
ENDBRANCH  28  29
ENDBRANCH  27  28
ENDBRANCH  24  27
ENDBRANCH  19  20
ENDBRANCH  18  19
ENDBRANCH   2  18
TORSDOF 10
