REMARK  Name = ZINC09534831
REMARK  5 active torsions:
REMARK  status: ('A' for Active; 'I' for Inactive)
REMARK    1  A    between atoms: C_1  and  C_2
REMARK    2  A    between atoms: C_15  and  C_17
REMARK    3  A    between atoms: C_17  and  S_18
REMARK    4  A    between atoms: S_18  and  C_19
REMARK    5  A    between atoms: C_25  and  C_29
REMARK                            x       y       z     vdW  Elec       q    Type
REMARK                         _______ _______ _______ _____ _____    ______ ____
ROOT
ATOM      1  C   UNL     1      -0.666   8.673   1.471  0.00  0.00    +0.029 C 
ATOM      2  C   UNL     1      -0.452   8.134   0.055  0.00  0.00    +0.087 C 
ATOM      3  C   UNL     1      -1.426   8.821  -0.909  0.00  0.00    +0.118 C 
ATOM      4  C   UNL     1      -1.520   8.045  -2.196  0.00  0.00    +0.219 C 
ATOM      5  O   UNL     1      -0.962   8.458  -3.191  0.00  0.00    -0.275 OA
ATOM      6  N   UNL     1      -2.223   6.893  -2.250  0.00  0.00    -0.284 N 
ATOM      7  C   UNL     1      -2.792   6.354  -1.091  0.00  0.00    +0.055 A 
ATOM      8  C   UNL     1      -4.109   5.923  -1.081  0.00  0.00    +0.025 A 
ATOM      9  C   UNL     1      -4.634   5.343   0.060  0.00  0.00    +0.002 A 
ATOM     10  C   UNL     1      -3.849   5.192   1.189  0.00  0.00    +0.002 A 
ATOM     11  C   UNL     1      -2.538   5.629   1.190  0.00  0.00    +0.025 A 
ATOM     12  C   UNL     1      -2.007   6.219   0.054  0.00  0.00    +0.058 A 
ATOM     13  N   UNL     1      -0.686   6.689   0.044  0.00  0.00    -0.266 N 
ATOM     14  C   UNL     1       0.349   5.827   0.029  0.00  0.00    +0.230 C 
ATOM     15  O   UNL     1       1.487   6.245   0.020  0.00  0.00    -0.274 OA
ATOM     16  H   UNL     1      -2.333   6.436  -3.098  0.00  0.00    +0.155 HD
ENDROOT
BRANCH  14  17
ATOM     17  C   UNL     1       0.093   4.341   0.024  0.00  0.00    +0.173 C 
BRANCH  17  18
ATOM     18  S   UNL     1       1.675   3.455   0.004  0.00  0.00    -0.076 S 
BRANCH  18  19
ATOM     19  C   UNL     1       1.211   1.755  -0.000  0.00  0.00    +0.196 A 
ATOM     20  N   UNL     1      -0.015   1.282   0.009  0.00  0.00    -0.122 NA
ATOM     21  N   UNL     1       0.002  -0.004   0.002  0.00  0.00    -0.127 NA
ATOM     22  C   UNL     1       1.251  -0.432  -0.012  0.00  0.00    +0.180 A 
ATOM     23  N   UNL     1       2.058   0.686  -0.014  0.00  0.00    -0.276 N 
ATOM     24  C   UNL     1       3.419   0.557  -0.027  0.00  0.00    +0.107 A 
ATOM     25  C   UNL     1       3.990  -0.663  -0.039  0.00  0.00    +0.073 A 
ATOM     26  C   UNL     1       3.194  -1.824  -0.038  0.00  0.00    +0.037 A 
ATOM     27  C   UNL     1       1.838  -1.714  -0.025  0.00  0.00    +0.086 A 
ATOM     28 CL   UNL     1       0.842  -3.136  -0.023  0.00  0.00    -0.080 Cl
BRANCH  25  29
ATOM     29  C   UNL     1       5.492  -0.787  -0.054  0.00  0.00    +0.419 C 
ATOM     30  F   UNL     1       5.969  -0.832   1.261  0.00  0.00    -0.166 F 
ATOM     31  F   UNL     1       5.857  -1.960  -0.723  0.00  0.00    -0.166 F 
ATOM     32  F   UNL     1       6.044   0.317  -0.712  0.00  0.00    -0.166 F 
ENDBRANCH  25  29
ENDBRANCH  18  19
ENDBRANCH  17  18
ENDBRANCH  14  17
TORSDOF 4
