REMARK  Name = ZINC21333368
REMARK  11 active torsions:
REMARK  status: ('A' for Active; 'I' for Inactive)
REMARK    1  A    between atoms: C_1  and  C_2
REMARK    2  A    between atoms: C_2  and  C_3
REMARK    3  A    between atoms: C_3  and  C_4
REMARK    4  A    between atoms: C_4  and  C_6
REMARK    5  A    between atoms: C_4  and  N_12
REMARK    6  A    between atoms: C_13  and  C_15
REMARK    7  A    between atoms: C_15  and  C_17
REMARK    8  A    between atoms: C_15  and  O_18
REMARK    9  A    between atoms: O_18  and  C_19
REMARK   10  A    between atoms: C_19  and  C_21
REMARK   11  A    between atoms: C_22  and  C_34
REMARK                            x       y       z     vdW  Elec       q    Type
REMARK                         _______ _______ _______ _____ _____    ______ ____
ROOT
ATOM      1  O   UNL     1      -4.133  -1.241   2.206  0.00  0.00    -0.448 OA
ENDROOT
BRANCH   1   2
ATOM      2  C   UNL     1      -3.534  -1.176   0.885  0.00  0.00    +0.259 C 
ATOM      3  C   UNL     1      -4.354  -0.238  -0.002  0.00  0.00    +0.062 C 
BRANCH   2   5
ATOM      4  N   UNL     1      -1.368  -0.510  -0.108  0.00  0.00    -0.305 N 
ATOM      5  C   UNL     1      -2.124  -0.655   0.999  0.00  0.00    +0.254 C 
ATOM      6  O   UNL     1      -1.669  -0.367   2.085  0.00  0.00    -0.272 OA
ATOM      7  H   UNL     1      -1.780  -0.772  -1.094  0.00  0.00    +0.149 HD
BRANCH   4   8
ATOM      8  C   UNL     1       0.002  -0.004   0.002  0.00  0.00    +0.103 C 
BRANCH   8   9
ATOM      9  C   UNL     1       0.813  -0.489  -1.172  0.00  0.00    -0.027 A 
ATOM     10  C   UNL     1       0.247  -0.529  -2.433  0.00  0.00    +0.005 A 
ATOM     11  C   UNL     1       0.992  -0.970  -3.511  0.00  0.00    +0.000 A 
ATOM     12  C   UNL     1       2.299  -1.379  -3.326  0.00  0.00    +0.000 A 
ATOM     13  C   UNL     1       2.863  -1.343  -2.065  0.00  0.00    +0.000 A 
ATOM     14  C   UNL     1       2.120  -0.899  -0.988  0.00  0.00    +0.005 A 
ENDBRANCH   8   9
BRANCH   8  15
ATOM     15  C   UNL     1      -0.019   1.526   0.010  0.00  0.00    +0.027 C 
BRANCH  15  17
ATOM     16  C   UNL     1      -0.756   3.549   1.278  0.00  0.00    +0.004 C 
ATOM     17  C   UNL     1      -0.735   2.019   1.269  0.00  0.00    -0.001 C 
ENDBRANCH  15  17
ENDBRANCH   8  15
ENDBRANCH   4   8
ENDBRANCH   2   5
ENDBRANCH   1   2
BRANCH   1  18
ATOM     18  C   UNL     1      -5.064  -2.195   2.410  0.00  0.00    +0.347 C 
ATOM     19  O   UNL     1      -5.366  -2.953   1.508  0.00  0.00    -0.244 OA
BRANCH  18  20
ATOM     20  C   UNL     1      -5.712  -2.319   3.718  0.00  0.00    +0.102 A 
ATOM     21  C   UNL     1      -6.666  -3.210   4.115  0.00  0.00    -0.015 A 
ATOM     22  C   UNL     1      -7.160  -3.164   5.420  0.00  0.00    +0.076 A 
ATOM     23  C   UNL     1      -6.611  -2.160   6.251  0.00  0.00    +0.116 A 
ATOM     24  S   UNL     1      -5.443  -1.347   5.190  0.00  0.00    -0.062 S 
ATOM     25  N   UNL     1      -6.997  -2.013   7.509  0.00  0.00    -0.226 NA
ATOM     26  C   UNL     1      -7.906  -2.782   8.057  0.00  0.00    +0.114 A 
ATOM     27  N   UNL     1      -8.504  -3.781   7.361  0.00  0.00    -0.296 N 
ATOM     28  C   UNL     1      -8.182  -4.014   6.066  0.00  0.00    +0.263 A 
ATOM     29  O   UNL     1      -8.726  -4.910   5.445  0.00  0.00    -0.267 OA
ATOM     30  C   UNL     1      -9.479  -4.497   8.204  0.00  0.00    +0.127 C 
ATOM     31  C   UNL     1      -9.761  -3.562   9.398  0.00  0.00    +0.029 C 
ATOM     32  C   UNL     1      -8.456  -2.740   9.472  0.00  0.00    +0.076 C 
ATOM     33  C   UNL     1      -7.185  -4.243   3.147  0.00  0.00    +0.046 C 
ENDBRANCH  18  20
ENDBRANCH   1  18
TORSDOF 8
