REMARK  Name = ZINC40377064
REMARK  6 active torsions:
REMARK  status: ('A' for Active; 'I' for Inactive)
REMARK    1  A    between atoms: C_1  and  N_2
REMARK    2  A    between atoms: C_5  and  C_8
REMARK    3  A    between atoms: C_5  and  N_12
REMARK    4  A    between atoms: N_9  and  O_10
REMARK    5  A    between atoms: N_12  and  S_13
REMARK    6  A    between atoms: S_13  and  N_16
REMARK                            x       y       z     vdW  Elec       q    Type
REMARK                         _______ _______ _______ _____ _____    ______ ____
ROOT
ATOM      1  C   UNL     1       1.262   2.157  -0.797  0.00  0.00    -0.096 C 
ATOM      2  N   UNL     1       1.058   0.741  -0.464  0.00  0.00    +0.378 N 
ATOM      3  C   UNL     1       0.683   0.004  -1.676  0.00  0.00    -0.077 C 
ATOM      4  C   UNL     1       0.390  -1.456  -1.320  0.00  0.00    +0.013 C 
ATOM      5  C   UNL     1       1.642  -2.086  -0.702  0.00  0.00    +0.096 C 
ATOM      6  C   UNL     1       2.067  -1.264   0.518  0.00  0.00    +0.013 C 
ATOM      7  C   UNL     1       2.297   0.188   0.094  0.00  0.00    -0.077 C 
ATOM      8  H   UNL     1       0.318   0.661   0.218  0.00  0.00    -0.082 HD
ENDROOT
BRANCH   5   9
ATOM      9  C   UNL     1       1.337  -3.499  -0.277  0.00  0.00    +0.153 C 
ATOM     10  N   UNL     1       0.666  -4.278  -1.059  0.00  0.00    -0.075 NA
ATOM     11  N   UNL     1       1.775  -3.960   0.944  0.00  0.00    -0.342 N 
ATOM     12  H   UNL     1       2.093  -3.334   1.613  0.00  0.00    +0.144 HD
ATOM     13  H   UNL     1       1.765  -4.911   1.136  0.00  0.00    +0.144 HD
BRANCH  10  14
ATOM     14  O   UNL     1       0.287  -5.569  -0.617  0.00  0.00    -0.408 OA
ATOM     15  H   UNL     1      -0.212  -6.078  -1.271  0.00  0.00    +0.328 HD
ENDBRANCH  10  14
ENDBRANCH   5   9
BRANCH   5  16
ATOM     16  N   UNL     1       2.725  -2.092  -1.689  0.00  0.00    -0.167 NA
ATOM     17  H   UNL     1       2.757  -1.410  -2.378  0.00  0.00    +0.150 HD
BRANCH  16  18
ATOM     18  S   UNL     1       3.894  -3.263  -1.629  0.00  0.00    +0.098 S 
ATOM     19  O   UNL     1       3.227  -4.488  -1.355  0.00  0.00    -0.141 OA
ATOM     20  O   UNL     1       4.711  -3.081  -2.776  0.00  0.00    -0.141 OA
BRANCH  18  21
ATOM     21  N   UNL     1       4.845  -2.938  -0.313  0.00  0.00    -0.167 NA
ATOM     22  C   UNL     1       5.714  -1.753  -0.292  0.00  0.00    +0.110 C 
ATOM     23  C   UNL     1       5.414  -0.944   0.973  0.00  0.00    +0.017 C 
ATOM     24  C   UNL     1       5.556  -1.849   2.199  0.00  0.00    +0.003 C 
ATOM     25  C   UNL     1       4.546  -2.995   2.108  0.00  0.00    +0.017 C 
ATOM     26  C   UNL     1       4.832  -3.825   0.858  0.00  0.00    +0.110 C 
ENDBRANCH  18  21
ENDBRANCH  16  18
ENDBRANCH   5  16
TORSDOF 5
