REMARK  Name = ZINC38320817
REMARK  7 active torsions:
REMARK  status: ('A' for Active; 'I' for Inactive)
REMARK    1  A    between atoms: C_1  and  C_2
REMARK    2  A    between atoms: C_7  and  N_8
REMARK    3  A    between atoms: C_9  and  C_11
REMARK    4  A    between atoms: C_12  and  C_36
REMARK    5  A    between atoms: C_19  and  C_20
REMARK    6  A    between atoms: C_21  and  C_22
REMARK    7  A    between atoms: C_29  and  C_31
REMARK                            x       y       z     vdW  Elec       q    Type
REMARK                         _______ _______ _______ _____ _____    ______ ____
ROOT
ATOM      1  C   UNL     1       0.114   0.168   4.707  0.00  0.00    +0.063 C 
ATOM      2  C   UNL     1       0.205  -0.410   5.940  0.00  0.00    +0.052 C 
ATOM      3  N   UNL     1       0.231   0.339   7.037  0.00  0.00    -0.228 NA
ATOM      4  C   UNL     1       0.174   1.646   7.049  0.00  0.00    +0.178 A 
ATOM      5  N   UNL     1       0.079   2.424   5.918  0.00  0.00    -0.274 N 
ATOM      6  C   UNL     1       0.027   3.755   6.057  0.00  0.00    +0.268 A 
ATOM      7  O   UNL     1      -0.057   4.484   5.085  0.00  0.00    -0.266 OA
ATOM      8  C   UNL     1       0.074   4.310   7.415  0.00  0.00    +0.080 A 
ATOM      9  C   UNL     1       0.037   5.613   7.822  0.00  0.00    +0.020 C 
ATOM     10  S   UNL     1       0.194   2.819   8.391  0.00  0.00    -0.046 S 
ATOM     11  C   UNL     1       0.050   1.676   4.630  0.00  0.00    +0.166 C 
ATOM     12  C   UNL     1       0.277  -1.910   6.059  0.00  0.00    +0.066 C 
ENDROOT
BRANCH  11  13
ATOM     13  C   UNL     1       1.208   2.147   3.788  0.00  0.00    +0.017 A 
ATOM     14  C   UNL     1       1.204   2.616   2.517  0.00  0.00    +0.013 A 
ATOM     15  C   UNL     1       2.400   2.996   1.938  0.00  0.00    +0.008 A 
ATOM     16  C   UNL     1       3.542   2.889   2.660  0.00  0.00    +0.045 A 
ATOM     17  S   UNL     1       2.940   2.240   4.210  0.00  0.00    -0.099 S 
ENDBRANCH  11  13
BRANCH   1  19
ATOM     18  N   UNL     1       1.230  -1.135   3.049  0.00  0.00    -0.281 N 
ATOM     19  C   UNL     1       0.086  -0.617   3.540  0.00  0.00    +0.248 C 
ATOM     20  O   UNL     1      -0.972  -0.830   2.973  0.00  0.00    -0.270 OA
ATOM     21  H   UNL     1       2.066  -0.999   3.521  0.00  0.00    +0.155 HD
BRANCH  18  28
ATOM     22  C   UNL     1       3.612  -1.239   1.496  0.00  0.00    +0.045 C 
ATOM     23  C   UNL     1       2.351  -1.946   1.070  0.00  0.00    -0.029 A 
ATOM     24  C   UNL     1       2.330  -2.676  -0.102  0.00  0.00    +0.005 A 
ATOM     25  C   UNL     1       1.173  -3.325  -0.494  0.00  0.00    +0.000 A 
ATOM     26  C   UNL     1       0.034  -3.245   0.286  0.00  0.00    +0.002 A 
ATOM     27  C   UNL     1       0.048  -2.517   1.459  0.00  0.00    +0.023 A 
ATOM     28  C   UNL     1       1.210  -1.869   1.858  0.00  0.00    +0.037 A 
ENDBRANCH  18  28
ENDBRANCH   1  19
BRANCH   9  29
ATOM     29  C   UNL     1      -0.060   6.646   6.869  0.00  0.00    +0.002 C 
ATOM     30  C   UNL     1      -0.096   7.938   7.272  0.00  0.00    +0.008 C 
BRANCH  30  31
ATOM     31  C   UNL     1      -0.198   9.016   6.278  0.00  0.00    -0.025 A 
ATOM     32  C   UNL     1      -0.262   8.711   4.914  0.00  0.00    +0.008 A 
ATOM     33  C   UNL     1      -0.357   9.727   3.988  0.00  0.00    +0.001 A 
ATOM     34  C   UNL     1      -0.389  11.047   4.404  0.00  0.00    +0.000 A 
ATOM     35  C   UNL     1      -0.325  11.358   5.752  0.00  0.00    +0.001 A 
ATOM     36  C   UNL     1      -0.236  10.352   6.691  0.00  0.00    +0.008 A 
ENDBRANCH  30  31
ENDBRANCH   9  29
TORSDOF 5
