REMARK  Name = ZINC40031735
REMARK  8 active torsions:
REMARK  status: ('A' for Active; 'I' for Inactive)
REMARK    1  A    between atoms: C_4  and  C_7
REMARK    2  A    between atoms: C_7  and  O_8
REMARK    3  A    between atoms: O_8  and  C_9
REMARK    4  A    between atoms: C_12  and  C_15
REMARK    5  A    between atoms: N_30  and  C_31
REMARK    6  A    between atoms: C_31  and  C_32
REMARK    7  A    between atoms: C_32  and  C_33
REMARK    8  A    between atoms: C_33  and  O_34
REMARK                            x       y       z     vdW  Elec       q    Type
REMARK                         _______ _______ _______ _____ _____    ______ ____
ROOT
ATOM      1  C   UNL     1       9.022  -3.675   1.977  0.00  0.00    +0.144 C 
ATOM      2  C   UNL     1      10.104  -2.713   2.345  0.00  0.00    +0.072 A 
ATOM      3  C   UNL     1      10.659  -1.563   1.625  0.00  0.00    +0.199 A 
ATOM      4  O   UNL     1      10.158  -1.104   0.613  0.00  0.00    -0.287 OA
ATOM      5  C   UNL     1      11.889  -1.010   2.246  0.00  0.00    +0.065 A 
ATOM      6  C   UNL     1      12.646  -0.048   1.578  0.00  0.00    +0.030 A 
ATOM      7  C   UNL     1      13.788   0.450   2.167  0.00  0.00    +0.019 A 
ATOM      8  C   UNL     1      14.181  -0.007   3.419  0.00  0.00    +0.019 A 
ATOM      9  C   UNL     1      13.440  -0.955   4.087  0.00  0.00    +0.048 A 
ATOM     10  C   UNL     1      12.279  -1.472   3.514  0.00  0.00    +0.140 A 
ATOM     11  O   UNL     1      11.565  -2.396   4.197  0.00  0.00    -0.450 OA
ATOM     12  C   UNL     1      10.580  -3.072   3.574  0.00  0.00    +0.199 A 
ATOM     13  C   UNL     1       9.837  -4.260   4.029  0.00  0.00    +0.283 C 
ATOM     14  O   UNL     1      10.020  -4.833   5.084  0.00  0.00    -0.267 OA
ATOM     15  N   UNL     1       8.924  -4.621   3.102  0.00  0.00    -0.284 N 
ATOM     16 BR   UNL     1      14.822   1.754   1.270  0.00  0.00    -0.050 Br
ENDROOT
BRANCH   1  20
ATOM     17  C   UNL     1       5.319  -1.605   1.466  0.00  0.00    +0.121 A 
ATOM     18  C   UNL     1       6.048  -2.007   0.357  0.00  0.00    +0.046 A 
ATOM     19  C   UNL     1       7.245  -2.676   0.525  0.00  0.00    +0.009 A 
ATOM     20  C   UNL     1       7.716  -2.945   1.797  0.00  0.00    -0.022 A 
ATOM     21  C   UNL     1       6.990  -2.545   2.904  0.00  0.00    +0.009 A 
ATOM     22  C   UNL     1       5.796  -1.871   2.742  0.00  0.00    +0.046 A 
BRANCH  17  23
ATOM     23  O   UNL     1       4.141  -0.946   1.304  0.00  0.00    -0.487 OA
BRANCH  23  24
ATOM     24  C   UNL     1       3.711  -0.707  -0.038  0.00  0.00    +0.264 C 
BRANCH  24  28
ATOM     25  C   UNL     1      -0.017   1.378   0.010  0.00  0.00    +0.000 A 
ATOM     26  C   UNL     1       1.171   2.086   0.002  0.00  0.00    +0.000 A 
ATOM     27  C   UNL     1       2.377   1.411  -0.013  0.00  0.00    +0.007 A 
ATOM     28  C   UNL     1       2.396   0.029  -0.020  0.00  0.00    -0.010 A 
ATOM     29  C   UNL     1       1.208  -0.679  -0.012  0.00  0.00    +0.007 A 
ATOM     30  C   UNL     1       0.002  -0.004   0.002  0.00  0.00    +0.000 A 
ENDBRANCH  24  28
ENDBRANCH  23  24
ENDBRANCH  17  23
ENDBRANCH   1  20
BRANCH  15  31
ATOM     31  C   UNL     1       7.998  -5.752   3.197  0.00  0.00    +0.111 C 
BRANCH  31  32
ATOM     32  C   UNL     1       8.653  -6.999   2.598  0.00  0.00    +0.047 C 
BRANCH  32  33
ATOM     33  C   UNL     1       7.686  -8.180   2.697  0.00  0.00    +0.157 C 
BRANCH  33  34
ATOM     34  O   UNL     1       8.298  -9.344   2.138  0.00  0.00    -0.395 OA
ATOM     35  H   UNL     1       7.740 -10.134   2.167  0.00  0.00    +0.209 HD
ENDBRANCH  33  34
ENDBRANCH  32  33
ENDBRANCH  31  32
ENDBRANCH  15  31
TORSDOF 8
