REMARK  Name = ZINC12250972
REMARK  7 active torsions:
REMARK  status: ('A' for Active; 'I' for Inactive)
REMARK    1  A    between atoms: C_3  and  C_6
REMARK    2  A    between atoms: C_9  and  C_28
REMARK    3  A    between atoms: C_10  and  S_12
REMARK    4  A    between atoms: S_12  and  C_13
REMARK    5  A    between atoms: C_13  and  C_14
REMARK    6  A    between atoms: N_16  and  C_17
REMARK    7  A    between atoms: C_18  and  C_26
REMARK                            x       y       z     vdW  Elec       q    Type
REMARK                         _______ _______ _______ _____ _____    ______ ____
ROOT
ATOM      1  C   UNL     1      -2.653   8.627  -3.320  0.00  0.00    +0.172 C 
ENDROOT
BRANCH   1   2
ATOM      2  C   UNL     1      -2.279   7.222  -2.922  0.00  0.00    +0.228 C 
ATOM      3  O   UNL     1      -2.260   6.341  -3.755  0.00  0.00    -0.275 OA
ATOM      4  N   UNL     1      -1.965   6.946  -1.641  0.00  0.00    -0.278 N 
ATOM      5  H   UNL     1      -1.980   7.652  -0.975  0.00  0.00    +0.155 HD
BRANCH   4   6
ATOM      6  C   UNL     1      -1.621   5.653  -1.274  0.00  0.00    +0.090 A 
ATOM      7  C   UNL     1      -1.271   5.177  -0.019  0.00  0.00    +0.084 A 
ATOM      8  C   UNL     1      -0.951   3.765   0.100  0.00  0.00    -0.018 A 
ATOM      9  C   UNL     1      -1.032   3.059  -1.049  0.00  0.00    -0.004 A 
ATOM     10  S   UNL     1      -1.524   4.240  -2.273  0.00  0.00    -0.077 S 
ATOM     11  C   UNL     1      -0.761   1.597  -1.232  0.00  0.00    +0.043 C 
ATOM     12  C   UNL     1      -0.013   1.086   0.008  0.00  0.00    +0.005 C 
ATOM     13  C   UNL     1      -0.735   1.583   1.264  0.00  0.00    +0.005 C 
ATOM     14  C   UNL     1      -0.551   3.094   1.407  0.00  0.00    +0.037 C 
BRANCH   7  15
ATOM     15  C   UNL     1      -1.226   6.046   1.118  0.00  0.00    +0.102 C 
ATOM     16  N   UNL     1      -1.191   6.736   2.020  0.00  0.00    -0.191 NA
ENDBRANCH   7  15
ENDBRANCH   4   6
ENDBRANCH   1   2
BRANCH   1  17
ATOM     17  S   UNL     1      -3.016   8.675  -5.093  0.00  0.00    -0.095 S 
BRANCH  17  22
ATOM     18  C   UNL     1      -3.662  12.478  -4.330  0.00  0.00    +0.107 A 
ATOM     19  C   UNL     1      -4.024  13.039  -5.558  0.00  0.00    +0.033 A 
ATOM     20  C   UNL     1      -4.080  12.246  -6.672  0.00  0.00    +0.024 A 
ATOM     21  C   UNL     1      -3.769  10.884  -6.544  0.00  0.00    +0.084 A 
ATOM     22  C   UNL     1      -3.411  10.382  -5.278  0.00  0.00    +0.116 A 
ATOM     23  N   UNL     1      -3.375  11.183  -4.226  0.00  0.00    -0.236 NA
BRANCH  18  26
ATOM     24  C   UNL     1      -3.339  14.063  -1.048  0.00  0.00    +0.042 A 
ATOM     25  C   UNL     1      -3.271  12.925  -1.873  0.00  0.00    +0.051 A 
ATOM     26  C   UNL     1      -3.601  13.333  -3.130  0.00  0.00    +0.153 A 
ATOM     27  O   UNL     1      -3.870  14.653  -3.085  0.00  0.00    -0.461 OA
ATOM     28  C   UNL     1      -3.712  15.097  -1.829  0.00  0.00    +0.196 A 
ENDBRANCH  18  26
BRANCH  21  29
ATOM     29  C   UNL     1      -3.814  10.018  -7.683  0.00  0.00    +0.102 C 
ATOM     30  N   UNL     1      -3.850   9.331  -8.587  0.00  0.00    -0.191 NA
ENDBRANCH  21  29
ENDBRANCH  17  22
ENDBRANCH   1  17
TORSDOF 7
