REMARK  Name = ZINC45538013
REMARK  6 active torsions:
REMARK  status: ('A' for Active; 'I' for Inactive)
REMARK    1  A    between atoms: C_9  and  S_13
REMARK    2  A    between atoms: S_13  and  C_14
REMARK    3  A    between atoms: C_14  and  C_15
REMARK    4  A    between atoms: C_15  and  C_17
REMARK    5  A    between atoms: C_18  and  N_29
REMARK    6  A    between atoms: N_19  and  C_26
REMARK                            x       y       z     vdW  Elec       q    Type
REMARK                         _______ _______ _______ _____ _____    ______ ____
ROOT
ATOM      1  C   UNL     1      -0.697  -7.902   2.585  0.00  0.00    +0.157 C 
ENDROOT
BRANCH   1   2
ATOM      2  C   UNL     1      -1.248  -8.939   3.529  0.00  0.00    +0.182 C 
ATOM      3  O   UNL     1      -0.540  -9.405   4.399  0.00  0.00    -0.291 OA
BRANCH   2   4
ATOM      4  C   UNL     1      -2.586  -9.368   3.403  0.00  0.00    +0.120 A 
ATOM      5  C   UNL     1      -3.160 -10.241   4.344  0.00  0.00    +0.116 A 
ATOM      6  N   UNL     1      -4.459 -10.628   4.180  0.00  0.00    -0.278 N 
ATOM      7  C   UNL     1      -5.191 -10.193   3.142  0.00  0.00    +0.331 A 
ATOM      8  O   UNL     1      -6.343 -10.567   3.040  0.00  0.00    -0.246 OA
ATOM      9  N   UNL     1      -4.697  -9.359   2.212  0.00  0.00    -0.274 N 
ATOM     10  H   UNL     1      -5.262  -9.071   1.479  0.00  0.00    +0.173 HD
ATOM     11  C   UNL     1      -3.426  -8.914   2.287  0.00  0.00    +0.266 A 
ATOM     12  O   UNL     1      -2.983  -8.154   1.446  0.00  0.00    -0.267 OA
BRANCH   6  13
ATOM     13  C   UNL     1      -5.066 -11.537   5.155  0.00  0.00    +0.094 C 
ATOM     14  C   UNL     1      -6.452 -11.173   5.693  0.00  0.00    +0.027 C 
ATOM     15  C   UNL     1      -5.221 -11.031   6.591  0.00  0.00    +0.027 C 
ENDBRANCH   6  13
BRANCH   5  16
ATOM     16  N   UNL     1      -2.433 -10.692   5.402  0.00  0.00    -0.344 N 
ATOM     17  H   UNL     1      -1.684 -10.172   5.733  0.00  0.00    +0.144 HD
ATOM     18  H   UNL     1      -2.662 -11.534   5.824  0.00  0.00    +0.144 HD
ENDBRANCH   5  16
ENDBRANCH   2   4
ENDBRANCH   1   2
BRANCH   1  19
ATOM     19  S   UNL     1       1.036  -7.565   3.001  0.00  0.00    -0.078 S 
BRANCH  19  28
ATOM     20  C   UNL     1       2.602  -1.565  -2.484  0.00  0.00    +0.005 C 
ATOM     21  C   UNL     1       4.070  -1.836  -2.826  0.00  0.00    +0.005 C 
ATOM     22  C   UNL     1       4.830  -2.134  -1.526  0.00  0.00    +0.043 C 
ATOM     23  C   UNL     1       4.043  -3.132  -0.734  0.00  0.00    -0.004 A 
ATOM     24  C   UNL     1       2.754  -3.492  -0.919  0.00  0.00    -0.025 A 
ATOM     25  C   UNL     1       2.217  -4.491  -0.009  0.00  0.00    +0.051 A 
ATOM     26  C   UNL     1       0.896  -5.027  -0.004  0.00  0.00    +0.129 A 
ATOM     27  N   UNL     1       0.641  -5.938   0.932  0.00  0.00    -0.207 NA
ATOM     28  C   UNL     1       1.529  -6.350   1.824  0.00  0.00    +0.191 A 
ATOM     29  N   UNL     1       2.781  -5.888   1.872  0.00  0.00    -0.215 NA
ATOM     30  C   UNL     1       3.112  -4.980   0.975  0.00  0.00    +0.115 A 
ATOM     31  S   UNL     1       4.604  -4.097   0.648  0.00  0.00    -0.073 S 
ATOM     32  N   UNL     1      -0.062  -4.624  -0.916  0.00  0.00    -0.343 N 
ATOM     33  C   UNL     1       1.926  -2.862  -2.037  0.00  0.00    +0.037 C 
ATOM     34  H   UNL     1       0.196  -4.099  -1.690  0.00  0.00    +0.144 HD
ATOM     35  H   UNL     1      -0.992  -4.866  -0.782  0.00  0.00    +0.144 HD
ENDBRANCH  19  28
ENDBRANCH   1  19
TORSDOF 6
