REMARK  Name = ZINC34749873
REMARK  7 active torsions:
REMARK  status: ('A' for Active; 'I' for Inactive)
REMARK    1  A    between atoms: C_1  and  C_2
REMARK    2  A    between atoms: C_2  and  C_4
REMARK    3  A    between atoms: C_4  and  N_5
REMARK    4  A    between atoms: C_18  and  C_20
REMARK    5  A    between atoms: C_20  and  C_21
REMARK    6  A    between atoms: C_29  and  C_31
REMARK    7  A    between atoms: C_29  and  C_32
REMARK                            x       y       z     vdW  Elec       q    Type
REMARK                         _______ _______ _______ _____ _____    ______ ____
ROOT
ATOM      1  N   UNL     1      -1.046  -0.372   2.402  0.00  0.00    +0.384 N 
ATOM      2  C   UNL     1      -1.348  -0.225   3.831  0.00  0.00    -0.059 C 
ATOM      3  C   UNL     1      -2.686  -0.904   4.141  0.00  0.00    +0.088 C 
ATOM      4  N   UNL     1      -2.621  -2.297   3.674  0.00  0.00    -0.318 N 
ATOM      5  C   UNL     1      -2.168  -2.546   2.297  0.00  0.00    +0.088 C 
ATOM      6  C   UNL     1      -0.855  -1.790   2.074  0.00  0.00    -0.059 C 
ATOM      7  C   UNL     1      -2.977  -3.344   4.506  0.00  0.00    +0.133 A 
ATOM      8  C   UNL     1      -4.340  -3.734   4.631  0.00  0.00    +0.051 A 
ATOM      9  C   UNL     1      -5.520  -3.171   3.979  0.00  0.00    -0.020 A 
ATOM     10  C   UNL     1      -6.712  -3.732   4.274  0.00  0.00    +0.021 A 
ATOM     11  S   UNL     1      -6.341  -5.027   5.422  0.00  0.00    -0.071 S 
ATOM     12  C   UNL     1      -4.582  -4.813   5.506  0.00  0.00    +0.114 A 
ATOM     13  N   UNL     1      -3.600  -5.406   6.157  0.00  0.00    -0.224 NA
ATOM     14  C   UNL     1      -2.355  -4.998   6.001  0.00  0.00    +0.137 A 
ATOM     15  N   UNL     1      -2.054  -3.998   5.192  0.00  0.00    -0.216 NA
ATOM     16  C   UNL     1      -8.045  -3.320   3.729  0.00  0.00    +0.203 C 
ATOM     17  O   UNL     1      -7.887  -2.040   3.097  0.00  0.00    -0.368 OA
ATOM     18  C   UNL     1      -6.770  -1.979   2.205  0.00  0.00    +0.068 C 
ATOM     19  C   UNL     1      -5.460  -2.001   2.999  0.00  0.00    +0.071 C 
ATOM     20  C   UNL     1      -6.810  -3.181   1.259  0.00  0.00    +0.041 C 
ATOM     21  C   UNL     1      -6.845  -0.689   1.386  0.00  0.00    +0.041 C 
ATOM     22  H   UNL     1      -1.812  -0.003   1.859  0.00  0.00    -0.081 HD
ENDROOT
BRANCH   1  23
ATOM     23  C   UNL     1       0.180   0.372   2.083  0.00  0.00    -0.048 C 
BRANCH  23  25
ATOM     24  C   UNL     1      -0.672   2.680   1.212  0.00  0.00    +0.036 C 
ATOM     25  C   UNL     1      -0.054   1.845   2.303  0.00  0.00    -0.096 C 
ATOM     26  C   UNL     1       0.279   2.398   3.443  0.00  0.00    +0.005 C 
ENDBRANCH  23  25
ENDBRANCH   1  23
BRANCH  14  27
ATOM     27  C   UNL     1      -1.252  -5.693   6.756  0.00  0.00    +0.111 C 
BRANCH  27  28
ATOM     28  C   UNL     1      -0.721  -6.837   5.930  0.00  0.00    -0.040 A 
ATOM     29  C   UNL     1      -1.285  -8.094   6.047  0.00  0.00    +0.004 A 
ATOM     30  C   UNL     1      -0.798  -9.143   5.289  0.00  0.00    +0.000 A 
ATOM     31  C   UNL     1       0.253  -8.935   4.415  0.00  0.00    +0.000 A 
ATOM     32  C   UNL     1       0.816  -7.678   4.298  0.00  0.00    +0.000 A 
ATOM     33  C   UNL     1       0.326  -6.628   5.052  0.00  0.00    +0.004 A 
ENDBRANCH  27  28
ENDBRANCH  14  27
TORSDOF 4
