REMARK  Name = ZINC08919686
REMARK  7 active torsions:
REMARK  status: ('A' for Active; 'I' for Inactive)
REMARK    1  A    between atoms: C_4  and  C_7
REMARK    2  A    between atoms: C_7  and  C_8
REMARK    3  A    between atoms: C_13  and  C_14
REMARK    4  A    between atoms: C_13  and  N_64
REMARK    5  A    between atoms: C_14  and  C_15
REMARK    6  A    between atoms: C_18  and  C_30
REMARK    7  A    between atoms: C_21  and  C_23
REMARK                            x       y       z     vdW  Elec       q    Type
REMARK                         _______ _______ _______ _____ _____    ______ ____
ROOT
ATOM      1  C   UNL     1      -1.083  -0.803   0.007  0.00  0.00    +0.234 C 
ATOM      2  O   UNL     1      -2.195  -0.316   0.020  0.00  0.00    -0.274 OA
ATOM      3  N   UNL     1       0.002  -0.004   0.002  0.00  0.00    -0.182 N 
ATOM      4  C   UNL     1      -0.018   1.467   0.010  0.00  0.00    +0.172 C 
ATOM      5  C   UNL     1       1.476   1.849  -0.002  0.00  0.00    +0.090 C 
ATOM      6  C   UNL     1       2.192   0.518  -0.016  0.00  0.00    +0.069 C 
ATOM      7  N   UNL     1       1.327  -0.436  -0.013  0.00  0.00    -0.181 NA
ENDROOT
BRANCH   6   8
ATOM      8  C   UNL     1       3.656   0.339  -0.030  0.00  0.00    -0.002 A 
ATOM      9  C   UNL     1       4.498   1.453  -0.037  0.00  0.00    +0.011 A 
ATOM     10  C   UNL     1       5.866   1.279  -0.045  0.00  0.00    +0.020 A 
ATOM     11  C   UNL     1       6.405   0.003  -0.057  0.00  0.00    +0.041 A 
ATOM     12  C   UNL     1       5.575  -1.105  -0.055  0.00  0.00    +0.020 A 
ATOM     13  C   UNL     1       4.205  -0.945  -0.042  0.00  0.00    +0.011 A 
ATOM     14 CL   UNL     1       8.128  -0.207  -0.073  0.00  0.00    -0.084 Cl
ENDBRANCH   6   8
BRANCH   4  15
ATOM     15  C   UNL     1      -0.710   1.995  -1.220  0.00  0.00    +0.128 A 
ATOM     16  C   UNL     1      -1.531   3.060  -1.265  0.00  0.00    +0.046 A 
ATOM     17  C   UNL     1      -1.952   3.196  -2.608  0.00  0.00    +0.041 A 
ATOM     18  C   UNL     1      -1.364   2.206  -3.303  0.00  0.00    +0.195 A 
ATOM     19  O   UNL     1      -0.608   1.486  -2.458  0.00  0.00    -0.466 OA
ENDBRANCH   4  15
BRANCH   1  20
ATOM     20  C   UNL     1      -0.917  -2.301  -0.002  0.00  0.00    +0.079 C 
BRANCH  20  21
ATOM     21  C   UNL     1      -2.294  -2.967   0.007  0.00  0.00    -0.070 C 
BRANCH  21  27
ATOM     22  C   UNL     1      -2.547  -7.134  -0.919  0.00  0.00    -0.010 C 
ATOM     23  C   UNL     1      -3.182  -6.608   0.371  0.00  0.00    -0.015 C 
ATOM     24  C   UNL     1      -3.413  -5.101   0.243  0.00  0.00    -0.079 C 
ATOM     25  C   UNL     1      -1.526  -4.881  -1.261  0.00  0.00    -0.079 C 
ATOM     26  C   UNL     1      -1.239  -6.382  -1.178  0.00  0.00    -0.015 C 
ATOM     27  N   UNL     1      -2.113  -4.433   0.020  0.00  0.00    +0.380 N 
ATOM     28  H   UNL     1      -1.475  -4.684   0.784  0.00  0.00    -0.082 HD
BRANCH  22  29
ATOM     29  C   UNL     1      -2.260  -8.629  -0.775  0.00  0.00    +0.038 C 
BRANCH  29  33
ATOM     30  C   UNL     1      -0.814 -10.166  -4.489  0.00  0.00    +0.000 A 
ATOM     31  C   UNL     1       0.075  -9.669  -3.554  0.00  0.00    +0.000 A 
ATOM     32  C   UNL     1      -0.393  -9.172  -2.352  0.00  0.00    +0.003 A 
ATOM     33  C   UNL     1      -1.750  -9.171  -2.086  0.00  0.00    -0.047 A 
ATOM     34  C   UNL     1      -2.638  -9.673  -3.019  0.00  0.00    +0.003 A 
ATOM     35  C   UNL     1      -2.170 -10.166  -4.223  0.00  0.00    +0.000 A 
ENDBRANCH  29  33
ENDBRANCH  22  29
ENDBRANCH  21  27
ENDBRANCH  20  21
ENDBRANCH   1  20
TORSDOF 7
