REMARK  Name = ZINC06443013
REMARK  11 active torsions:
REMARK  status: ('A' for Active; 'I' for Inactive)
REMARK    1  A    between atoms: C_1  and  C_2
REMARK    2  A    between atoms: C_6  and  N_9
REMARK    3  A    between atoms: C_7  and  C_8
REMARK    4  A    between atoms: C_14  and  C_16
REMARK    5  A    between atoms: C_14  and  C_29
REMARK    6  A    between atoms: C_14  and  N_71
REMARK    7  A    between atoms: C_22  and  C_28
REMARK    8  A    between atoms: N_33  and  C_34
REMARK    9  A    between atoms: C_34  and  C_35
REMARK   10  A    between atoms: C_34  and  C_36
REMARK   11  A    between atoms: C_34  and  C_37
REMARK                            x       y       z     vdW  Elec       q    Type
REMARK                         _______ _______ _______ _____ _____    ______ ____
ROOT
ATOM      1  C   UNL     1       0.107  -2.860   5.057  0.00  0.00    +0.039 C 
ENDROOT
BRANCH   1   2
ATOM      2  C   UNL     1       0.028  -1.965   3.847  0.00  0.00    +0.011 A 
ATOM      3  C   UNL     1       1.065  -1.144   3.546  0.00  0.00    +0.017 A 
ATOM      4  C   UNL     1       0.957  -0.287   2.364  0.00  0.00    -0.001 A 
ATOM      5  C   UNL     1       1.993   0.581   2.003  0.00  0.00    +0.010 A 
ATOM      6  C   UNL     1       1.862   1.368   0.894  0.00  0.00    +0.001 A 
ATOM      7  C   UNL     1       0.712   1.309   0.118  0.00  0.00    +0.005 A 
ATOM      8  C   UNL     1      -0.324   0.466   0.459  0.00  0.00    -0.026 A 
ATOM      9  C   UNL     1      -0.213  -0.344   1.584  0.00  0.00    +0.052 A 
ATOM     10  N   UNL     1      -1.231  -1.201   1.945  0.00  0.00    -0.322 N 
ATOM     11  H   UNL     1      -2.037  -1.239   1.406  0.00  0.00    +0.169 HD
ATOM     12  C   UNL     1      -1.124  -1.984   3.032  0.00  0.00    +0.251 A 
ATOM     13  O   UNL     1      -2.043  -2.730   3.321  0.00  0.00    -0.268 OA
ATOM     14  C   UNL     1      -1.570   0.419  -0.388  0.00  0.00    +0.046 C 
ENDBRANCH   1   2
BRANCH   1  20
ATOM     15  N   UNL     1      -2.107  -1.621   8.435  0.00  0.00    -0.333 N 
ATOM     16  C   UNL     1      -2.122  -3.049   8.088  0.00  0.00    +0.086 C 
ATOM     17  C   UNL     1      -0.924  -3.365   7.190  0.00  0.00    -0.058 C 
ATOM     18  C   UNL     1      -0.972  -1.104   6.329  0.00  0.00    -0.058 C 
ATOM     19  C   UNL     1      -2.170  -0.787   7.227  0.00  0.00    +0.086 C 
ATOM     20  N   UNL     1      -1.011  -2.537   5.969  0.00  0.00    +0.391 N 
ATOM     21  H   UNL     1      -1.899  -2.737   5.493  0.00  0.00    -0.080 HD
BRANCH  15  27
ATOM     22  C   UNL     1      -3.588   0.097  12.795  0.00  0.00    +0.044 C 
ATOM     23  C   UNL     1      -3.894  -0.474  11.435  0.00  0.00    -0.046 A 
ATOM     24  C   UNL     1      -5.206  -0.689  11.055  0.00  0.00    +0.004 A 
ATOM     25  C   UNL     1      -5.491  -1.213   9.807  0.00  0.00    +0.002 A 
ATOM     26  C   UNL     1      -4.465  -1.523   8.936  0.00  0.00    +0.023 A 
ATOM     27  C   UNL     1      -3.146  -1.308   9.314  0.00  0.00    +0.033 A 
ATOM     28  C   UNL     1      -2.863  -0.787  10.570  0.00  0.00    -0.027 A 
ATOM     29  C   UNL     1      -1.433  -0.558  10.987  0.00  0.00    +0.046 C 
ENDBRANCH  15  27
ENDBRANCH   1  20
BRANCH   1  30
ATOM     30  C   UNL     1       1.429  -2.654   5.750  0.00  0.00    +0.143 A 
ATOM     31  N   UNL     1       1.792  -1.605   6.446  0.00  0.00    -0.115 NA
ATOM     32  N   UNL     1       2.990  -1.807   6.876  0.00  0.00    -0.023 NA
ATOM     33  N   UNL     1       3.400  -2.959   6.472  0.00  0.00    -0.043 NA
ATOM     34  N   UNL     1       2.464  -3.514   5.779  0.00  0.00    -0.225 N 
BRANCH  34  35
ATOM     35  C   UNL     1       2.519  -4.832   5.141  0.00  0.00    +0.059 C 
ATOM     36  C   UNL     1       2.245  -4.684   3.643  0.00  0.00    +0.036 C 
ATOM     37  C   UNL     1       3.906  -5.442   5.348  0.00  0.00    +0.036 C 
ATOM     38  C   UNL     1       1.461  -5.745   5.765  0.00  0.00    +0.036 C 
ENDBRANCH  34  35
ENDBRANCH   1  30
TORSDOF 5
