REMARK  Name = ZINC13202926
REMARK  7 active torsions:
REMARK  status: ('A' for Active; 'I' for Inactive)
REMARK    1  A    between atoms: C_3  and  C_6
REMARK    2  A    between atoms: C_14  and  C_16
REMARK    3  A    between atoms: C_16  and  S_17
REMARK    4  A    between atoms: S_17  and  C_18
REMARK    5  A    between atoms: C_21  and  C_26
REMARK    6  A    between atoms: N_22  and  C_23
REMARK    7  A    between atoms: C_23  and  C_24
REMARK                            x       y       z     vdW  Elec       q    Type
REMARK                         _______ _______ _______ _____ _____    ______ ____
ROOT
ATOM      1  C   UNL     1       2.305   9.889  -0.811  0.00  0.00    +0.173 C 
ENDROOT
BRANCH   1  10
ATOM      2  C   UNL     1       2.601  15.472   1.792  0.00  0.00    +0.282 C 
ATOM      3  O   UNL     1       1.493  15.689   2.246  0.00  0.00    -0.267 OA
ATOM      4  N   UNL     1       2.912  14.244   1.331  0.00  0.00    -0.292 N 
ATOM      5  C   UNL     1       4.183  14.007   0.632  0.00  0.00    +0.127 C 
ATOM      6  C   UNL     1       3.880  13.388  -0.738  0.00  0.00    +0.127 C 
ATOM      7  N   UNL     1       2.954  12.262  -0.550  0.00  0.00    -0.298 N 
ATOM      8  C   UNL     1       1.681  12.500   0.144  0.00  0.00    +0.127 C 
ATOM      9  C   UNL     1       1.986  13.118   1.519  0.00  0.00    +0.127 C 
ATOM     10  C   UNL     1       3.265  11.034  -1.011  0.00  0.00    +0.226 C 
ATOM     11  O   UNL     1       4.316  10.851  -1.587  0.00  0.00    -0.275 OA
BRANCH   2  14
ATOM     12  C   UNL     1       4.598  18.527   1.864  0.00  0.00    +0.042 A 
ATOM     13  C   UNL     1       3.375  17.861   2.040  0.00  0.00    +0.054 A 
ATOM     14  C   UNL     1       3.598  16.547   1.745  0.00  0.00    +0.189 A 
ATOM     15  O   UNL     1       4.897  16.409   1.409  0.00  0.00    -0.458 OA
ATOM     16  C   UNL     1       5.503  17.602   1.475  0.00  0.00    +0.196 A 
ENDBRANCH   2  14
ENDBRANCH   1  10
BRANCH   1  17
ATOM     17  S   UNL     1       3.002   8.384  -1.536  0.00  0.00    -0.077 S 
BRANCH  17  18
ATOM     18  C   UNL     1       1.712   7.242  -1.169  0.00  0.00    +0.193 A 
ATOM     19  N   UNL     1       0.592   7.509  -0.538  0.00  0.00    -0.122 NA
ATOM     20  N   UNL     1      -0.125   6.447  -0.440  0.00  0.00    -0.128 NA
ATOM     21  C   UNL     1       0.494   5.434  -1.004  0.00  0.00    +0.172 A 
ATOM     22  N   UNL     1       1.694   5.911  -1.484  0.00  0.00    -0.291 N 
BRANCH  21  23
ATOM     23  C   UNL     1       0.003   4.050  -1.099  0.00  0.00    +0.056 A 
ATOM     24  C   UNL     1      -1.266   3.567  -0.895  0.00  0.00    +0.019 A 
ATOM     25  C   UNL     1      -1.492   2.218  -1.049  0.00  0.00    +0.008 A 
ATOM     26  C   UNL     1      -0.455   1.407  -1.385  0.00  0.00    +0.046 A 
ATOM     27  S   UNL     1       0.900   2.562  -1.509  0.00  0.00    -0.094 S 
ENDBRANCH  21  23
BRANCH  22  28
ATOM     28  C   UNL     1       2.732   5.153  -2.187  0.00  0.00    +0.250 C 
BRANCH  28  29
ATOM     29  C   UNL     1       2.469   5.198  -3.670  0.00  0.00    +0.375 C 
ATOM     30  O   UNL     1       1.513   5.802  -4.096  0.00  0.00    -0.244 OA
ATOM     31  O   UNL     1       3.297   4.568  -4.518  0.00  0.00    -0.244 OA
ENDBRANCH  28  29
ENDBRANCH  22  28
ENDBRANCH  17  18
ENDBRANCH   1  17
TORSDOF 7
