REMARK  Name = ZINC21964822
REMARK  13 active torsions:
REMARK  status: ('A' for Active; 'I' for Inactive)
REMARK    1  A    between atoms: C_1  and  C_2
REMARK    2  A    between atoms: C_2  and  C_3
REMARK    3  A    between atoms: C_2  and  N_4
REMARK    4  A    between atoms: N_4  and  C_5
REMARK    5  A    between atoms: N_4  and  C_32
REMARK    6  A    between atoms: C_5  and  C_6
REMARK    7  A    between atoms: C_6  and  N_7
REMARK    8  A    between atoms: C_17  and  S_18
REMARK    9  A    between atoms: S_18  and  C_19
REMARK   10  A    between atoms: C_19  and  C_20
REMARK   11  A    between atoms: C_20  and  N_21
REMARK   12  A    between atoms: C_32  and  C_33
REMARK   13  A    between atoms: C_32  and  C_34
REMARK                            x       y       z     vdW  Elec       q    Type
REMARK                         _______ _______ _______ _____ _____    ______ ____
ROOT
ATOM      1  N   UNL     1      -0.452   1.236   1.541  0.00  0.00    -0.289 N 
ATOM      2  C   UNL     1      -1.031   0.239   2.249  0.00  0.00    +0.262 A 
ATOM      3  O   UNL     1      -1.127  -0.886   1.794  0.00  0.00    -0.267 OA
ATOM      4  C   UNL     1      -1.538   0.564   3.589  0.00  0.00    +0.065 A 
ATOM      5  C   UNL     1      -2.150  -0.393   4.398  0.00  0.00    +0.015 A 
ATOM      6  C   UNL     1      -2.604  -0.036   5.638  0.00  0.00    +0.001 A 
ATOM      7  C   UNL     1      -2.463   1.267   6.098  0.00  0.00    +0.002 A 
ATOM      8  C   UNL     1      -1.868   2.224   5.326  0.00  0.00    +0.028 A 
ATOM      9  C   UNL     1      -1.393   1.891   4.054  0.00  0.00    +0.079 A 
ATOM     10  N   UNL     1      -0.799   2.805   3.260  0.00  0.00    -0.223 NA
ATOM     11  C   UNL     1      -0.349   2.491   2.070  0.00  0.00    +0.172 A 
ENDROOT
BRANCH   1  12
ATOM     12  C   UNL     1       0.072   0.967   0.200  0.00  0.00    +0.109 C 
BRANCH  12  13
ATOM     13  C   UNL     1      -1.027   1.212  -0.836  0.00  0.00    -0.056 C 
BRANCH  13  14
ATOM     14  N   UNL     1      -0.502   0.942  -2.181  0.00  0.00    +0.384 N 
ATOM     15  H   UNL     1      -0.045  -0.059  -2.171  0.00  0.00    -0.081 HD
BRANCH  14  17
ATOM     16  C   UNL     1      -2.266  -0.433  -3.178  0.00  0.00    -0.014 C 
ATOM     17  C   UNL     1      -1.582   0.935  -3.177  0.00  0.00    -0.074 C 
ATOM     18  C   UNL     1      -2.606   2.017  -2.826  0.00  0.00    -0.014 C 
ENDBRANCH  14  17
BRANCH  14  19
ATOM     19  C   UNL     1       0.542   1.910  -2.543  0.00  0.00    -0.074 C 
ATOM     20  C   UNL     1       1.234   1.457  -3.830  0.00  0.00    -0.014 C 
ATOM     21  C   UNL     1      -0.092   3.285  -2.762  0.00  0.00    -0.014 C 
ENDBRANCH  14  19
ENDBRANCH  13  14
ENDBRANCH  12  13
ENDBRANCH   1  12
BRANCH  11  22
ATOM     22  S   UNL     1       0.420   3.749   1.105  0.00  0.00    -0.086 S 
BRANCH  22  23
ATOM     23  C   UNL     1       0.289   5.146   2.247  0.00  0.00    +0.097 C 
BRANCH  23  24
ATOM     24  C   UNL     1       0.910   6.389   1.606  0.00  0.00    +0.128 C 
BRANCH  24  25
ATOM     25  N   UNL     1       0.804   7.520   2.531  0.00  0.00    -0.233 N 
ATOM     26  C   UNL     1      -0.232   8.377   2.570  0.00  0.00    +0.254 C 
ATOM     27  O   UNL     1      -1.214   8.336   1.856  0.00  0.00    -0.270 OA
ATOM     28  C   UNL     1       0.022   9.375   3.631  0.00  0.00    +0.049 A 
ATOM     29  C   UNL     1      -0.676  10.469   4.117  0.00  0.00    +0.014 A 
ATOM     30  C   UNL     1      -0.139  11.224   5.148  0.00  0.00    +0.001 A 
ATOM     31  C   UNL     1       1.088  10.892   5.694  0.00  0.00    +0.001 A 
ATOM     32  C   UNL     1       1.797   9.801   5.217  0.00  0.00    +0.014 A 
ATOM     33  C   UNL     1       1.272   9.037   4.187  0.00  0.00    +0.049 A 
ATOM     34  C   UNL     1       1.733   7.842   3.449  0.00  0.00    +0.254 C 
ATOM     35  O   UNL     1       2.776   7.250   3.640  0.00  0.00    -0.270 OA
ENDBRANCH  24  25
ENDBRANCH  23  24
ENDBRANCH  22  23
ENDBRANCH  11  22
TORSDOF 9
