REMARK  Name = ZINC06134613
REMARK  11 active torsions:
REMARK  status: ('A' for Active; 'I' for Inactive)
REMARK    1  A    between atoms: C_1  and  C_2
REMARK    2  A    between atoms: C_2  and  C_3
REMARK    3  A    between atoms: C_15  and  O_33
REMARK    4  A    between atoms: C_21  and  C_28
REMARK    5  A    between atoms: C_21  and  O_32
REMARK    6  A    between atoms: C_22  and  O_24
REMARK    7  A    between atoms: O_24  and  C_25
REMARK    8  A    between atoms: C_25  and  C_27
REMARK    9  A    between atoms: C_28  and  O_30
REMARK   10  A    between atoms: O_30  and  C_31
REMARK   11  A    between atoms: O_33  and  C_34
REMARK                            x       y       z     vdW  Elec       q    Type
REMARK                         _______ _______ _______ _____ _____    ______ ____
ROOT
ATOM      1  C   UNL     1      -2.337   1.363   1.903  0.00  0.00    +0.018 C 
ATOM      2  C   UNL     1      -2.863   2.406   0.936  0.00  0.00    -0.024 C 
ATOM      3  C   UNL     1      -3.044   3.599   1.452  0.00  0.00    -0.049 C 
ATOM      4  C   UNL     1      -2.759   3.915   2.891  0.00  0.00    -0.051 C 
ATOM      5  C   UNL     1      -3.205   1.512   3.161  0.00  0.00    -0.042 C 
ATOM      6  C   UNL     1      -2.795   0.458   4.175  0.00  0.00    +0.006 C 
ATOM      7  C   UNL     1      -1.522   1.016   4.816  0.00  0.00    -0.007 C 
ATOM      8  C   UNL     1      -1.757   2.556   4.764  0.00  0.00    -0.077 C 
ATOM      9  C   UNL     1      -3.729   0.171   5.319  0.00  0.00    -0.020 A 
ATOM     10  C   UNL     1      -4.647   0.932   5.996  0.00  0.00    +0.009 A 
ATOM     11  C   UNL     1      -5.339   0.315   7.033  0.00  0.00    +0.046 A 
ATOM     12  C   UNL     1      -5.109  -1.008   7.370  0.00  0.00    +0.122 A 
ATOM     13  C   UNL     1      -4.178  -1.788   6.688  0.00  0.00    +0.068 A 
ATOM     14  C   UNL     1      -3.491  -1.186   5.645  0.00  0.00    +0.035 A 
ATOM     15  N   UNL     1      -2.525  -1.724   4.771  0.00  0.00    -0.336 N 
ATOM     16  C   UNL     1      -2.789  -0.934   3.546  0.00  0.00    +0.126 C 
ATOM     17  C   UNL     1      -1.898  -1.115   2.352  0.00  0.00    +0.219 C 
ATOM     18  C   UNL     1      -2.232  -0.016   1.321  0.00  0.00    +0.229 C 
ATOM     19  H   UNL     1      -1.877  -2.413   4.930  0.00  0.00    +0.147 HD
ATOM     20  N   UNL     1      -2.917   2.769   3.870  0.00  0.00    +0.385 N 
ATOM     21  H   UNL     1      -3.724   2.991   4.465  0.00  0.00    -0.081 HD
ENDROOT
BRANCH   1  23
ATOM     22  C   UNL     1      -0.171   1.840   0.766  0.00  0.00    +0.005 C 
ATOM     23  C   UNL     1      -0.908   1.845   2.107  0.00  0.00    +0.010 C 
ENDBRANCH   1  23
BRANCH  17  24
ATOM     24  C   UNL     1      -0.436  -1.197   2.689  0.00  0.00    +0.345 C 
ATOM     25  O   UNL     1      -0.054  -0.904   3.797  0.00  0.00    -0.247 OA
BRANCH  24  26
ATOM     26  O   UNL     1       0.446  -1.596   1.759  0.00  0.00    -0.466 OA
ATOM     27  C   UNL     1       1.842  -1.651   2.155  0.00  0.00    +0.280 C 
ENDBRANCH  24  26
ENDBRANCH  17  24
BRANCH  17  28
ATOM     28  O   UNL     1      -2.244  -2.391   1.735  0.00  0.00    -0.373 OA
ATOM     29  H   UNL     1      -1.721  -2.602   0.949  0.00  0.00    +0.211 HD
ENDBRANCH  17  28
BRANCH  12  30
ATOM     30  O   UNL     1      -5.813  -1.564   8.391  0.00  0.00    -0.495 OA
ATOM     31  C   UNL     1      -6.757  -0.725   9.060  0.00  0.00    +0.277 C 
ENDBRANCH  12  30
BRANCH  18  32
ATOM     32  O   UNL     1      -1.215  -0.015   0.275  0.00  0.00    -0.457 OA
BRANCH  32  33
ATOM     33  C   UNL     1      -1.379  -0.883  -0.735  0.00  0.00    +0.304 C 
ATOM     34  O   UNL     1      -2.337  -1.619  -0.750  0.00  0.00    -0.251 OA
ATOM     35  C   UNL     1      -0.369  -0.940  -1.852  0.00  0.00    +0.136 C 
ENDBRANCH  32  33
ENDBRANCH  18  32
TORSDOF 7
