REMARK  Name = ZINC09791425
REMARK  10 active torsions:
REMARK  status: ('A' for Active; 'I' for Inactive)
REMARK    1  A    between atoms: C_4  and  C_7
REMARK    2  A    between atoms: N_11  and  C_12
REMARK    3  A    between atoms: C_12  and  C_19
REMARK    4  A    between atoms: C_13  and  C_14
REMARK    5  A    between atoms: C_19  and  O_21
REMARK    6  A    between atoms: O_21  and  C_22
REMARK    7  A    between atoms: C_22  and  C_23
REMARK    8  A    between atoms: N_25  and  C_26
REMARK    9  A    between atoms: C_29  and  O_32
REMARK   10  A    between atoms: O_32  and  C_33
REMARK                            x       y       z     vdW  Elec       q    Type
REMARK                         _______ _______ _______ _____ _____    ______ ____
ROOT
ATOM      1  C   UNL     1       5.588  -6.924  -0.069  0.00  0.00    +0.157 C 
ATOM      2  C   UNL     1       6.063  -8.198  -0.138  0.00  0.00    +0.081 C 
ENDROOT
BRANCH   1   7
ATOM      3  C   UNL     1       6.493  -5.569   1.800  0.00  0.00    +0.187 A 
ATOM      4  N   UNL     1       7.347  -4.568   1.865  0.00  0.00    -0.108 NA
ATOM      5  N   UNL     1       7.767  -4.258   0.692  0.00  0.00    -0.022 NA
ATOM      6  N   UNL     1       7.231  -5.021  -0.198  0.00  0.00    -0.038 NA
ATOM      7  N   UNL     1       6.382  -5.910   0.484  0.00  0.00    -0.186 N 
BRANCH   3  11
ATOM      8  C   UNL     1       4.475  -7.389   5.066  0.00  0.00    +0.000 A 
ATOM      9  C   UNL     1       5.651  -6.694   5.284  0.00  0.00    +0.001 A 
ATOM     10  C   UNL     1       6.311  -6.100   4.228  0.00  0.00    +0.011 A 
ATOM     11  C   UNL     1       5.790  -6.203   2.937  0.00  0.00    +0.021 A 
ATOM     12  C   UNL     1       4.601  -6.901   2.725  0.00  0.00    +0.011 A 
ATOM     13  C   UNL     1       3.953  -7.494   3.789  0.00  0.00    +0.001 A 
ENDBRANCH   3  11
ENDBRANCH   1   7
BRANCH   2  14
ATOM     14  C   UNL     1       7.410  -8.471   0.194  0.00  0.00    +0.130 A 
ATOM     15  C   UNL     1       8.029  -9.704   0.139  0.00  0.00    +0.049 A 
ATOM     16  C   UNL     1       9.354  -9.504   0.554  0.00  0.00    +0.042 A 
ATOM     17  C   UNL     1       9.491  -8.190   0.839  0.00  0.00    +0.195 A 
ATOM     18  O   UNL     1       8.323  -7.571   0.617  0.00  0.00    -0.463 OA
ENDBRANCH   2  14
BRANCH   1  19
ATOM     19  C   UNL     1       4.251  -6.613  -0.572  0.00  0.00    +0.358 C 
ATOM     20  O   UNL     1       3.525  -7.507  -0.963  0.00  0.00    -0.243 OA
BRANCH  19  21
ATOM     21  O   UNL     1       3.822  -5.333  -0.601  0.00  0.00    -0.451 OA
BRANCH  21  22
ATOM     22  C   UNL     1       2.469  -5.112  -1.004  0.00  0.00    +0.328 C 
BRANCH  22  23
ATOM     23  C   UNL     1       2.142  -3.646  -0.883  0.00  0.00    +0.255 C 
ATOM     24  O   UNL     1       3.010  -2.854  -0.581  0.00  0.00    -0.272 OA
ATOM     25  N   UNL     1       0.886  -3.215  -1.112  0.00  0.00    -0.283 N 
ATOM     26  H   UNL     1       0.189  -3.849  -1.343  0.00  0.00    +0.155 HD
BRANCH  25  27
ATOM     27  C   UNL     1       0.586  -1.849  -1.017  0.00  0.00    +0.034 A 
ATOM     28  C   UNL     1      -0.355  -1.284  -1.867  0.00  0.00    +0.027 A 
ATOM     29  C   UNL     1      -0.651   0.061  -1.773  0.00  0.00    +0.047 A 
ATOM     30  C   UNL     1      -0.008   0.848  -0.828  0.00  0.00    +0.127 A 
ATOM     31  C   UNL     1       0.932   0.284   0.022  0.00  0.00    +0.047 A 
ATOM     32  C   UNL     1       1.229  -1.061  -0.072  0.00  0.00    +0.027 A 
BRANCH  30  33
ATOM     33  O   UNL     1      -0.299   2.173  -0.736  0.00  0.00    -0.434 OA
BRANCH  33  34
ATOM     34  C   UNL     1       0.401   2.923   0.259  0.00  0.00    +0.541 C 
ATOM     35  F   UNL     1       0.128   2.390   1.523  0.00  0.00    -0.166 F 
ATOM     36  F   UNL     1       1.776   2.857   0.012  0.00  0.00    -0.166 F 
ENDBRANCH  33  34
ENDBRANCH  30  33
ENDBRANCH  25  27
ENDBRANCH  22  23
ENDBRANCH  21  22
ENDBRANCH  19  21
ENDBRANCH   1  19
TORSDOF 10
