REMARK  Name = ZINC25577244
REMARK  11 active torsions:
REMARK  status: ('A' for Active; 'I' for Inactive)
REMARK    1  A    between atoms: C_1  and  C_2
REMARK    2  A    between atoms: C_5  and  N_9
REMARK    3  A    between atoms: C_7  and  C_8
REMARK    4  A    between atoms: C_10  and  S_14
REMARK    5  A    between atoms: S_14  and  C_15
REMARK    6  A    between atoms: C_15  and  C_16
REMARK    7  A    between atoms: C_17  and  C_33
REMARK    8  A    between atoms: C_18  and  C_27
REMARK    9  A    between atoms: N_23  and  C_24
REMARK   10  A    between atoms: C_33  and  O_35
REMARK   11  A    between atoms: O_35  and  C_36
REMARK                            x       y       z     vdW  Elec       q    Type
REMARK                         _______ _______ _______ _____ _____    ______ ____
ROOT
ATOM      1  C   UNL     1      -2.859  -7.182   1.753  0.00  0.00    +0.037 C 
ATOM      2  C   UNL     1      -2.198  -8.276   1.317  0.00  0.00    +0.079 C 
ATOM      3  C   UNL     1      -3.014  -9.391   0.694  0.00  0.00    +0.144 C 
ATOM      4  N   UNL     1      -4.470  -9.188   0.614  0.00  0.00    -0.288 N 
ATOM      5  C   UNL     1      -4.985  -8.038   1.094  0.00  0.00    +0.307 C 
ATOM      6  O   UNL     1      -6.186  -7.861   1.033  0.00  0.00    -0.252 OA
ATOM      7  N   UNL     1      -4.216  -7.087   1.640  0.00  0.00    -0.255 N 
ATOM      8  H   UNL     1      -5.110  -9.964   0.171  0.00  0.00    +0.151 HD
ENDROOT
BRANCH   3   9
ATOM      9  C   UNL     1      -2.763 -10.648   1.485  0.00  0.00    -0.023 A 
ATOM     10  C   UNL     1      -3.419 -10.853   2.685  0.00  0.00    +0.006 A 
ATOM     11  C   UNL     1      -3.192 -12.009   3.408  0.00  0.00    +0.000 A 
ATOM     12  C   UNL     1      -2.302 -12.956   2.937  0.00  0.00    +0.000 A 
ATOM     13  C   UNL     1      -1.642 -12.749   1.740  0.00  0.00    +0.000 A 
ATOM     14  C   UNL     1      -1.872 -11.595   1.014  0.00  0.00    +0.006 A 
ENDBRANCH   3   9
BRANCH   7  15
ATOM     15  C   UNL     1      -4.869  -5.874   2.140  0.00  0.00    +0.083 C 
ATOM     16  C   UNL     1      -5.926  -5.221   1.247  0.00  0.00    +0.025 C 
ATOM     17  C   UNL     1      -4.557  -4.558   1.424  0.00  0.00    +0.025 C 
ENDBRANCH   7  15
BRANCH   2  18
ATOM     18  C   UNL     1      -0.793  -8.378   1.439  0.00  0.00    +0.339 C 
ATOM     19  O   UNL     1      -0.174  -7.542   2.070  0.00  0.00    -0.245 OA
BRANCH  18  20
ATOM     20  O   UNL     1      -0.138  -9.403   0.855  0.00  0.00    -0.465 OA
ATOM     21  C   UNL     1       1.281  -9.444   1.018  0.00  0.00    +0.280 C 
ENDBRANCH  18  20
ENDBRANCH   2  18
BRANCH   1  22
ATOM     22  C   UNL     1      -2.086  -6.050   2.380  0.00  0.00    +0.129 C 
BRANCH  22  23
ATOM     23  S   UNL     1      -2.201  -6.167   4.183  0.00  0.00    -0.078 S 
BRANCH  23  25
ATOM     24  N   UNL     1      -0.970  -4.345   5.910  0.00  0.00    -0.187 N 
ATOM     25  C   UNL     1      -1.238  -4.765   4.642  0.00  0.00    +0.214 A 
ATOM     26  N   UNL     1      -0.639  -3.924   3.825  0.00  0.00    -0.101 NA
ATOM     27  N   UNL     1      -0.021  -3.015   4.489  0.00  0.00    -0.022 NA
ATOM     28  N   UNL     1      -0.177  -3.195   5.755  0.00  0.00    -0.038 NA
BRANCH  24  33
ATOM     29  C   UNL     1      -2.701  -6.722  10.765  0.00  0.00    +0.044 C 
ATOM     30  C   UNL     1      -2.242  -6.088   9.477  0.00  0.00    -0.047 A 
ATOM     31  C   UNL     1      -3.071  -6.099   8.369  0.00  0.00    +0.006 A 
ATOM     32  C   UNL     1      -2.651  -5.524   7.186  0.00  0.00    +0.028 A 
ATOM     33  C   UNL     1      -1.399  -4.930   7.110  0.00  0.00    +0.070 A 
ATOM     34  C   UNL     1      -0.571  -4.916   8.225  0.00  0.00    +0.031 A 
ATOM     35  C   UNL     1      -0.997  -5.493   9.406  0.00  0.00    -0.046 A 
ATOM     36  C   UNL     1      -0.099  -5.479  10.616  0.00  0.00    +0.044 C 
ENDBRANCH  24  33
ENDBRANCH  23  25
ENDBRANCH  22  23
ENDBRANCH   1  22
TORSDOF 8
