REMARK  Name = ZINC21353079
REMARK  3 active torsions:
REMARK  status: ('A' for Active; 'I' for Inactive)
REMARK    1  A    between atoms: C_6  and  C_7
REMARK    2  A    between atoms: C_13  and  C_15
REMARK    3  A    between atoms: C_21  and  C_23
REMARK                            x       y       z     vdW  Elec       q    Type
REMARK                         _______ _______ _______ _____ _____    ______ ____
ROOT
ATOM      1  C   UNL     1       3.529   1.415   5.380  0.00  0.00    +0.080 A 
ATOM      2  C   UNL     1       3.386   2.758   5.589  0.00  0.00    +0.076 A 
ATOM      3  S   UNL     1       2.075   3.136   4.433  0.00  0.00    -0.060 S 
ATOM      4  C   UNL     1       1.849   1.478   3.803  0.00  0.00    +0.165 A 
ATOM      5  N   UNL     1       2.756   0.810   4.491  0.00  0.00    -0.225 NA
ATOM      6  N   UNL     1       0.959   1.017   2.841  0.00  0.00    -0.263 N 
ATOM      7  C   UNL     1       0.102   1.874   2.250  0.00  0.00    +0.239 C 
ATOM      8  O   UNL     1       0.109   3.047   2.557  0.00  0.00    -0.273 OA
ATOM      9  H   UNL     1       0.953  -0.047   2.562  0.00  0.00    +0.157 HD
ENDROOT
BRANCH   1  15
ATOM     10  C   UNL     1       5.357   1.285   7.069  0.00  0.00    +0.014 A 
ATOM     11  C   UNL     1       6.296   0.564   7.779  0.00  0.00    +0.050 A 
ATOM     12  C   UNL     1       6.439  -0.799   7.563  0.00  0.00    +0.162 A 
ATOM     13  C   UNL     1       5.630  -1.446   6.634  0.00  0.00    +0.163 A 
ATOM     14  C   UNL     1       4.684  -0.727   5.923  0.00  0.00    +0.059 A 
ATOM     15  C   UNL     1       4.542   0.642   6.140  0.00  0.00    +0.005 A 
ATOM     16  O   UNL     1       5.751  -2.784   6.416  0.00  0.00    -0.485 OA
ATOM     17  C   UNL     1       6.957  -3.404   6.875  0.00  0.00    +0.270 C 
ATOM     18  C   UNL     1       7.237  -2.914   8.302  0.00  0.00    +0.270 C 
ATOM     19  O   UNL     1       7.378  -1.490   8.267  0.00  0.00    -0.485 OA
ENDBRANCH   1  15
BRANCH   7  20
ATOM     20  C   UNL     1      -0.863   1.373   1.206  0.00  0.00    +0.162 C 
ATOM     21  C   UNL     1      -0.229   1.466  -0.204  0.00  0.00    +0.033 C 
ATOM     22  C   UNL     1      -1.487   1.539  -1.109  0.00  0.00    +0.021 C 
ATOM     23  C   UNL     1      -2.477   2.363  -0.259  0.00  0.00    +0.108 C 
ATOM     24  N   UNL     1      -2.050   2.246   1.144  0.00  0.00    -0.289 N 
ATOM     25  C   UNL     1      -2.644   2.840   2.197  0.00  0.00    +0.222 C 
ATOM     26  O   UNL     1      -2.275   2.587   3.324  0.00  0.00    -0.275 OA
BRANCH  25  27
ATOM     27  C   UNL     1      -3.769   3.819   1.976  0.00  0.00    +0.048 C 
ATOM     28  C   UNL     1      -3.259   5.002   1.150  0.00  0.00    +0.019 C 
ATOM     29  C   UNL     1      -4.400   5.996   0.925  0.00  0.00    -0.009 C 
ATOM     30  C   UNL     1      -4.912   6.499   2.276  0.00  0.00    +0.007 C 
ATOM     31  C   UNL     1      -5.422   5.316   3.101  0.00  0.00    -0.009 C 
ATOM     32  C   UNL     1      -4.281   4.322   3.327  0.00  0.00    +0.019 C 
ATOM     33  C   UNL     1      -6.561   4.623   2.350  0.00  0.00    +0.007 C 
ATOM     34  C   UNL     1      -6.049   4.120   0.999  0.00  0.00    -0.009 C 
ATOM     35  C   UNL     1      -5.539   5.303   0.174  0.00  0.00    +0.007 C 
ATOM     36  C   UNL     1      -4.907   3.126   1.224  0.00  0.00    +0.019 C 
ENDBRANCH  25  27
ENDBRANCH   7  20
TORSDOF 3
