REMARK  Name = ZINC15016379
REMARK  6 active torsions:
REMARK  status: ('A' for Active; 'I' for Inactive)
REMARK    1  A    between atoms: C_1  and  C_2
REMARK    2  A    between atoms: N_7  and  C_8
REMARK    3  A    between atoms: C_8  and  C_10
REMARK    4  A    between atoms: C_8  and  C_20
REMARK    5  A    between atoms: C_14  and  N_16
REMARK    6  A    between atoms: C_29  and  O_30
REMARK                            x       y       z     vdW  Elec       q    Type
REMARK                         _______ _______ _______ _____ _____    ______ ____
ROOT
ATOM      1  C   UNL     1       1.443   2.289   4.772  0.00  0.00    +0.136 C 
ENDROOT
BRANCH   1   8
ATOM      2  C   UNL     1       0.352   0.765   0.002  0.00  0.00    +0.044 C 
ATOM      3  C   UNL     1      -0.461   1.112   1.223  0.00  0.00    -0.046 A 
ATOM      4  C   UNL     1      -1.848   1.054   1.193  0.00  0.00    +0.021 A 
ATOM      5  C   UNL     1      -2.563   1.374   2.329  0.00  0.00    +0.084 A 
ATOM      6  C   UNL     1      -0.626   1.814   3.503  0.00  0.00    +0.097 A 
ATOM      7  C   UNL     1       0.158   1.501   2.397  0.00  0.00    +0.045 A 
ATOM      8  N   UNL     1      -0.017   2.206   4.690  0.00  0.00    -0.320 N 
ATOM      9  H   UNL     1      -0.559   2.426   5.464  0.00  0.00    +0.148 HD
ATOM     10  N   UNL     1      -1.989   1.760   3.500  0.00  0.00    -0.350 N 
ATOM     11  H   UNL     1      -2.546   1.996   4.329  0.00  0.00    +0.166 HD
ENDBRANCH   1   8
BRANCH   1  12
ATOM     12  C   UNL     1       1.875   2.140   6.208  0.00  0.00    +0.021 A 
ATOM     13  C   UNL     1       1.008   2.523   7.228  0.00  0.00    +0.010 A 
ATOM     14  C   UNL     1       1.366   2.395   8.536  0.00  0.00    +0.010 A 
ATOM     15  C   UNL     1       2.631   1.881   8.864  0.00  0.00    +0.004 A 
ATOM     16  C   UNL     1       3.039   1.740  10.204  0.00  0.00    +0.011 A 
ATOM     17  C   UNL     1       4.283   1.233  10.449  0.00  0.00    +0.020 A 
ATOM     18  C   UNL     1       5.109   0.872   9.386  0.00  0.00    +0.111 A 
ATOM     19  N   UNL     1       4.725   1.005   8.140  0.00  0.00    -0.251 NA
ATOM     20  C   UNL     1       3.521   1.495   7.832  0.00  0.00    +0.113 A 
ATOM     21  C   UNL     1       3.113   1.636   6.489  0.00  0.00    +0.148 A 
BRANCH  21  22
ATOM     22  O   UNL     1       3.947   1.272   5.480  0.00  0.00    -0.504 OA
ATOM     23  H   UNL     1       4.525   1.984   5.172  0.00  0.00    +0.292 HD
ENDBRANCH  21  22
ENDBRANCH   1  12
BRANCH   1  24
ATOM     24  C   UNL     1       1.901   3.625   4.246  0.00  0.00    -0.021 A 
ATOM     25  C   UNL     1       1.183   4.768   4.545  0.00  0.00    +0.007 A 
ATOM     26  C   UNL     1       1.602   5.994   4.063  0.00  0.00    +0.022 A 
ATOM     27  C   UNL     1       2.741   6.076   3.281  0.00  0.00    +0.071 A 
ATOM     28  C   UNL     1       3.459   4.932   2.982  0.00  0.00    +0.145 A 
ATOM     29  C   UNL     1       3.042   3.708   3.470  0.00  0.00    +0.040 A 
ATOM     30 CL   UNL     1       3.268   7.615   2.675  0.00  0.00    -0.081 Cl
BRANCH  28  31
ATOM     31  N   UNL     1       4.677   5.020   2.146  0.00  0.00    +0.058 N 
ATOM     32  O   UNL     1       5.309   4.013   1.883  0.00  0.00    -0.126 OA
ATOM     33  O   UNL     1       5.048   6.100   1.721  0.00  0.00    -0.126 OA
ENDBRANCH  28  31
ENDBRANCH   1  24
TORSDOF 5
