REMARK  Name = ZINC09487927
REMARK  4 active torsions:
REMARK  status: ('A' for Active; 'I' for Inactive)
REMARK    1  A    between atoms: C_1  and  O_2
REMARK    2  A    between atoms: O_2  and  C_3
REMARK    3  A    between atoms: C_8  and  C_9
REMARK    4  A    between atoms: C_26  and  C_28
REMARK                            x       y       z     vdW  Elec       q    Type
REMARK                         _______ _______ _______ _____ _____    ______ ____
ROOT
ATOM      1  C   UNL     1       0.320  -2.570  -0.103  0.00  0.00    +0.238 C 
ATOM      2  C   UNL     1       0.709  -2.784   1.330  0.00  0.00    +0.028 C 
ATOM      3  C   UNL     1       0.270  -3.865   2.008  0.00  0.00    +0.083 C 
ATOM      4  C   UNL     1      -0.596  -4.825   1.277  0.00  0.00    +0.042 A 
ATOM      5  C   UNL     1      -1.354  -5.774   1.949  0.00  0.00    +0.013 A 
ATOM      6  C   UNL     1      -2.147  -6.647   1.229  0.00  0.00    +0.001 A 
ATOM      7  C   UNL     1      -2.186  -6.576  -0.153  0.00  0.00    +0.004 A 
ATOM      8  C   UNL     1      -1.432  -5.634  -0.829  0.00  0.00    +0.046 A 
ATOM      9  C   UNL     1      -0.632  -4.754  -0.121  0.00  0.00    +0.131 A 
ATOM     10  O   UNL     1       0.121  -3.826  -0.755  0.00  0.00    -0.479 OA
ATOM     11  N   UNL     1       0.605  -4.072   3.305  0.00  0.00    -0.213 NA
ATOM     12  C   UNL     1       1.372  -3.272   4.009  0.00  0.00    +0.237 C 
ATOM     13  N   UNL     1       1.800  -3.329   5.289  0.00  0.00    -0.205 NA
ATOM     14  C   UNL     1       2.559  -2.303   5.560  0.00  0.00    +0.203 C 
ATOM     15  N   UNL     1       2.665  -1.513   4.456  0.00  0.00    -0.251 N 
ATOM     16  N   UNL     1       1.906  -2.126   3.457  0.00  0.00    -0.208 N 
ATOM     17  C   UNL     1       1.601  -1.802   2.058  0.00  0.00    +0.166 C 
ATOM     18  H   UNL     1       3.169  -0.688   4.379  0.00  0.00    +0.171 HD
ENDROOT
BRANCH   1  24
ATOM     19  C   UNL     1      -1.181  -0.894  -1.209  0.00  0.00    +0.127 A 
ATOM     20  C   UNL     1      -2.361  -0.164  -1.261  0.00  0.00    +0.047 A 
ATOM     21  C   UNL     1      -3.306  -0.309  -0.264  0.00  0.00    +0.019 A 
ATOM     22  C   UNL     1      -3.078  -1.181   0.785  0.00  0.00    +0.018 A 
ATOM     23  C   UNL     1      -1.903  -1.909   0.840  0.00  0.00    +0.026 A 
ATOM     24  C   UNL     1      -0.957  -1.772  -0.159  0.00  0.00    +0.040 A 
ATOM     25 BR   UNL     1      -4.373  -1.378   2.148  0.00  0.00    -0.050 Br
BRANCH  19  27
ATOM     26  C   UNL     1      -0.497   0.248  -3.179  0.00  0.00    +0.277 C 
ATOM     27  O   UNL     1      -0.250  -0.752  -2.188  0.00  0.00    -0.495 OA
ENDBRANCH  19  27
ENDBRANCH   1  24
BRANCH  17  28
ATOM     28  C   UNL     1       0.939  -0.449   2.021  0.00  0.00    +0.016 A 
ATOM     29  C   UNL     1       1.183   0.598   1.196  0.00  0.00    +0.013 A 
ATOM     30  C   UNL     1       0.443   1.756   1.346  0.00  0.00    +0.008 A 
ATOM     31  C   UNL     1      -0.504   1.810   2.314  0.00  0.00    +0.045 A 
ATOM     32  S   UNL     1      -0.374   0.188   3.048  0.00  0.00    -0.099 S 
ENDBRANCH  17  28
TORSDOF 3
