REMARK  Name = ZINC39711208
REMARK  10 active torsions:
REMARK  status: ('A' for Active; 'I' for Inactive)
REMARK    1  A    between atoms: C_1  and  C_2
REMARK    2  A    between atoms: C_6  and  C_15
REMARK    3  A    between atoms: C_13  and  C_14
REMARK    4  A    between atoms: C_15  and  C_17
REMARK    5  A    between atoms: C_15  and  N_26
REMARK    6  A    between atoms: N_21  and  C_22
REMARK    7  A    between atoms: C_22  and  C_23
REMARK    8  A    between atoms: C_23  and  O_24
REMARK    9  A    between atoms: O_24  and  C_25
REMARK   10  A    between atoms: N_29  and  C_32
REMARK                            x       y       z     vdW  Elec       q    Type
REMARK                         _______ _______ _______ _____ _____    ______ ____
ROOT
ATOM      1  C   UNL     1       1.378  -4.965  -2.929  0.00  0.00    +0.142 C 
ENDROOT
BRANCH   1   7
ATOM      2  C   UNL     1      -5.467  -5.458  -4.909  0.00  0.00    +0.044 C 
ATOM      3  C   UNL     1      -4.322  -4.811  -4.172  0.00  0.00    -0.047 A 
ATOM      4  C   UNL     1      -3.224  -5.551  -3.870  0.00  0.00    +0.013 A 
ATOM      5  C   UNL     1      -2.118  -4.912  -3.156  0.00  0.00    -0.007 A 
ATOM      6  C   UNL     1      -0.995  -5.615  -2.832  0.00  0.00    -0.003 C 
ATOM      7  C   UNL     1       0.100  -4.873  -2.092  0.00  0.00    +0.123 C 
ATOM      8  C   UNL     1      -0.141  -3.415  -1.773  0.00  0.00    +0.226 C 
ATOM      9  O   UNL     1       0.705  -2.771  -1.181  0.00  0.00    -0.275 OA
ATOM     10  N   UNL     1      -1.274  -2.842  -2.141  0.00  0.00    -0.284 N 
ATOM     11  C   UNL     1      -2.240  -3.490  -2.792  0.00  0.00    +0.041 A 
ATOM     12  C   UNL     1      -3.421  -2.815  -3.152  0.00  0.00    +0.027 A 
ATOM     13  C   UNL     1      -4.410  -3.464  -3.821  0.00  0.00    -0.046 A 
ATOM     14  C   UNL     1      -5.655  -2.700  -4.191  0.00  0.00    +0.044 C 
ATOM     15  H   UNL     1      -1.410  -1.905  -1.927  0.00  0.00    +0.155 HD
ENDBRANCH   1   7
BRANCH   1  16
ATOM     16  N   UNL     1       1.675  -6.375  -3.216  0.00  0.00    -0.289 NA
ATOM     17  C   UNL     1       1.917  -7.124  -1.976  0.00  0.00    +0.104 C 
ATOM     18  C   UNL     1       2.043  -8.617  -2.302  0.00  0.00    +0.120 C 
ATOM     19  N   UNL     1       3.071  -8.783  -3.341  0.00  0.00    -0.325 N 
ATOM     20  C   UNL     1       2.971  -7.962  -4.557  0.00  0.00    +0.120 C 
ATOM     21  C   UNL     1       2.808  -6.496  -4.142  0.00  0.00    +0.104 C 
BRANCH  19  22
ATOM     22  C   UNL     1       4.116  -9.698  -3.176  0.00  0.00    +0.065 A 
ATOM     23  C   UNL     1       3.973 -11.005  -3.621  0.00  0.00    +0.026 A 
ATOM     24  C   UNL     1       5.006 -11.906  -3.458  0.00  0.00    +0.002 A 
ATOM     25  C   UNL     1       6.184 -11.509  -2.851  0.00  0.00    +0.003 A 
ATOM     26  C   UNL     1       6.331 -10.208  -2.406  0.00  0.00    +0.040 A 
ATOM     27  C   UNL     1       5.303  -9.299  -2.571  0.00  0.00    +0.144 A 
ATOM     28  F   UNL     1       5.449  -8.027  -2.142  0.00  0.00    -0.204 F 
ENDBRANCH  19  22
ENDBRANCH   1  16
BRANCH   1  29
ATOM     29  C   UNL     1       2.524  -4.355  -2.164  0.00  0.00    +0.170 A 
ATOM     30  N   UNL     1       3.021  -4.780  -1.028  0.00  0.00    -0.112 NA
ATOM     31  N   UNL     1       3.989  -3.996  -0.699  0.00  0.00    -0.023 NA
ATOM     32  N   UNL     1       4.122  -3.082  -1.596  0.00  0.00    -0.044 NA
ATOM     33  N   UNL     1       3.241  -3.273  -2.519  0.00  0.00    -0.225 N 
BRANCH  33  34
ATOM     34  C   UNL     1       3.054  -2.461  -3.724  0.00  0.00    +0.175 C 
BRANCH  34  35
ATOM     35  C   UNL     1       2.050  -1.343  -3.435  0.00  0.00    +0.183 C 
BRANCH  35  36
ATOM     36  O   UNL     1       1.831  -0.581  -4.624  0.00  0.00    -0.381 OA
ATOM     37  C   UNL     1       0.904   0.495  -4.462  0.00  0.00    +0.194 C 
ENDBRANCH  35  36
ENDBRANCH  34  35
ENDBRANCH  33  34
ENDBRANCH   1  29
TORSDOF 7
