REMARK  Name = ZINC64408463
REMARK  9 active torsions:
REMARK  status: ('A' for Active; 'I' for Inactive)
REMARK    1  A    between atoms: C_1  and  O_2
REMARK    2  A    between atoms: O_2  and  C_3
REMARK    3  A    between atoms: C_6  and  C_9
REMARK    4  A    between atoms: C_15  and  C_18
REMARK    5  A    between atoms: C_18  and  C_19
REMARK    6  A    between atoms: C_19  and  C_20
REMARK    7  A    between atoms: N_22  and  C_23
REMARK    8  A    between atoms: C_23  and  C_24
REMARK    9  A    between atoms: C_24  and  C_25
REMARK                            x       y       z     vdW  Elec       q    Type
REMARK                         _______ _______ _______ _____ _____    ______ ____
ROOT
ATOM      1  C   UNL     1       4.901  -6.302  -5.590  0.00  0.00    +0.060 C 
ENDROOT
BRANCH   1   7
ATOM      2  C   UNL     1       2.490  -2.490  -4.359  0.00  0.00    +0.063 C 
ATOM      3  N   UNL     1       3.055  -1.875  -5.352  0.00  0.00    -0.253 NA
ATOM      4  C   UNL     1       3.523  -2.853  -6.328  0.00  0.00    +0.256 C 
ATOM      5  N   UNL     1       3.708  -4.116  -5.546  0.00  0.00    -0.297 N 
ATOM      6  C   UNL     1       2.613  -3.987  -4.562  0.00  0.00    +0.163 C 
ATOM      7  C   UNL     1       4.818  -4.837  -5.934  0.00  0.00    +0.016 C 
ATOM      8  C   UNL     1       5.817  -4.269  -6.606  0.00  0.00    +0.063 C 
ATOM      9  S   UNL     1       5.271  -2.553  -6.806  0.00  0.00    -0.086 S 
BRANCH   2  13
ATOM     10  C   UNL     1       0.605  -0.607  -1.055  0.00  0.00    +0.120 A 
ATOM     11  C   UNL     1       1.172   0.166  -2.061  0.00  0.00    +0.046 A 
ATOM     12  C   UNL     1       1.785  -0.442  -3.135  0.00  0.00    +0.013 A 
ATOM     13  C   UNL     1       1.836  -1.836  -3.211  0.00  0.00    -0.002 A 
ATOM     14  C   UNL     1       1.264  -2.609  -2.197  0.00  0.00    +0.013 A 
ATOM     15  C   UNL     1       0.659  -1.993  -1.123  0.00  0.00    +0.046 A 
BRANCH  10  17
ATOM     16  C   UNL     1      -0.017   1.425   0.010  0.00  0.00    +0.277 C 
ATOM     17  O   UNL     1       0.002  -0.004   0.002  0.00  0.00    -0.495 OA
ENDBRANCH  10  17
ENDBRANCH   2  13
ENDBRANCH   1   7
BRANCH   1  18
ATOM     18  C   UNL     1       5.465  -6.462  -4.176  0.00  0.00    +0.101 C 
BRANCH  18  19
ATOM     19  C   UNL     1       5.548  -7.927  -3.832  0.00  0.00    +0.213 C 
ATOM     20  O   UNL     1       5.192  -8.761  -4.638  0.00  0.00    -0.276 OA
ATOM     21  N   UNL     1       6.019  -8.311  -2.629  0.00  0.00    -0.315 N 
ATOM     22  H   UNL     1       6.304  -7.644  -1.985  0.00  0.00    +0.149 HD
BRANCH  21  23
ATOM     23  C   UNL     1       6.100  -9.735  -2.294  0.00  0.00    +0.108 C 
BRANCH  23  24
ATOM     24  C   UNL     1       6.664  -9.895  -0.881  0.00  0.00    +0.052 C 
BRANCH  24  25
ATOM     25  C   UNL     1       6.747 -11.360  -0.536  0.00  0.00    -0.040 C 
ATOM     26  C   UNL     1       7.826 -12.165  -0.663  0.00  0.00    -0.001 A 
ATOM     27  C   UNL     1       9.193 -11.927  -1.142  0.00  0.00    +0.010 A 
ATOM     28  C   UNL     1      10.073 -12.955  -1.153  0.00  0.00    +0.001 A 
ATOM     29  C   UNL     1       9.712 -14.238  -0.718  0.00  0.00    +0.002 A 
ATOM     30  C   UNL     1       8.476 -14.533  -0.264  0.00  0.00    +0.026 A 
ATOM     31  C   UNL     1       7.471 -13.529  -0.210  0.00  0.00    +0.043 A 
ATOM     32  N   UNL     1       6.221 -13.565   0.182  0.00  0.00    -0.380 N 
ATOM     33  C   UNL     1       5.642 -12.226   0.027  0.00  0.00    +0.144 C 
ATOM     34  H   UNL     1       5.756 -14.346   0.522  0.00  0.00    +0.160 HD
ENDBRANCH  24  25
ENDBRANCH  23  24
ENDBRANCH  21  23
ENDBRANCH  18  19
ENDBRANCH   1  18
TORSDOF 8
