REMARK  Name = ZINC40629966
REMARK  7 active torsions:
REMARK  status: ('A' for Active; 'I' for Inactive)
REMARK    1  A    between atoms: C_1  and  C_2
REMARK    2  A    between atoms: C_2  and  C_28
REMARK    3  A    between atoms: C_4  and  N_10
REMARK    4  A    between atoms: C_6  and  C_8
REMARK    5  A    between atoms: C_6  and  C_9
REMARK    6  A    between atoms: C_12  and  N_25
REMARK    7  A    between atoms: C_13  and  N_17
REMARK                            x       y       z     vdW  Elec       q    Type
REMARK                         _______ _______ _______ _____ _____    ______ ____
ROOT
ATOM      1  N   UNL     1       1.648  -2.336  -2.503  0.00  0.00    -0.324 N 
ATOM      2  C   UNL     1       1.557  -3.642  -2.961  0.00  0.00    +0.155 A 
ATOM      3  C   UNL     1       2.190  -4.022  -4.140  0.00  0.00    +0.205 A 
ATOM      4  C   UNL     1       2.067  -5.344  -4.557  0.00  0.00    +0.160 A 
ATOM      5  N   UNL     1       1.353  -6.191  -3.817  0.00  0.00    -0.218 NA
ATOM      6  C   UNL     1       0.769  -5.792  -2.706  0.00  0.00    +0.225 A 
ATOM      7  N   UNL     1       0.866  -4.551  -2.275  0.00  0.00    -0.218 NA
ATOM      8  H   UNL     1       2.153  -1.680  -3.008  0.00  0.00    +0.148 HD
ENDROOT
BRANCH   1  12
ATOM      9  C   UNL     1       0.011   1.538   0.030  0.00  0.00    -0.010 C 
ATOM     10  C   UNL     1       0.029  -0.008   0.018  0.00  0.00    -0.072 C 
ATOM     11  C   UNL     1       0.693  -0.447  -1.283  0.00  0.00    +0.009 C 
ATOM     12  C   UNL     1       0.981  -1.948  -1.254  0.00  0.00    +0.069 C 
ATOM     13  C   UNL     1       1.913  -2.232  -0.075  0.00  0.00    +0.009 C 
ATOM     14  C   UNL     1       1.257  -1.807   1.234  0.00  0.00    -0.072 C 
ATOM     15  N   UNL     1       0.739  -0.451   1.205  0.00  0.00    +0.386 N 
ATOM     16  C   UNL     1       2.340  -1.873   2.336  0.00  0.00    -0.010 C 
ATOM     17  C   UNL     1       0.166  -2.812   1.617  0.00  0.00    -0.010 C 
ATOM     18  C   UNL     1      -1.431  -0.473   0.037  0.00  0.00    -0.010 C 
ATOM     19  H   UNL     1       1.519   0.193   1.370  0.00  0.00    -0.084 HD
ATOM     20  H   UNL     1       0.122  -0.325   2.014  0.00  0.00    -0.084 HD
ENDBRANCH   1  12
BRANCH   4  21
ATOM     21  N   UNL     1       2.679  -5.773  -5.726  0.00  0.00    -0.282 N 
ATOM     22  C   UNL     1       2.642  -7.120  -6.077  0.00  0.00    +0.124 A 
ATOM     23  C   UNL     1       3.348  -7.561  -7.192  0.00  0.00    +0.045 A 
ATOM     24  C   UNL     1       3.303  -8.902  -7.529  0.00  0.00    +0.020 A 
ATOM     25  C   UNL     1       2.550  -9.760  -6.738  0.00  0.00    +0.036 A 
ATOM     26  C   UNL     1       1.873  -9.253  -5.645  0.00  0.00    +0.128 A 
ATOM     27  N   UNL     1       1.939  -7.970  -5.345  0.00  0.00    -0.239 NA
ATOM     28 BR   UNL     1       2.451 -11.602  -7.152  0.00  0.00    -0.049 Br
ATOM     29  H   UNL     1       3.133  -5.135  -6.299  0.00  0.00    +0.155 HD
ENDBRANCH   4  21
BRANCH   3  30
ATOM     30  N   UNL     1       2.973  -3.046  -4.931  0.00  0.00    +0.063 N 
ATOM     31  O   UNL     1       4.152  -2.898  -4.712  0.00  0.00    -0.126 OA
ATOM     32  O   UNL     1       2.433  -2.397  -5.796  0.00  0.00    -0.126 OA
ENDBRANCH   3  30
TORSDOF 3
