REMARK  Name = ZINC13063806
REMARK  10 active torsions:
REMARK  status: ('A' for Active; 'I' for Inactive)
REMARK    1  A    between atoms: C_1  and  C_2
REMARK    2  A    between atoms: C_2  and  C_3
REMARK    3  A    between atoms: C_3  and  C_5
REMARK    4  A    between atoms: C_3  and  N_66
REMARK    5  A    between atoms: N_9  and  C_10
REMARK    6  A    between atoms: C_15  and  C_16
REMARK    7  A    between atoms: C_15  and  N_66
REMARK    8  A    between atoms: C_23  and  C_24
REMARK    9  A    between atoms: C_23  and  N_66
REMARK   10  A    between atoms: C_29  and  C_36
REMARK                            x       y       z     vdW  Elec       q    Type
REMARK                         _______ _______ _______ _____ _____    ______ ____
ROOT
ATOM      1  N   UNL     1      -0.884   1.827   1.494  0.00  0.00    +0.392 N 
ATOM      2  H   UNL     1      -1.139   2.811   1.637  0.00  0.00    -0.080 HD
ENDROOT
BRANCH   1   3
ATOM      3  C   UNL     1      -0.203   1.326   2.707  0.00  0.00    +0.003 C 
BRANCH   3   4
ATOM      4  C   UNL     1       0.612   2.448   3.298  0.00  0.00    +0.138 A 
ATOM      5  N   UNL     1       1.341   3.316   2.640  0.00  0.00    -0.115 NA
ATOM      6  N   UNL     1       1.881   4.113   3.497  0.00  0.00    -0.023 NA
ATOM      7  N   UNL     1       1.514   3.776   4.684  0.00  0.00    -0.044 NA
ATOM      8  N   UNL     1       0.727   2.756   4.603  0.00  0.00    -0.228 N 
BRANCH   8   9
ATOM      9  C   UNL     1       0.083   2.063   5.721  0.00  0.00    +0.111 C 
ATOM     10  C   UNL     1      -0.785   3.052   6.526  0.00  0.00    +0.027 C 
ATOM     11  C   UNL     1      -0.602   2.604   7.999  0.00  0.00    +0.002 C 
ATOM     12  C   UNL     1       0.892   2.201   8.051  0.00  0.00    +0.002 C 
ATOM     13  C   UNL     1       1.149   1.522   6.690  0.00  0.00    +0.027 C 
ENDBRANCH   8   9
ENDBRANCH   3   4
BRANCH   3  15
ATOM     14  C   UNL     1      -0.122  -1.031   1.883  0.00  0.00    +0.002 C 
ATOM     15  C   UNL     1       0.719   0.156   2.357  0.00  0.00    -0.011 C 
ENDBRANCH   3  15
ENDBRANCH   1   3
BRANCH   1  16
ATOM     16  C   UNL     1      -2.114   1.044   1.247  0.00  0.00    -0.042 C 
BRANCH  16  17
ATOM     17  C   UNL     1      -3.137   1.405   2.292  0.00  0.00    -0.064 A 
ATOM     18  C   UNL     1      -3.281   0.617   3.419  0.00  0.00    +0.004 A 
ATOM     19  C   UNL     1      -4.216   0.950   4.381  0.00  0.00    +0.038 A 
ATOM     20  C   UNL     1      -5.016   2.067   4.210  0.00  0.00    +0.123 A 
ATOM     21  C   UNL     1      -4.875   2.852   3.079  0.00  0.00    +0.038 A 
ATOM     22  C   UNL     1      -3.936   2.520   2.121  0.00  0.00    +0.004 A 
ATOM     23  F   UNL     1      -5.934   2.390   5.148  0.00  0.00    -0.205 F 
ENDBRANCH  16  17
ENDBRANCH   1  16
BRANCH   1  24
ATOM     24  C   UNL     1       0.020   1.729   0.330  0.00  0.00    -0.036 C 
BRANCH  24  25
ATOM     25  C   UNL     1      -0.566   2.527  -0.807  0.00  0.00    +0.001 A 
ATOM     26  C   UNL     1      -0.183   3.814  -0.996  0.00  0.00    +0.017 A 
ATOM     27  C   UNL     1      -0.770   4.561  -2.109  0.00  0.00    -0.001 A 
ATOM     28  C   UNL     1      -0.415   5.892  -2.355  0.00  0.00    +0.010 A 
ATOM     29  C   UNL     1      -0.981   6.562  -3.402  0.00  0.00    +0.004 A 
ATOM     30  C   UNL     1      -1.906   5.934  -4.225  0.00  0.00    -0.048 A 
ATOM     31  C   UNL     1      -2.271   4.624  -4.002  0.00  0.00    +0.029 A 
ATOM     32  C   UNL     1      -1.708   3.922  -2.942  0.00  0.00    +0.049 A 
ATOM     33  N   UNL     1      -2.055   2.610  -2.696  0.00  0.00    -0.322 N 
ATOM     34  H   UNL     1      -2.701   2.171  -3.270  0.00  0.00    +0.169 HD
ATOM     35  C   UNL     1      -1.506   1.930  -1.674  0.00  0.00    +0.251 A 
ATOM     36  O   UNL     1      -1.832   0.770  -1.489  0.00  0.00    -0.268 OA
ATOM     37  C   UNL     1      -2.518   6.693  -5.375  0.00  0.00    +0.044 C 
ENDBRANCH  24  25
ENDBRANCH   1  24
TORSDOF 8
