REMARK  Name = ZINC36346174
REMARK  15 active torsions:
REMARK  status: ('A' for Active; 'I' for Inactive)
REMARK    1  A    between atoms: C_1  and  C_2
REMARK    2  A    between atoms: C_5  and  O_8
REMARK    3  A    between atoms: O_8  and  C_9
REMARK    4  A    between atoms: C_10  and  C_21
REMARK    5  A    between atoms: C_11  and  C_20
REMARK    6  A    between atoms: N_13  and  C_14
REMARK    7  A    between atoms: C_21  and  N_22
REMARK    8  A    between atoms: N_22  and  C_23
REMARK    9  A    between atoms: N_22  and  C_29
REMARK   10  A    between atoms: C_23  and  C_24
REMARK   11  A    between atoms: C_29  and  C_30
REMARK   12  A    between atoms: C_30  and  C_32
REMARK   13  A    between atoms: C_30  and  O_36
REMARK   14  A    between atoms: C_32  and  C_33
REMARK   15  A    between atoms: C_33  and  C_34
REMARK                            x       y       z     vdW  Elec       q    Type
REMARK                         _______ _______ _______ _____ _____    ______ ____
ROOT
ATOM      1  C   UNL     1       0.586  -4.599   1.320  0.00  0.00    +0.225 A 
ATOM      2  C   UNL     1       0.300  -5.919   1.484  0.00  0.00    +0.021 A 
ATOM      3  C   UNL     1      -0.004  -6.128   2.833  0.00  0.00    +0.065 A 
ATOM      4  N   UNL     1       0.093  -4.984   3.462  0.00  0.00    -0.168 NA
ATOM      5  N   UNL     1       0.469  -4.002   2.537  0.00  0.00    -0.200 N 
ATOM      6  C   UNL     1      -0.380  -7.447   3.456  0.00  0.00    +0.068 C 
ENDROOT
BRANCH   5   7
ATOM      7  C   UNL     1       0.684  -2.645   2.814  0.00  0.00    +0.069 A 
ATOM      8  C   UNL     1       1.747  -1.974   2.225  0.00  0.00    +0.028 A 
ATOM      9  C   UNL     1       1.956  -0.637   2.501  0.00  0.00    +0.002 A 
ATOM     10  C   UNL     1       1.107   0.034   3.362  0.00  0.00    +0.000 A 
ATOM     11  C   UNL     1       0.048  -0.632   3.951  0.00  0.00    +0.002 A 
ATOM     12  C   UNL     1      -0.170  -1.968   3.675  0.00  0.00    +0.028 A 
ENDBRANCH   5   7
BRANCH   1  13
ATOM     13  O   UNL     1       0.930  -3.991   0.157  0.00  0.00    -0.438 OA
BRANCH  13  18
ATOM     14  C   UNL     1      -3.165  -1.627  -2.904  0.00  0.00    +0.044 C 
ATOM     15  C   UNL     1      -2.069  -2.260  -2.085  0.00  0.00    -0.050 A 
ATOM     16  C   UNL     1      -0.751  -2.140  -2.486  0.00  0.00    +0.007 A 
ATOM     17  C   UNL     1       0.255  -2.719  -1.737  0.00  0.00    +0.046 A 
ATOM     18  C   UNL     1      -0.058  -3.421  -0.582  0.00  0.00    +0.130 A 
ATOM     19  C   UNL     1      -1.381  -3.539  -0.182  0.00  0.00    +0.046 A 
ATOM     20  C   UNL     1      -2.383  -2.954  -0.931  0.00  0.00    +0.007 A 
ENDBRANCH  13  18
ENDBRANCH   1  13
BRANCH   2  21
ATOM     21  C   UNL     1       0.308  -6.969   0.403  0.00  0.00    -0.035 C 
BRANCH  21  22
ATOM     22  N   UNL     1       1.681  -7.447   0.196  0.00  0.00    +0.389 N 
ATOM     23  H   UNL     1       2.286  -6.661   0.005  0.00  0.00    -0.081 HD
BRANCH  22  24
ATOM     24  C   UNL     1       1.710  -8.374  -0.943  0.00  0.00    -0.003 C 
BRANCH  24  25
ATOM     25  C   UNL     1       1.361  -7.630  -2.206  0.00  0.00    +0.089 A 
ATOM     26  C   UNL     1       2.239  -7.064  -3.054  0.00  0.00    +0.042 A 
ATOM     27  C   UNL     1       1.483  -6.479  -4.096  0.00  0.00    +0.041 A 
ATOM     28  C   UNL     1       0.189  -6.722  -3.822  0.00  0.00    +0.195 A 
ATOM     29  O   UNL     1       0.121  -7.425  -2.679  0.00  0.00    -0.470 OA
ENDBRANCH  24  25
ENDBRANCH  22  24
BRANCH  22  30
ATOM     30  C   UNL     1       2.147  -8.140   1.404  0.00  0.00    -0.046 C 
BRANCH  30  31
ATOM     31  C   UNL     1       3.617  -8.528   1.235  0.00  0.00    +0.098 C 
BRANCH  31  32
ATOM     32  O   UNL     1       4.415  -7.346   1.147  0.00  0.00    -0.394 OA
ATOM     33  H   UNL     1       4.358  -6.774   1.925  0.00  0.00    +0.210 HD
ENDBRANCH  31  32
BRANCH  31  34
ATOM     34  C   UNL     1       4.067  -9.358   2.439  0.00  0.00    +0.033 C 
BRANCH  34  35
ATOM     35  C   UNL     1       5.497  -9.851   2.213  0.00  0.00    +0.029 C 
BRANCH  35  36
ATOM     36  C   UNL     1       5.941 -10.669   3.398  0.00  0.00    -0.034 C 
ATOM     37  C   UNL     1       6.382 -11.890   3.224  0.00  0.00    +0.004 C 
ENDBRANCH  35  36
ENDBRANCH  34  35
ENDBRANCH  31  34
ENDBRANCH  30  31
ENDBRANCH  22  30
ENDBRANCH  21  22
ENDBRANCH   2  21
TORSDOF 13
