REMARK  Name = ZINC11214651
REMARK  12 active torsions:
REMARK  status: ('A' for Active; 'I' for Inactive)
REMARK    1  A    between atoms: C_1  and  C_2
REMARK    2  A    between atoms: C_2  and  C_3
REMARK    3  A    between atoms: C_3  and  C_5
REMARK    4  A    between atoms: C_3  and  C_6
REMARK    5  A    between atoms: C_11  and  N_12
REMARK    6  A    between atoms: C_13  and  C_15
REMARK    7  A    between atoms: C_15  and  S_16
REMARK    8  A    between atoms: S_16  and  C_17
REMARK    9  A    between atoms: C_20  and  C_28
REMARK   10  A    between atoms: N_21  and  C_22
REMARK   11  A    between atoms: C_28  and  C_30
REMARK   12  A    between atoms: C_28  and  N_69
REMARK                            x       y       z     vdW  Elec       q    Type
REMARK                         _______ _______ _______ _____ _____    ______ ____
ROOT
ATOM      1  C   UNL     1       0.158   0.931   2.735  0.00  0.00    +0.197 A 
ATOM      2  N   UNL     1       1.223   0.191   2.532  0.00  0.00    -0.122 NA
ATOM      3  N   UNL     1       1.728  -0.167   3.658  0.00  0.00    -0.135 NA
ATOM      4  C   UNL     1       1.024   0.318   4.640  0.00  0.00    +0.125 A 
ATOM      5  N   UNL     1      -0.000   1.041   4.089  0.00  0.00    -0.275 N 
ENDROOT
BRANCH   5   6
ATOM      6  C   UNL     1      -1.004   1.745   4.770  0.00  0.00    +0.050 A 
ATOM      7  C   UNL     1      -0.674   2.840   5.557  0.00  0.00    +0.026 A 
ATOM      8  C   UNL     1      -1.665   3.535   6.222  0.00  0.00    +0.002 A 
ATOM      9  C   UNL     1      -2.984   3.134   6.114  0.00  0.00    +0.000 A 
ATOM     10  C   UNL     1      -3.315   2.040   5.336  0.00  0.00    +0.002 A 
ATOM     11  C   UNL     1      -2.329   1.345   4.664  0.00  0.00    +0.026 A 
ENDBRANCH   5   6
BRANCH   4  12
ATOM     12  C   UNL     1       1.289   0.124   6.111  0.00  0.00    -0.002 C 
ATOM     13  C   UNL     1       2.474   0.994   6.534  0.00  0.00    -0.005 C 
BRANCH  12  19
ATOM     14  C   UNL     1       0.526  -2.162   5.884  0.00  0.00    -0.078 C 
ATOM     15  C   UNL     1       0.947  -3.625   6.038  0.00  0.00    -0.019 C 
ATOM     16  C   UNL     1       1.239  -3.915   7.513  0.00  0.00    -0.004 C 
ATOM     17  C   UNL     1       2.328  -2.959   8.008  0.00  0.00    -0.019 C 
ATOM     18  C   UNL     1       1.866  -1.515   7.797  0.00  0.00    -0.078 C 
ATOM     19  N   UNL     1       1.626  -1.294   6.355  0.00  0.00    +0.386 N 
ATOM     20  H   UNL     1       2.480  -1.528   5.835  0.00  0.00    -0.081 HD
ENDBRANCH  12  19
ENDBRANCH   4  12
BRANCH   1  21
ATOM     21  S   UNL     1      -0.868   1.653   1.497  0.00  0.00    -0.076 S 
BRANCH  21  22
ATOM     22  C   UNL     1      -0.021   1.071   0.007  0.00  0.00    +0.173 C 
BRANCH  22  24
ATOM     23  N   UNL     1      -0.289   1.270  -2.443  0.00  0.00    -0.285 N 
ATOM     24  C   UNL     1      -0.743   1.580  -1.213  0.00  0.00    +0.227 C 
ATOM     25  O   UNL     1      -1.733   2.269  -1.088  0.00  0.00    -0.275 OA
ATOM     26  H   UNL     1       0.546   0.787  -2.545  0.00  0.00    +0.155 HD
BRANCH  23  32
ATOM     27  C   UNL     1      -0.380   1.818  -4.794  0.00  0.00    -0.023 A 
ATOM     28  C   UNL     1      -1.107   2.183  -5.910  0.00  0.00    +0.006 A 
ATOM     29  C   UNL     1      -2.471   2.387  -5.812  0.00  0.00    +0.000 A 
ATOM     30  C   UNL     1      -3.112   2.222  -4.598  0.00  0.00    +0.002 A 
ATOM     31  C   UNL     1      -2.392   1.851  -3.480  0.00  0.00    +0.023 A 
ATOM     32  C   UNL     1      -1.022   1.645  -3.575  0.00  0.00    +0.037 A 
BRANCH  27  33
ATOM     33  C   UNL     1       1.108   1.601  -4.901  0.00  0.00    +0.017 C 
ATOM     34  C   UNL     1       1.792   2.925  -5.246  0.00  0.00    +0.012 C 
BRANCH  33  36
ATOM     35  C   UNL     1       2.894   0.263  -6.024  0.00  0.00    +0.004 C 
ATOM     36  C   UNL     1       1.397   0.576  -5.999  0.00  0.00    +0.004 C 
ENDBRANCH  33  36
ENDBRANCH  27  33
ENDBRANCH  23  32
ENDBRANCH  22  24
ENDBRANCH  21  22
ENDBRANCH   1  21
TORSDOF 9
