REMARK  Name = ZINC08439296
REMARK  8 active torsions:
REMARK  status: ('A' for Active; 'I' for Inactive)
REMARK    1  A    between atoms: C_1  and  C_2
REMARK    2  A    between atoms: C_3  and  C_26
REMARK    3  A    between atoms: C_6  and  N_15
REMARK    4  A    between atoms: N_15  and  S_16
REMARK    5  A    between atoms: S_16  and  C_19
REMARK    6  A    between atoms: C_26  and  O_28
REMARK    7  A    between atoms: O_28  and  C_29
REMARK    8  A    between atoms: C_29  and  C_30
REMARK                            x       y       z     vdW  Elec       q    Type
REMARK                         _______ _______ _______ _____ _____    ______ ____
ROOT
ATOM      1  C   UNL     1      -0.018   1.503   0.010  0.00  0.00    +0.087 C 
ATOM      2  C   UNL     1       0.002  -0.004   0.002  0.00  0.00    +0.117 A 
ATOM      3  C   UNL     1      -1.101  -0.804   0.003  0.00  0.00    +0.107 A 
ATOM      4  C   UNL     1      -0.589  -2.190  -0.007  0.00  0.00    +0.037 A 
ATOM      5  C   UNL     1      -1.206  -3.449  -0.011  0.00  0.00    +0.039 A 
ATOM      6  C   UNL     1      -0.459  -4.590  -0.021  0.00  0.00    +0.083 A 
ATOM      7  C   UNL     1       0.954  -4.510  -0.027  0.00  0.00    +0.010 A 
ATOM      8  C   UNL     1       1.740  -5.671  -0.038  0.00  0.00    +0.010 A 
ATOM      9  C   UNL     1       3.099  -5.568  -0.045  0.00  0.00    +0.001 A 
ATOM     10  C   UNL     1       3.722  -4.323  -0.040  0.00  0.00    +0.001 A 
ATOM     11  C   UNL     1       2.989  -3.175  -0.030  0.00  0.00    +0.012 A 
ATOM     12  C   UNL     1       1.587  -3.244  -0.023  0.00  0.00    +0.027 A 
ATOM     13  C   UNL     1       0.799  -2.073  -0.013  0.00  0.00    +0.144 A 
ATOM     14  O   UNL     1       1.105  -0.760  -0.013  0.00  0.00    -0.459 OA
ENDROOT
BRANCH   3  15
ATOM     15  C   UNL     1      -2.507  -0.378   0.012  0.00  0.00    +0.343 C 
ATOM     16  O   UNL     1      -3.094  -0.196  -1.036  0.00  0.00    -0.245 OA
BRANCH  15  17
ATOM     17  O   UNL     1      -3.146  -0.189   1.184  0.00  0.00    -0.456 OA
BRANCH  17  18
ATOM     18  C   UNL     1      -4.512   0.226   1.119  0.00  0.00    +0.268 C 
BRANCH  18  19
ATOM     19  C   UNL     1      -5.056   0.385   2.515  0.00  0.00    -0.010 A 
ATOM     20  C   UNL     1      -5.648  -0.689   3.153  0.00  0.00    +0.007 A 
ATOM     21  C   UNL     1      -6.147  -0.543   4.434  0.00  0.00    +0.000 A 
ATOM     22  C   UNL     1      -6.053   0.677   5.077  0.00  0.00    +0.000 A 
ATOM     23  C   UNL     1      -5.461   1.751   4.439  0.00  0.00    +0.000 A 
ATOM     24  C   UNL     1      -4.958   1.604   3.160  0.00  0.00    +0.007 A 
ENDBRANCH  18  19
ENDBRANCH  17  18
ENDBRANCH  15  17
ENDBRANCH   3  15
BRANCH   6  25
ATOM     25  N   UNL     1      -1.088  -5.836  -0.023  0.00  0.00    -0.097 NA
BRANCH  25  26
ATOM     26  S   UNL     1      -2.741  -5.929  -0.015  0.00  0.00    +0.092 S 
ATOM     27  O   UNL     1      -3.171  -5.408   1.235  0.00  0.00    -0.148 OA
ATOM     28  O   UNL     1      -3.184  -5.396  -1.256  0.00  0.00    -0.148 OA
BRANCH  26  29
ATOM     29  C   UNL     1      -3.167  -7.639  -0.022  0.00  0.00    +0.111 A 
ATOM     30  C   UNL     1      -3.334  -8.305  -1.222  0.00  0.00    +0.031 A 
ATOM     31  C   UNL     1      -3.667  -9.646  -1.228  0.00  0.00    +0.040 A 
ATOM     32  C   UNL     1      -3.834 -10.323  -0.031  0.00  0.00    +0.124 A 
ATOM     33  C   UNL     1      -3.666  -9.655   1.170  0.00  0.00    +0.040 A 
ATOM     34  C   UNL     1      -3.328  -8.315   1.173  0.00  0.00    +0.031 A 
ATOM     35  F   UNL     1      -4.160 -11.634  -0.036  0.00  0.00    -0.205 F 
ENDBRANCH  26  29
ENDBRANCH  25  26
ENDBRANCH   6  25
TORSDOF 7
