REMARK  Name = ZINC27528763
REMARK  8 active torsions:
REMARK  status: ('A' for Active; 'I' for Inactive)
REMARK    1  A    between atoms: C_3  and  N_22
REMARK    2  A    between atoms: C_6  and  C_7
REMARK    3  A    between atoms: C_7  and  C_8
REMARK    4  A    between atoms: C_8  and  N_9
REMARK    5  A    between atoms: N_9  and  C_10
REMARK    6  A    between atoms: N_9  and  C_16
REMARK    7  A    between atoms: N_22  and  C_23
REMARK    8  A    between atoms: C_23  and  C_24
REMARK                            x       y       z     vdW  Elec       q    Type
REMARK                         _______ _______ _______ _____ _____    ______ ____
ROOT
ATOM      1  C   UNL     1       2.198   5.832  -1.417  0.00  0.00    +0.005 A 
ATOM      2  C   UNL     1       2.073   7.207  -1.438  0.00  0.00    +0.023 A 
ATOM      3  C   UNL     1       2.260   7.938  -0.272  0.00  0.00    +0.027 A 
ATOM      4  C   UNL     1       2.568   7.283   0.913  0.00  0.00    +0.023 A 
ATOM      5  C   UNL     1       2.686   5.907   0.929  0.00  0.00    +0.005 A 
ATOM      6  C   UNL     1       2.498   5.182  -0.233  0.00  0.00    -0.049 A 
ENDROOT
BRANCH   3   7
ATOM      7  N   UNL     1       2.141   9.330  -0.292  0.00  0.00    -0.343 N 
ATOM      8  H   UNL     1       2.290   9.908   0.632  0.00  0.00    +0.146 HD
BRANCH   7   9
ATOM      9  C   UNL     1       1.817  10.019  -1.544  0.00  0.00    +0.109 C 
BRANCH   9  10
ATOM     10  C   UNL     1       1.745  11.527  -1.291  0.00  0.00    +0.060 C 
ATOM     11  C   UNL     1       0.520  11.878  -0.417  0.00  0.00    +0.129 C 
ATOM     12  C   UNL     1      -0.083  13.083  -1.124  0.00  0.00    +0.308 C 
ATOM     13  O   UNL     1      -0.693  13.987  -0.603  0.00  0.00    -0.251 OA
ATOM     14  O   UNL     1       0.190  12.955  -2.435  0.00  0.00    -0.458 OA
ATOM     15  C   UNL     1       1.469  12.286  -2.603  0.00  0.00    +0.118 C 
ATOM     16  C   UNL     1       1.401  11.298  -3.765  0.00  0.00    +0.048 C 
ATOM     17  C   UNL     1       1.124  12.057  -5.065  0.00  0.00    +0.004 C 
ATOM     18  C   UNL     1       2.242  13.072  -5.310  0.00  0.00    +0.000 C 
ATOM     19  C   UNL     1       2.293  14.066  -4.148  0.00  0.00    +0.004 C 
ATOM     20  C   UNL     1       2.574  13.313  -2.845  0.00  0.00    +0.048 C 
ENDBRANCH   9  10
ENDBRANCH   7   9
ENDBRANCH   3   7
BRANCH   6  21
ATOM     21  C   UNL     1       2.628   3.681  -0.212  0.00  0.00    +0.016 C 
BRANCH  21  22
ATOM     22  C   UNL     1       1.265   3.055   0.095  0.00  0.00    -0.073 C 
BRANCH  22  23
ATOM     23  N   UNL     1       1.365   1.593  -0.001  0.00  0.00    +0.384 N 
ATOM     24  H   UNL     1       1.856   1.349  -0.955  0.00  0.00    -0.081 HD
BRANCH  23  25
ATOM     25  C   UNL     1       0.033   0.974  -0.008  0.00  0.00    -0.068 C 
ATOM     26  C   UNL     1      -0.778   1.496   1.180  0.00  0.00    -0.015 C 
ATOM     27  C   UNL     1      -2.166   0.852   1.173  0.00  0.00    -0.002 C 
ATOM     28  C   UNL     1      -2.885   1.204  -0.131  0.00  0.00    -0.000 C 
ATOM     29  C   UNL     1      -2.074   0.681  -1.318  0.00  0.00    -0.002 C 
ATOM     30  C   UNL     1      -0.687   1.326  -1.311  0.00  0.00    -0.015 C 
ENDBRANCH  23  25
BRANCH  23  31
ATOM     31  C   UNL     1       2.192   1.050   1.084  0.00  0.00    -0.068 C 
ATOM     32  C   UNL     1       1.770  -0.392   1.375  0.00  0.00    -0.015 C 
ATOM     33  C   UNL     1       2.631  -0.958   2.506  0.00  0.00    -0.002 C 
ATOM     34  C   UNL     1       2.445  -0.107   3.764  0.00  0.00    -0.000 C 
ATOM     35  C   UNL     1       2.868   1.334   3.473  0.00  0.00    -0.002 C 
ATOM     36  C   UNL     1       2.006   1.900   2.342  0.00  0.00    -0.015 C 
ENDBRANCH  23  31
ENDBRANCH  22  23
ENDBRANCH  21  22
ENDBRANCH   6  21
TORSDOF 8
