REMARK  Name = ZINC63625074
REMARK  4 active torsions:
REMARK  status: ('A' for Active; 'I' for Inactive)
REMARK    1  A    between atoms: C_1  and  C_2
REMARK    2  A    between atoms: C_5  and  C_8
REMARK    3  A    between atoms: N_23  and  S_24
REMARK    4  A    between atoms: S_24  and  C_27
REMARK                            x       y       z     vdW  Elec       q    Type
REMARK                         _______ _______ _______ _____ _____    ______ ____
ROOT
ATOM      1  C   UNL     1       0.059  -4.275  -0.021  0.00  0.00    +0.136 C 
ATOM      2  C   UNL     1       1.502  -4.776   0.113  0.00  0.00    +0.129 C 
ATOM      3  C   UNL     1       1.937  -4.470   1.540  0.00  0.00    -0.035 C 
ATOM      4  C   UNL     1       3.040  -3.737   1.447  0.00  0.00    +0.001 A 
ATOM      5  C   UNL     1       3.949  -3.201   2.473  0.00  0.00    +0.030 A 
ATOM      6  C   UNL     1       4.999  -2.466   2.018  0.00  0.00    +0.042 A 
ATOM      7  C   UNL     1       5.232  -2.214   0.661  0.00  0.00    +0.022 A 
ATOM      8  C   UNL     1       4.450  -2.672  -0.349  0.00  0.00    +0.027 A 
ATOM      9  C   UNL     1       3.317  -3.461   0.004  0.00  0.00    +0.043 A 
ATOM     10  N   UNL     1       2.416  -4.045  -0.766  0.00  0.00    -0.376 N 
ATOM     11 CL   UNL     1       6.107  -1.806   3.180  0.00  0.00    -0.084 Cl
ATOM     12  C   UNL     1       1.136  -4.906   2.743  0.00  0.00    +0.050 C 
ATOM     13  C   UNL     1      -0.314  -4.450   2.498  0.00  0.00    +0.114 C 
ATOM     14  N   UNL     1      -0.707  -4.790   1.125  0.00  0.00    -0.167 NA
ATOM     15  H   UNL     1       2.359  -4.000  -1.733  0.00  0.00    +0.160 HD
ENDROOT
BRANCH   1  20
ATOM     16  C   UNL     1      -0.012   1.503   0.009  0.00  0.00    +0.044 C 
ATOM     17  C   UNL     1       0.006  -0.004   0.001  0.00  0.00    -0.050 A 
ATOM     18  C   UNL     1       0.491  -0.695   1.096  0.00  0.00    +0.003 A 
ATOM     19  C   UNL     1       0.508  -2.077   1.089  0.00  0.00    +0.005 A 
ATOM     20  C   UNL     1       0.040  -2.768  -0.013  0.00  0.00    -0.026 A 
ATOM     21  C   UNL     1      -0.445  -2.078  -1.108  0.00  0.00    +0.005 A 
ATOM     22  C   UNL     1      -0.466  -0.695  -1.099  0.00  0.00    +0.003 A 
ENDBRANCH   1  20
BRANCH  14  23
ATOM     23  S   UNL     1      -2.022  -5.761   0.863  0.00  0.00    +0.064 S 
ATOM     24  O   UNL     1      -2.852  -5.639   2.010  0.00  0.00    -0.153 OA
ATOM     25  O   UNL     1      -2.486  -5.470  -0.449  0.00  0.00    -0.153 OA
BRANCH  23  26
ATOM     26  C   UNL     1      -1.443  -7.425   0.834  0.00  0.00    +0.134 A 
ATOM     27  C   UNL     1      -1.843  -8.296   1.789  0.00  0.00    +0.031 A 
ATOM     28  C   UNL     1      -1.406  -9.621   1.798  0.00  0.00    +0.004 A 
ATOM     29  C   UNL     1      -0.561 -10.092   0.852  0.00  0.00    +0.031 A 
ATOM     30  C   UNL     1      -0.098  -9.235  -0.183  0.00  0.00    +0.102 A 
ATOM     31  C   UNL     1      -0.560  -7.851  -0.195  0.00  0.00    +0.126 A 
ATOM     32  N   UNL     1      -0.067  -7.143  -1.212  0.00  0.00    -0.189 NA
ATOM     33  S   UNL     1       0.867  -8.160  -2.037  0.00  0.00    +0.117 S 
ATOM     34  N   UNL     1       0.728  -9.521  -1.190  0.00  0.00    -0.191 NA
ENDBRANCH  23  26
ENDBRANCH  14  23
TORSDOF 3
