REMARK  Name = ZINC40010935
REMARK  10 active torsions:
REMARK  status: ('A' for Active; 'I' for Inactive)
REMARK    1  A    between atoms: C_1  and  C_2
REMARK    2  A    between atoms: C_4  and  C_33
REMARK    3  A    between atoms: C_9  and  C_14
REMARK    4  A    between atoms: C_18  and  O_31
REMARK    5  A    between atoms: C_19  and  O_29
REMARK    6  A    between atoms: N_24  and  C_25
REMARK    7  A    between atoms: C_25  and  N_27
REMARK    8  A    between atoms: N_27  and  C_28
REMARK    9  A    between atoms: O_29  and  C_30
REMARK   10  A    between atoms: O_31  and  C_32
REMARK                            x       y       z     vdW  Elec       q    Type
REMARK                         _______ _______ _______ _____ _____    ______ ____
ROOT
ATOM      1  C   UNL     1       1.609  -4.890   2.651  0.00  0.00    +0.121 C 
ATOM      2  C   UNL     1       1.449  -6.369   2.900  0.00  0.00    -0.019 A 
ATOM      3  C   UNL     1       1.061  -7.166   1.830  0.00  0.00    +0.055 A 
ATOM      4  C   UNL     1       0.907  -8.530   1.990  0.00  0.00    +0.162 A 
ATOM      5  C   UNL     1       1.143  -9.107   3.235  0.00  0.00    +0.162 A 
ATOM      6  C   UNL     1       1.525  -8.309   4.297  0.00  0.00    +0.053 A 
ATOM      7  C   UNL     1       1.673  -6.937   4.134  0.00  0.00    -0.037 A 
ATOM      8  C   UNL     1       2.065  -6.131   5.345  0.00  0.00    +0.054 C 
ATOM      9  C   UNL     1       2.647  -4.779   4.934  0.00  0.00    +0.112 C 
ATOM     10  N   UNL     1       1.748  -4.187   3.930  0.00  0.00    -0.304 N 
ENDROOT
BRANCH   1  19
ATOM     11  C   UNL     1      -1.950  -7.634  -2.900  0.00  0.00    +0.044 C 
ATOM     12  C   UNL     1      -1.865  -7.009  -1.532  0.00  0.00    -0.050 A 
ATOM     13  C   UNL     1      -2.919  -7.185  -0.634  0.00  0.00    +0.008 A 
ATOM     14  C   UNL     1      -2.914  -6.652   0.616  0.00  0.00    -0.028 A 
ATOM     15  C   UNL     1      -1.821  -5.886   1.061  0.00  0.00    +0.043 A 
ATOM     16  N   UNL     1      -1.827  -5.368   2.289  0.00  0.00    -0.284 N 
ATOM     17  C   UNL     1      -0.834  -4.639   2.770  0.00  0.00    +0.226 C 
ATOM     18  O   UNL     1      -0.896  -4.193   3.901  0.00  0.00    -0.275 OA
ATOM     19  C   UNL     1       0.378  -4.362   1.911  0.00  0.00    +0.123 C 
ATOM     20  C   UNL     1       0.390  -4.949   0.513  0.00  0.00    -0.003 C 
ATOM     21  C   UNL     1      -0.694  -5.683   0.134  0.00  0.00    -0.006 A 
ATOM     22  C   UNL     1      -0.763  -6.290  -1.196  0.00  0.00    +0.012 A 
ATOM     23  C   UNL     1      -4.088  -6.883   1.532  0.00  0.00    +0.046 C 
ATOM     24  H   UNL     1      -2.596  -5.534   2.857  0.00  0.00    +0.155 HD
ENDBRANCH   1  19
BRANCH  10  25
ATOM     25  C   UNL     1       1.080  -3.042   4.177  0.00  0.00    +0.133 C 
ATOM     26  S   UNL     1      -0.064  -2.458   3.045  0.00  0.00    -0.019 S 
BRANCH  25  27
ATOM     27  N   UNL     1       1.313  -2.358   5.314  0.00  0.00    -0.329 N 
ATOM     28  C   UNL     1       0.673  -1.058   5.531  0.00  0.00    +0.127 C 
ATOM     29  H   UNL     1       1.904  -2.726   5.990  0.00  0.00    +0.147 HD
ENDBRANCH  25  27
ENDBRANCH  10  25
BRANCH   5  30
ATOM     30  O   UNL     1       1.000 -10.449   3.405  0.00  0.00    -0.491 OA
ATOM     31  C   UNL     1       1.260 -10.969   4.710  0.00  0.00    +0.277 C 
ENDBRANCH   5  30
BRANCH   4  32
ATOM     32  O   UNL     1       0.525  -9.304   0.939  0.00  0.00    -0.491 OA
ATOM     33  C   UNL     1       0.438  -8.667  -0.337  0.00  0.00    +0.277 C 
ENDBRANCH   4  32
TORSDOF 5
