REMARK  Name = ZINC64393040
REMARK  10 active torsions:
REMARK  status: ('A' for Active; 'I' for Inactive)
REMARK    1  A    between atoms: C_1  and  O_2
REMARK    2  A    between atoms: O_2  and  C_3
REMARK    3  A    between atoms: C_6  and  O_28
REMARK    4  A    between atoms: C_7  and  C_9
REMARK    5  A    between atoms: C_9  and  N_10
REMARK    6  A    between atoms: N_10  and  C_11
REMARK    7  A    between atoms: C_21  and  C_23
REMARK    8  A    between atoms: C_23  and  O_25
REMARK    9  A    between atoms: O_25  and  C_26
REMARK   10  A    between atoms: O_28  and  C_29
REMARK                            x       y       z     vdW  Elec       q    Type
REMARK                         _______ _______ _______ _____ _____    ______ ____
ROOT
ATOM      1  C   UNL     1      -2.627  -5.574  -1.941  0.00  0.00    +0.036 C 
ATOM      2  C   UNL     1      -2.452  -6.079  -0.644  0.00  0.00    +0.016 A 
ATOM      3  C   UNL     1      -1.860  -5.289   0.360  0.00  0.00    +0.011 A 
ATOM      4  C   UNL     1      -1.700  -5.798   1.613  0.00  0.00    +0.002 A 
ATOM      5  C   UNL     1      -2.111  -7.089   1.926  0.00  0.00    +0.022 A 
ATOM      6  C   UNL     1      -2.694  -7.906   0.988  0.00  0.00    +0.063 A 
ATOM      7  C   UNL     1      -2.887  -7.438  -0.324  0.00  0.00    +0.061 A 
ATOM      8  N   UNL     1      -3.458  -8.236  -1.239  0.00  0.00    -0.283 N 
ATOM      9  C   UNL     1      -3.674  -7.875  -2.486  0.00  0.00    +0.237 C 
ATOM     10  O   UNL     1      -4.197  -8.654  -3.262  0.00  0.00    -0.274 OA
ATOM     11  C   UNL     1      -3.280  -6.493  -2.955  0.00  0.00    +0.228 C 
ATOM     12 CL   UNL     1      -3.192  -9.512   1.421  0.00  0.00    -0.082 Cl
ATOM     13  H   UNL     1      -3.725  -9.127  -0.967  0.00  0.00    +0.155 HD
ENDROOT
BRANCH   1  14
ATOM     14  N   UNL     1      -2.240  -4.333  -2.267  0.00  0.00    -0.341 N 
ATOM     15  H   UNL     1      -1.746  -3.795  -1.629  0.00  0.00    +0.146 HD
BRANCH  14  16
ATOM     16  C   UNL     1      -2.563  -3.789  -3.589  0.00  0.00    +0.140 C 
BRANCH  16  21
ATOM     17  C   UNL     1      -2.028  -0.050  -3.722  0.00  0.00    +0.121 A 
ATOM     18  C   UNL     1      -0.684   0.026  -4.057  0.00  0.00    +0.049 A 
ATOM     19  C   UNL     1       0.049  -1.130  -4.240  0.00  0.00    +0.049 A 
ATOM     20  C   UNL     1      -0.559  -2.368  -4.088  0.00  0.00    +0.125 A 
ATOM     21  C   UNL     1      -1.902  -2.444  -3.753  0.00  0.00    +0.015 A 
ATOM     22  C   UNL     1      -2.634  -1.288  -3.565  0.00  0.00    +0.054 A 
BRANCH  17  24
ATOM     23  C   UNL     1      -2.061   2.328  -3.720  0.00  0.00    +0.277 C 
ATOM     24  O   UNL     1      -2.749   1.088  -3.542  0.00  0.00    -0.495 OA
ENDBRANCH  17  24
BRANCH  20  25
ATOM     25  O   UNL     1       0.163  -3.506  -4.269  0.00  0.00    -0.495 OA
ATOM     26  C   UNL     1       1.541  -3.353  -4.614  0.00  0.00    +0.277 C 
ENDBRANCH  20  25
ENDBRANCH  16  21
ENDBRANCH  14  16
ENDBRANCH   1  14
BRANCH  11  27
ATOM     27  C   UNL     1      -4.516  -5.805  -3.474  0.00  0.00    +0.325 C 
ATOM     28  O   UNL     1      -5.033  -4.924  -2.830  0.00  0.00    -0.250 OA
BRANCH  27  29
ATOM     29  O   UNL     1      -5.043  -6.172  -4.653  0.00  0.00    -0.467 OA
ATOM     30  C   UNL     1      -6.215  -5.478  -5.084  0.00  0.00    +0.280 C 
ENDBRANCH  27  29
ENDBRANCH  11  27
TORSDOF 7
