REMARK  Name = ZINC67562019
REMARK  9 active torsions:
REMARK  status: ('A' for Active; 'I' for Inactive)
REMARK    1  A    between atoms: C_1  and  C_2
REMARK    2  A    between atoms: C_2  and  O_3
REMARK    3  A    between atoms: O_3  and  C_4
REMARK    4  A    between atoms: C_9  and  N_12
REMARK    5  A    between atoms: N_12  and  C_13
REMARK    6  A    between atoms: C_13  and  C_14
REMARK    7  A    between atoms: C_14  and  C_15
REMARK    8  A    between atoms: C_20  and  C_25
REMARK    9  A    between atoms: C_21  and  C_24
REMARK                            x       y       z     vdW  Elec       q    Type
REMARK                         _______ _______ _______ _____ _____    ______ ____
ROOT
ATOM      1  N   UNL     1       1.159  -3.644  -6.390  0.00  0.00    +0.381 N 
ATOM      2  H   UNL     1       0.155  -3.544  -6.406  0.00  0.00    -0.086 HD
ATOM      3  H   UNL     1       1.568  -3.038  -7.086  0.00  0.00    -0.086 HD
ENDROOT
BRANCH   1   9
ATOM      4  C   UNL     1       0.776  -1.798  -1.335  0.00  0.00    +0.403 C 
ATOM      5  O   UNL     1       0.312  -2.549  -0.500  0.00  0.00    -0.226 OA
ATOM      6  N   UNL     1       1.395  -2.298  -2.422  0.00  0.00    -0.268 N 
ATOM      7  C   UNL     1       1.966  -1.403  -3.437  0.00  0.00    +0.109 C 
ATOM      8  C   UNL     1       1.404  -1.790  -4.809  0.00  0.00    +0.003 C 
ATOM      9  C   UNL     1       1.667  -3.276  -5.062  0.00  0.00    -0.069 C 
ATOM     10  C   UNL     1       0.956  -4.111  -3.995  0.00  0.00    +0.003 C 
ATOM     11  C   UNL     1       1.517  -3.750  -2.611  0.00  0.00    +0.109 C 
BRANCH   4  12
ATOM     12  O   UNL     1       0.671  -0.465  -1.174  0.00  0.00    -0.451 OA
BRANCH  12  14
ATOM     13  C   UNL     1      -0.019   1.526   0.010  0.00  0.00    +0.048 C 
ATOM     14  C   UNL     1       0.002  -0.004   0.002  0.00  0.00    +0.230 C 
ENDBRANCH  12  14
ENDBRANCH   4  12
ENDBRANCH   1   9
BRANCH   1  15
ATOM     15  C   UNL     1       1.517  -5.038  -6.683  0.00  0.00    -0.075 C 
BRANCH  15  16
ATOM     16  C   UNL     1       0.988  -5.421  -8.067  0.00  0.00    +0.055 C 
BRANCH  16  17
ATOM     17  C   UNL     1       1.355  -6.851  -8.367  0.00  0.00    +0.106 A 
ATOM     18  N   UNL     1       2.562  -7.335  -8.327  0.00  0.00    -0.233 NA
ATOM     19  C   UNL     1       2.536  -8.653  -8.652  0.00  0.00    +0.089 A 
ATOM     20  C   UNL     1       3.522  -9.638  -8.763  0.00  0.00    +0.030 A 
ATOM     21  C   UNL     1       3.176 -10.910  -9.118  0.00  0.00    +0.006 A 
ATOM     22  C   UNL     1       1.851 -11.239  -9.372  0.00  0.00    -0.045 A 
ATOM     23  C   UNL     1       0.863 -10.284  -9.268  0.00  0.00    -0.022 A 
ATOM     24  C   UNL     1       1.196  -8.986  -8.908  0.00  0.00    +0.069 A 
ATOM     25  N   UNL     1       0.472  -7.826  -8.714  0.00  0.00    -0.342 N 
ATOM     26  C   UNL     1      -0.573 -10.649  -9.544  0.00  0.00    +0.046 C 
ATOM     27  C   UNL     1       1.492 -12.649  -9.764  0.00  0.00    +0.044 C 
ATOM     28  H   UNL     1      -0.488  -7.725  -8.809  0.00  0.00    +0.167 HD
ENDBRANCH  16  17
ENDBRANCH  15  16
ENDBRANCH   1  15
TORSDOF 6
