REMARK  Name = ZINC16059590
REMARK  8 active torsions:
REMARK  status: ('A' for Active; 'I' for Inactive)
REMARK    1  A    between atoms: C_1  and  C_2
REMARK    2  A    between atoms: C_2  and  C_3
REMARK    3  A    between atoms: C_3  and  C_4
REMARK    4  A    between atoms: C_4  and  C_5
REMARK    5  A    between atoms: C_5  and  N_6
REMARK    6  A    between atoms: C_15  and  C_17
REMARK    7  A    between atoms: N_19  and  N_20
REMARK    8  A    between atoms: C_21  and  C_23
REMARK                            x       y       z     vdW  Elec       q    Type
REMARK                         _______ _______ _______ _____ _____    ______ ____
ROOT
ATOM      1  C   UNL     1       3.364  10.034   0.023  0.00  0.00    +0.281 C 
ATOM      2  O   UNL     1       2.184  10.326   0.036  0.00  0.00    -0.267 OA
ATOM      3  N   UNL     1       3.738   8.740   0.013  0.00  0.00    -0.229 N 
ATOM      4  H   UNL     1       4.680   8.507   0.003  0.00  0.00    +0.173 HD
ENDROOT
BRANCH   1  14
ATOM      5  N   UNL     1       6.609  11.652   0.000  0.00  0.00    -0.228 N 
ATOM      6  C   UNL     1       6.405  12.986   0.009  0.00  0.00    +0.275 A 
ATOM      7  O   UNL     1       7.344  13.760   0.004  0.00  0.00    -0.266 OA
ATOM      8  C   UNL     1       5.022  13.482   0.025  0.00  0.00    +0.050 A 
ATOM      9  C   UNL     1       4.705  14.836   0.034  0.00  0.00    +0.014 A 
ATOM     10  C   UNL     1       3.380  15.220   0.049  0.00  0.00    +0.001 A 
ATOM     11  C   UNL     1       2.366  14.271   0.054  0.00  0.00    +0.001 A 
ATOM     12  C   UNL     1       2.660  12.924   0.045  0.00  0.00    +0.011 A 
ATOM     13  C   UNL     1       3.989  12.515   0.025  0.00  0.00    +0.020 A 
ATOM     14  C   UNL     1       4.388  11.098   0.019  0.00  0.00    +0.155 A 
ATOM     15  N   UNL     1       5.662  10.792   0.005  0.00  0.00    -0.163 NA
BRANCH   5  16
ATOM     16  C   UNL     1       7.990  11.163  -0.016  0.00  0.00    +0.147 C 
BRANCH  16  17
ATOM     17  C   UNL     1       8.485  10.985   1.421  0.00  0.00    +0.023 C 
BRANCH  17  18
ATOM     18  C   UNL     1       9.927  10.474   1.404  0.00  0.00    +0.002 C 
BRANCH  18  20
ATOM     19  C   UNL     1      11.864   9.785   2.823  0.00  0.00    +0.004 C 
ATOM     20  C   UNL     1      10.422  10.296   2.841  0.00  0.00    -0.003 C 
ENDBRANCH  18  20
ENDBRANCH  17  18
ENDBRANCH  16  17
ENDBRANCH   5  16
ENDBRANCH   1  14
BRANCH   3  21
ATOM     21  N   UNL     1       2.767   7.730   0.017  0.00  0.00    -0.230 N 
ATOM     22  C   UNL     1       3.140   6.435   0.006  0.00  0.00    +0.268 C 
ATOM     23  O   UNL     1       4.321   6.143  -0.007  0.00  0.00    -0.268 OA
ATOM     24  H   UNL     1       1.825   7.963   0.027  0.00  0.00    +0.173 HD
BRANCH  22  25
ATOM     25  C   UNL     1       2.122   5.377   0.010  0.00  0.00    +0.095 A 
ATOM     26  C   UNL     1       2.301   4.028   0.001  0.00  0.00    +0.068 A 
ATOM     27  C   UNL     1       1.184   3.173   0.007  0.00  0.00    +0.008 A 
ATOM     28  C   UNL     1       1.164   1.754   0.000  0.00  0.00    +0.010 A 
ATOM     29  C   UNL     1      -0.013   1.076   0.008  0.00  0.00    +0.001 A 
ATOM     30  C   UNL     1      -1.235   1.737   0.017  0.00  0.00    +0.001 A 
ATOM     31  C   UNL     1      -1.261   3.117   0.030  0.00  0.00    +0.016 A 
ATOM     32  C   UNL     1      -0.075   3.819   0.023  0.00  0.00    +0.021 A 
ATOM     33  S   UNL     1       0.346   5.544   0.028  0.00  0.00    -0.082 S 
ATOM     34 CL   UNL     1       3.905   3.364  -0.018  0.00  0.00    -0.082 Cl
ENDBRANCH  22  25
ENDBRANCH   3  21
TORSDOF 7
