REMARK  Name = ZINC23549847
REMARK  6 active torsions:
REMARK  status: ('A' for Active; 'I' for Inactive)
REMARK    1  A    between atoms: N_7  and  C_19
REMARK    2  A    between atoms: C_10  and  C_15
REMARK    3  A    between atoms: C_19  and  C_20
REMARK    4  A    between atoms: C_20  and  C_21
REMARK    5  A    between atoms: C_21  and  N_22
REMARK    6  A    between atoms: N_25  and  C_28
REMARK                            x       y       z     vdW  Elec       q    Type
REMARK                         _______ _______ _______ _____ _____    ______ ____
ROOT
ATOM      1  C   UNL     1       2.748  -0.617   7.623  0.00  0.00    +0.112 C 
ENDROOT
BRANCH   1   8
ATOM      2  C   UNL     1      -0.916  -1.705   9.255  0.00  0.00    +0.002 A 
ATOM      3  C   UNL     1      -1.056  -2.907   9.923  0.00  0.00    +0.001 A 
ATOM      4  C   UNL     1      -0.032  -3.836   9.896  0.00  0.00    +0.017 A 
ATOM      5  C   UNL     1       1.137  -3.563   9.199  0.00  0.00    +0.034 A 
ATOM      6  C   UNL     1       1.285  -2.352   8.530  0.00  0.00    +0.048 A 
ATOM      7  C   UNL     1       0.247  -1.426   8.563  0.00  0.00    +0.024 A 
ATOM      8  N   UNL     1       2.445  -2.036   7.827  0.00  0.00    -0.298 N 
ATOM      9  C   UNL     1       3.335  -2.967   7.299  0.00  0.00    +0.048 A 
ATOM     10  C   UNL     1       4.141  -2.592   6.228  0.00  0.00    +0.037 A 
ATOM     11  C   UNL     1       5.039  -3.490   5.683  0.00  0.00    +0.057 A 
ATOM     12  C   UNL     1       5.143  -4.769   6.197  0.00  0.00    +0.013 A 
ATOM     13  C   UNL     1       4.350  -5.152   7.271  0.00  0.00    +0.017 A 
ATOM     14  C   UNL     1       3.442  -4.256   7.818  0.00  0.00    +0.034 A 
ATOM     15  S   UNL     1       2.426  -4.763   9.164  0.00  0.00    -0.086 S 
BRANCH  11  16
ATOM     16  C   UNL     1       5.907  -3.074   4.524  0.00  0.00    +0.417 C 
ATOM     17  F   UNL     1       7.102  -2.530   5.008  0.00  0.00    -0.166 F 
ATOM     18  F   UNL     1       6.190  -4.189   3.729  0.00  0.00    -0.166 F 
ATOM     19  F   UNL     1       5.235  -2.114   3.759  0.00  0.00    -0.166 F 
ENDBRANCH  11  16
ENDBRANCH   1   8
BRANCH   1  20
ATOM     20  C   UNL     1       2.108  -0.141   6.318  0.00  0.00    +0.035 C 
BRANCH  20  21
ATOM     21  C   UNL     1       2.425   1.341   6.105  0.00  0.00    +0.086 C 
BRANCH  21  22
ATOM     22  N   UNL     1       1.811   1.797   4.851  0.00  0.00    -0.306 NA
ATOM     23  C   UNL     1       1.889   3.260   4.729  0.00  0.00    +0.066 C 
ATOM     24  C   UNL     1       1.170   3.701   3.452  0.00  0.00    -0.063 C 
ATOM     25  N   UNL     1       1.790   3.045   2.292  0.00  0.00    +0.384 N 
ATOM     26  C   UNL     1       1.711   1.582   2.414  0.00  0.00    -0.063 C 
ATOM     27  C   UNL     1       2.430   1.141   3.691  0.00  0.00    +0.066 C 
ATOM     28  H   UNL     1       2.852   3.327   2.269  0.00  0.00    -0.081 HD
BRANCH  25  29
ATOM     29  C   UNL     1       1.175   3.502   1.038  0.00  0.00    -0.062 C 
ATOM     30  C   UNL     1       1.318   5.021   0.924  0.00  0.00    -0.024 C 
ATOM     31  C   UNL     1       2.801   5.395   0.932  0.00  0.00    +0.005 C 
ATOM     32  C   UNL     1       3.502   4.727  -0.253  0.00  0.00    -0.010 C 
ATOM     33  C   UNL     1       2.862   5.203  -1.559  0.00  0.00    +0.007 C 
ATOM     34  C   UNL     1       1.379   4.828  -1.566  0.00  0.00    -0.010 C 
ATOM     35  C   UNL     1       0.678   5.496  -0.382  0.00  0.00    +0.005 C 
ATOM     36  C   UNL     1       1.236   3.309  -1.452  0.00  0.00    +0.005 C 
ATOM     37  C   UNL     1       1.876   2.833  -0.146  0.00  0.00    -0.024 C 
ATOM     38  C   UNL     1       3.360   3.208  -0.139  0.00  0.00    +0.005 C 
ENDBRANCH  25  29
ENDBRANCH  21  22
ENDBRANCH  20  21
ENDBRANCH   1  20
TORSDOF 6
