REMARK  Name = ZINC39681144
REMARK  10 active torsions:
REMARK  status: ('A' for Active; 'I' for Inactive)
REMARK    1  A    between atoms: C_1  and  C_2
REMARK    2  A    between atoms: C_2  and  C_4
REMARK    3  A    between atoms: C_2  and  N_10
REMARK    4  A    between atoms: C_11  and  C_13
REMARK    5  A    between atoms: C_24  and  C_26
REMARK    6  A    between atoms: C_26  and  C_28
REMARK    7  A    between atoms: C_26  and  O_31
REMARK    8  A    between atoms: C_28  and  C_29
REMARK    9  A    between atoms: C_28  and  C_30
REMARK   10  A    between atoms: O_31  and  C_32
REMARK                            x       y       z     vdW  Elec       q    Type
REMARK                         _______ _______ _______ _____ _____    ______ ____
ROOT
ATOM      1  C   UNL     1      -0.033  -0.934   3.478  0.00  0.00    +0.100 C 
ATOM      2  C   UNL     1       1.319  -0.338   3.929  0.00  0.00    +0.121 C 
ATOM      3  N   UNL     1       0.977   0.552   5.063  0.00  0.00    -0.297 N 
ATOM      4  C   UNL     1      -0.067  -0.188   5.810  0.00  0.00    +0.115 C 
ATOM      5  C   UNL     1      -0.939  -0.837   4.717  0.00  0.00    -0.004 C 
ATOM      6  C   UNL     1      -1.387  -2.228   5.155  0.00  0.00    -0.010 C 
ATOM      7  C   UNL     1      -2.333  -2.102   6.352  0.00  0.00    -0.082 C 
ATOM      8  N   UNL     1      -3.495  -1.288   5.976  0.00  0.00    +0.379 N 
ATOM      9  C   UNL     1      -3.066   0.076   5.645  0.00  0.00    -0.082 C 
ATOM     10  C   UNL     1      -2.150   0.042   4.418  0.00  0.00    -0.010 C 
ATOM     11  C   UNL     1       1.499   1.761   5.350  0.00  0.00    +0.257 C 
ATOM     12  O   UNL     1       1.192   2.325   6.378  0.00  0.00    -0.272 OA
ATOM     13  H   UNL     1      -3.947  -1.701   5.173  0.00  0.00    -0.086 HD
ATOM     14  H   UNL     1      -4.146  -1.257   6.746  0.00  0.00    -0.086 HD
ENDROOT
BRANCH   1  16
ATOM     15  N   UNL     1      -1.386  -0.728   1.418  0.00  0.00    -0.308 N 
ATOM     16  C   UNL     1      -0.609  -0.129   2.342  0.00  0.00    +0.219 C 
ATOM     17  O   UNL     1      -0.373   1.058   2.260  0.00  0.00    -0.275 OA
ATOM     18  H   UNL     1      -1.635  -1.659   1.524  0.00  0.00    +0.149 HD
BRANCH  15  20
ATOM     19  C   UNL     1      -0.819  -0.068  -0.868  0.00  0.00    +0.033 C 
ATOM     20  C   UNL     1      -1.855   0.029   0.254  0.00  0.00    +0.100 C 
BRANCH  20  21
ATOM     21  C   UNL     1      -3.166  -0.543  -0.222  0.00  0.00    -0.025 A 
ATOM     22  C   UNL     1      -3.378  -1.913  -0.237  0.00  0.00    +0.025 A 
ATOM     23  C   UNL     1      -4.593  -2.401  -0.680  0.00  0.00    +0.111 A 
ATOM     24  N   UNL     1      -5.542  -1.581  -1.086  0.00  0.00    -0.263 NA
ATOM     25  C   UNL     1      -5.375  -0.273  -1.085  0.00  0.00    +0.111 A 
ATOM     26  C   UNL     1      -4.189   0.288  -0.650  0.00  0.00    +0.025 A 
ENDBRANCH  20  21
ENDBRANCH  15  20
ENDBRANCH   1  16
BRANCH  11  27
ATOM     27  C   UNL     1       2.464   2.413   4.393  0.00  0.00    +0.261 C 
BRANCH  27  28
ATOM     28  C   UNL     1       3.875   1.880   4.649  0.00  0.00    +0.033 C 
ATOM     29  C   UNL     1       4.862   2.581   3.715  0.00  0.00    +0.011 C 
ATOM     30  C   UNL     1       4.266   2.153   6.103  0.00  0.00    +0.011 C 
ENDBRANCH  27  28
BRANCH  27  31
ATOM     31  O   UNL     1       2.078   2.112   3.050  0.00  0.00    -0.479 OA
BRANCH  31  32
ATOM     32  C   UNL     1       2.278   3.082   2.119  0.00  0.00    +0.122 A 
ATOM     33  C   UNL     1       1.938   2.853   0.793  0.00  0.00    +0.045 A 
ATOM     34  C   UNL     1       2.142   3.841  -0.151  0.00  0.00    +0.004 A 
ATOM     35  C   UNL     1       2.685   5.056   0.224  0.00  0.00    +0.000 A 
ATOM     36  C   UNL     1       3.026   5.286   1.544  0.00  0.00    +0.004 A 
ATOM     37  C   UNL     1       2.818   4.304   2.493  0.00  0.00    +0.045 A 
ENDBRANCH  31  32
ENDBRANCH  27  31
ENDBRANCH  11  27
TORSDOF 7
