REMARK  Name = ZINC06301117
REMARK  9 active torsions:
REMARK  status: ('A' for Active; 'I' for Inactive)
REMARK    1  A    between atoms: C_1  and  C_2
REMARK    2  A    between atoms: C_4  and  C_40
REMARK    3  A    between atoms: C_9  and  C_14
REMARK    4  A    between atoms: C_14  and  C_16
REMARK    5  A    between atoms: C_14  and  N_74
REMARK    6  A    between atoms: N_20  and  C_21
REMARK    7  A    between atoms: C_21  and  C_22
REMARK    8  A    between atoms: C_30  and  C_33
REMARK    9  A    between atoms: C_33  and  C_34
REMARK                            x       y       z     vdW  Elec       q    Type
REMARK                         _______ _______ _______ _____ _____    ______ ____
ROOT
ATOM      1  C   UNL     1      -4.985   1.048   0.052  0.00  0.00    +0.039 C 
ENDROOT
BRANCH   1  10
ATOM      2  C   UNL     1       2.472   1.039  -0.015  0.00  0.00    +0.044 C 
ATOM      3  C   UNL     1       1.159   1.778   0.001  0.00  0.00    -0.050 A 
ATOM      4  C   UNL     1       1.151   3.166   0.008  0.00  0.00    +0.008 A 
ATOM      5  C   UNL     1      -0.038   3.862   0.022  0.00  0.00    -0.026 A 
ATOM      6  C   UNL     1      -1.244   3.169   0.030  0.00  0.00    +0.052 A 
ATOM      7  C   UNL     1      -1.232   1.762   0.017  0.00  0.00    -0.001 A 
ATOM      8  C   UNL     1      -0.013   1.076   0.008  0.00  0.00    +0.013 A 
ATOM      9  C   UNL     1      -2.506   1.041   0.030  0.00  0.00    +0.017 A 
ATOM     10  C   UNL     1      -3.656   1.759   0.043  0.00  0.00    +0.011 A 
ATOM     11  C   UNL     1      -3.613   3.170   0.050  0.00  0.00    +0.251 A 
ATOM     12  O   UNL     1      -4.659   3.796   0.062  0.00  0.00    -0.268 OA
ATOM     13  N   UNL     1      -2.448   3.840   0.043  0.00  0.00    -0.322 N 
ATOM     14  H   UNL     1      -2.454   4.810   0.048  0.00  0.00    +0.169 HD
ATOM     15  C   UNL     1      -0.032   5.370   0.030  0.00  0.00    +0.046 C 
ENDBRANCH   1  10
BRANCH   1  21
ATOM     16  C   UNL     1      -5.050   1.328   2.455  0.00  0.00    -0.077 C 
ATOM     17  C   UNL     1      -5.844   1.952   3.605  0.00  0.00    -0.015 C 
ATOM     18  C   UNL     1      -7.220   1.284   3.689  0.00  0.00    -0.010 C 
ATOM     19  C   UNL     1      -7.941   1.449   2.349  0.00  0.00    -0.015 C 
ATOM     20  C   UNL     1      -7.086   0.839   1.236  0.00  0.00    -0.077 C 
ATOM     21  N   UNL     1      -5.785   1.541   1.191  0.00  0.00    +0.389 N 
ATOM     22  H   UNL     1      -5.954   2.547   1.070  0.00  0.00    -0.080 HD
BRANCH  18  23
ATOM     23  C   UNL     1      -8.042   1.944   4.798  0.00  0.00    +0.038 C 
BRANCH  23  24
ATOM     24  C   UNL     1      -7.395   1.676   6.131  0.00  0.00    -0.047 A 
ATOM     25  C   UNL     1      -7.750   0.557   6.860  0.00  0.00    +0.003 A 
ATOM     26  C   UNL     1      -7.153   0.308   8.082  0.00  0.00    +0.000 A 
ATOM     27  C   UNL     1      -6.207   1.185   8.579  0.00  0.00    +0.000 A 
ATOM     28  C   UNL     1      -5.855   2.308   7.853  0.00  0.00    +0.000 A 
ATOM     29  C   UNL     1      -6.449   2.553   6.629  0.00  0.00    +0.003 A 
ENDBRANCH  23  24
ENDBRANCH  18  23
ENDBRANCH   1  21
BRANCH   1  30
ATOM     30  C   UNL     1      -5.723   1.347  -1.228  0.00  0.00    +0.143 A 
ATOM     31  N   UNL     1      -6.333   2.466  -1.536  0.00  0.00    -0.115 NA
ATOM     32  N   UNL     1      -6.840   2.331  -2.713  0.00  0.00    -0.023 NA
ATOM     33  N   UNL     1      -6.575   1.153  -3.161  0.00  0.00    -0.044 NA
ATOM     34  N   UNL     1      -5.887   0.516  -2.274  0.00  0.00    -0.228 N 
BRANCH  34  35
ATOM     35  C   UNL     1      -5.381  -0.854  -2.385  0.00  0.00    +0.178 C 
BRANCH  35  36
ATOM     36  C   UNL     1      -6.424  -1.829  -1.835  0.00  0.00    +0.140 C 
ATOM     37  C   UNL     1      -5.930  -3.289  -1.993  0.00  0.00    +0.035 C 
ATOM     38  C   UNL     1      -6.734  -3.995  -0.867  0.00  0.00    +0.031 C 
ATOM     39  C   UNL     1      -6.805  -2.902   0.220  0.00  0.00    +0.160 C 
ATOM     40  O   UNL     1      -6.588  -1.639  -0.421  0.00  0.00    -0.375 OA
ENDBRANCH  35  36
ENDBRANCH  34  35
ENDBRANCH   1  30
TORSDOF 7
