REMARK  Name = ZINC22664685
REMARK  10 active torsions:
REMARK  status: ('A' for Active; 'I' for Inactive)
REMARK    1  A    between atoms: C_1  and  C_2
REMARK    2  A    between atoms: C_2  and  C_3
REMARK    3  A    between atoms: C_2  and  C_4
REMARK    4  A    between atoms: C_9  and  O_10
REMARK    5  A    between atoms: O_10  and  C_11
REMARK    6  A    between atoms: C_21  and  C_23
REMARK    7  A    between atoms: C_26  and  C_29
REMARK    8  A    between atoms: C_29  and  N_30
REMARK    9  A    between atoms: N_30  and  C_31
REMARK   10  A    between atoms: N_30  and  C_32
REMARK                            x       y       z     vdW  Elec       q    Type
REMARK                         _______ _______ _______ _____ _____    ______ ____
ROOT
ATOM      1  C   UNL     1      -1.244  -4.632   1.340  0.00  0.00    +0.177 C 
ATOM      2  C   UNL     1      -2.574  -3.920   1.044  0.00  0.00    +0.067 C 
ATOM      3  C   UNL     1      -2.450  -3.177  -0.296  0.00  0.00    +0.080 C 
ATOM      4  C   UNL     1      -1.842  -4.157  -1.326  0.00  0.00    +0.024 C 
ATOM      5  C   UNL     1      -0.316  -3.978  -1.185  0.00  0.00    +0.024 C 
ATOM      6  C   UNL     1      -0.144  -2.906  -0.089  0.00  0.00    +0.080 C 
ATOM      7  C   UNL     1      -0.090  -3.628   1.267  0.00  0.00    +0.067 C 
ATOM      8  N   UNL     1      -1.410  -2.134  -0.126  0.00  0.00    -0.291 N 
ATOM      9  C   UNL     1      -1.575  -0.799  -0.033  0.00  0.00    +0.247 C 
ATOM     10  O   UNL     1      -2.694  -0.324  -0.025  0.00  0.00    -0.270 OA
ENDROOT
BRANCH   9  11
ATOM     11  C   UNL     1      -0.395   0.087   0.059  0.00  0.00    +0.037 A 
ATOM     12  C   UNL     1       0.780  -0.370   0.658  0.00  0.00    +0.013 A 
ATOM     13  C   UNL     1       1.877   0.462   0.740  0.00  0.00    +0.002 A 
ATOM     14  C   UNL     1       1.815   1.747   0.230  0.00  0.00    -0.064 A 
ATOM     15  C   UNL     1       0.654   2.205  -0.366  0.00  0.00    +0.002 A 
ATOM     16  C   UNL     1      -0.451   1.384  -0.455  0.00  0.00    +0.013 A 
BRANCH  14  17
ATOM     17  C   UNL     1       3.018   2.650   0.323  0.00  0.00    -0.043 C 
BRANCH  17  18
ATOM     18  N   UNL     1       2.964   3.409   1.579  0.00  0.00    +0.382 N 
ATOM     19  C   UNL     1       3.104   2.519   2.739  0.00  0.00    -0.095 C 
ATOM     20  H   UNL     1       1.976   3.891   1.641  0.00  0.00    -0.081 HD
BRANCH  18  21
ATOM     21  C   UNL     1       3.984   4.466   1.600  0.00  0.00    -0.069 C 
ATOM     22  C   UNL     1       5.376   3.832   1.592  0.00  0.00    -0.015 C 
ATOM     23  C   UNL     1       6.438   4.932   1.614  0.00  0.00    -0.002 C 
ATOM     24  C   UNL     1       6.270   5.778   2.878  0.00  0.00    -0.000 C 
ATOM     25  C   UNL     1       4.878   6.413   2.886  0.00  0.00    -0.002 C 
ATOM     26  C   UNL     1       3.816   5.312   2.864  0.00  0.00    -0.015 C 
ENDBRANCH  18  21
ENDBRANCH  17  18
ENDBRANCH  14  17
ENDBRANCH   9  11
BRANCH   1  27
ATOM     27  O   UNL     1      -1.290  -5.209   2.647  0.00  0.00    -0.488 OA
BRANCH  27  33
ATOM     28  C   UNL     1      -1.752  -7.136   3.963  0.00  0.00    -0.003 A 
ATOM     29  C   UNL     1      -2.268  -8.414   4.065  0.00  0.00    +0.007 A 
ATOM     30  C   UNL     1      -2.815  -9.030   2.955  0.00  0.00    +0.001 A 
ATOM     31  C   UNL     1      -2.853  -8.367   1.742  0.00  0.00    +0.004 A 
ATOM     32  C   UNL     1      -2.342  -7.088   1.636  0.00  0.00    +0.046 A 
ATOM     33  C   UNL     1      -1.792  -6.468   2.749  0.00  0.00    +0.124 A 
BRANCH  28  35
ATOM     34  C   UNL     1      -2.206  -6.357   6.273  0.00  0.00    +0.012 C 
ATOM     35  C   UNL     1      -1.149  -6.467   5.172  0.00  0.00    +0.016 C 
ATOM     36  C   UNL     1       0.031  -7.298   5.680  0.00  0.00    +0.012 C 
ENDBRANCH  28  35
ENDBRANCH  27  33
ENDBRANCH   1  27
TORSDOF 7
