REMARK  Name = ZINC11523043
REMARK  8 active torsions:
REMARK  status: ('A' for Active; 'I' for Inactive)
REMARK    1  A    between atoms: C_4  and  O_30
REMARK    2  A    between atoms: C_5  and  C_7
REMARK    3  A    between atoms: C_7  and  N_8
REMARK    4  A    between atoms: C_9  and  C_11
REMARK    5  A    between atoms: C_11  and  N_57
REMARK    6  A    between atoms: N_14  and  C_17
REMARK    7  A    between atoms: C_20  and  N_27
REMARK    8  A    between atoms: O_30  and  C_31
REMARK                            x       y       z     vdW  Elec       q    Type
REMARK                         _______ _______ _______ _____ _____    ______ ____
ROOT
ATOM      1  C   UNL     1      -7.183   2.864   4.506  0.00  0.00    -0.059 C 
ATOM      2  C   UNL     1      -8.395   3.795   4.421  0.00  0.00    +0.086 C 
ATOM      3  N   UNL     1      -9.451   3.148   3.630  0.00  0.00    -0.333 N 
ATOM      4  C   UNL     1      -8.976   2.841   2.273  0.00  0.00    +0.086 C 
ATOM      5  C   UNL     1      -7.764   1.910   2.358  0.00  0.00    -0.059 C 
ATOM      6  N   UNL     1      -6.702   2.581   3.137  0.00  0.00    +0.387 N 
ATOM      7  H   UNL     1      -6.462   3.468   2.678  0.00  0.00    -0.081 HD
ENDROOT
BRANCH   3   8
ATOM      8  C   UNL     1     -10.600   3.937   3.590  0.00  0.00    +0.038 A 
ATOM      9  C   UNL     1     -10.569   5.237   4.049  0.00  0.00    +0.026 A 
ATOM     10  C   UNL     1     -11.709   6.034   4.009  0.00  0.00    +0.035 A 
ATOM     11  C   UNL     1     -12.889   5.553   3.528  0.00  0.00    +0.135 A 
ATOM     12  C   UNL     1     -12.964   4.233   3.056  0.00  0.00    +0.032 A 
ATOM     13  C   UNL     1     -11.806   3.413   3.087  0.00  0.00    +0.008 A 
ATOM     14  C   UNL     1     -11.910   2.096   2.609  0.00  0.00    +0.030 A 
ATOM     15  C   UNL     1     -13.114   1.664   2.138  0.00  0.00    +0.111 A 
ATOM     16  N   UNL     1     -14.181   2.451   2.120  0.00  0.00    -0.263 NA
ATOM     17  C   UNL     1     -14.157   3.690   2.550  0.00  0.00    +0.121 A 
BRANCH  11  18
ATOM     18  N   UNL     1     -14.089   6.419   3.502  0.00  0.00    +0.057 N 
ATOM     19  O   UNL     1     -13.980   7.603   3.235  0.00  0.00    -0.126 OA
ATOM     20  O   UNL     1     -15.185   5.949   3.748  0.00  0.00    -0.126 OA
ENDBRANCH  11  18
ENDBRANCH   3   8
BRANCH   6  21
ATOM     21  C   UNL     1      -5.498   1.725   3.191  0.00  0.00    +0.019 C 
BRANCH  21  23
ATOM     22  N   UNL     1      -3.149   1.953   3.933  0.00  0.00    -0.313 N 
ATOM     23  C   UNL     1      -4.365   2.516   3.793  0.00  0.00    +0.197 C 
ATOM     24  O   UNL     1      -4.548   3.660   4.152  0.00  0.00    -0.278 OA
ATOM     25  H   UNL     1      -3.003   1.038   3.645  0.00  0.00    +0.149 HD
BRANCH  22  26
ATOM     26  C   UNL     1      -2.048   2.722   4.518  0.00  0.00    +0.143 C 
BRANCH  26  31
ATOM     27  C   UNL     1       0.705   0.466   5.777  0.00  0.00    +0.001 A 
ATOM     28  C   UNL     1       1.473   0.300   4.639  0.00  0.00    +0.004 A 
ATOM     29  C   UNL     1       1.101   0.913   3.459  0.00  0.00    +0.046 A 
ATOM     30  C   UNL     1      -0.038   1.704   3.418  0.00  0.00    +0.135 A 
ATOM     31  C   UNL     1      -0.807   1.869   4.561  0.00  0.00    +0.012 A 
ATOM     32  C   UNL     1      -0.433   1.249   5.738  0.00  0.00    +0.009 A 
BRANCH  30  33
ATOM     33  O   UNL     1      -0.403   2.313   2.259  0.00  0.00    -0.405 OA
BRANCH  33  34
ATOM     34  C   UNL     1       0.436   2.099   1.122  0.00  0.00    +0.575 C 
ATOM     35  F   UNL     1       0.486   0.732   0.829  0.00  0.00    -0.133 F 
ATOM     36  F   UNL     1       1.726   2.564   1.400  0.00  0.00    -0.133 F 
ATOM     37  F   UNL     1      -0.082   2.793   0.023  0.00  0.00    -0.133 F 
ENDBRANCH  33  34
ENDBRANCH  30  33
ENDBRANCH  26  31
ENDBRANCH  22  26
ENDBRANCH  21  23
ENDBRANCH   6  21
TORSDOF 8
