REMARK  Name = ZINC12098316
REMARK  11 active torsions:
REMARK  status: ('A' for Active; 'I' for Inactive)
REMARK    1  A    between atoms: C_1  and  C_2
REMARK    2  A    between atoms: C_5  and  C_38
REMARK    3  A    between atoms: C_6  and  C_8
REMARK    4  A    between atoms: C_9  and  C_14
REMARK    5  A    between atoms: C_14  and  N_74
REMARK    6  A    between atoms: C_26  and  N_32
REMARK    7  A    between atoms: C_28  and  O_30
REMARK    8  A    between atoms: O_30  and  C_31
REMARK    9  A    between atoms: C_33  and  C_35
REMARK   10  A    between atoms: C_35  and  C_36
REMARK   11  A    between atoms: C_35  and  C_37
REMARK                            x       y       z     vdW  Elec       q    Type
REMARK                         _______ _______ _______ _____ _____    ______ ____
ROOT
ATOM      1  C   UNL     1       1.866   4.196   1.939  0.00  0.00    -0.077 C 
ATOM      2  C   UNL     1       1.839   4.974   3.257  0.00  0.00    -0.005 C 
ATOM      3  C   UNL     1       2.795   6.160   3.163  0.00  0.00    +0.021 C 
ATOM      4  C   UNL     1       2.428   7.042   1.972  0.00  0.00    -0.005 C 
ATOM      5  C   UNL     1       2.436   6.197   0.695  0.00  0.00    -0.077 C 
ATOM      6  C   UNL     1       2.764   6.964   4.441  0.00  0.00    -0.034 A 
ATOM      7  C   UNL     1       1.841   7.887   4.905  0.00  0.00    +0.004 A 
ATOM      8  C   UNL     1       2.029   8.505   6.125  0.00  0.00    +0.000 A 
ATOM      9  C   UNL     1       3.141   8.203   6.888  0.00  0.00    +0.000 A 
ATOM     10  C   UNL     1       4.062   7.283   6.428  0.00  0.00    +0.006 A 
ATOM     11  C   UNL     1       3.877   6.662   5.205  0.00  0.00    -0.021 A 
ATOM     12  C   UNL     1       4.726   5.633   4.489  0.00  0.00    +0.133 C 
ATOM     13  C   UNL     1       4.244   5.660   3.022  0.00  0.00    +0.153 C 
ATOM     14  N   UNL     1       1.456   5.099   0.842  0.00  0.00    +0.383 N 
ATOM     15  H   UNL     1       0.538   5.499   1.066  0.00  0.00    -0.081 HD
ENDROOT
BRANCH  12  16
ATOM     16  N   UNL     1       4.513   4.305   5.069  0.00  0.00    -0.306 N 
ATOM     17  C   UNL     1       5.273   3.891   6.102  0.00  0.00    +0.216 C 
ATOM     18  O   UNL     1       6.134   4.617   6.551  0.00  0.00    -0.276 OA
ATOM     19  H   UNL     1       3.824   3.723   4.710  0.00  0.00    +0.149 HD
BRANCH  17  20
ATOM     20  C   UNL     1       5.054   2.524   6.699  0.00  0.00    +0.069 C 
ATOM     21  C   UNL     1       6.040   2.305   7.847  0.00  0.00    +0.017 C 
ATOM     22  C   UNL     1       3.622   2.423   7.229  0.00  0.00    +0.017 C 
ENDBRANCH  17  20
ENDBRANCH  12  16
BRANCH  13  23
ATOM     23  O   UNL     1       5.023   6.574   2.247  0.00  0.00    -0.377 OA
ATOM     24  C   UNL     1       6.080   5.955   1.510  0.00  0.00    +0.194 C 
ENDBRANCH  13  23
BRANCH  14  25
ATOM     25  C   UNL     1       1.354   4.342  -0.423  0.00  0.00    -0.039 C 
BRANCH  25  27
ATOM     26  C   UNL     1      -0.830   2.980  -0.064  0.00  0.00    +0.094 A 
ATOM     27  C   UNL     1       0.570   3.078  -0.179  0.00  0.00    -0.019 A 
ATOM     28  C   UNL     1       1.086   1.838  -0.033  0.00  0.00    +0.107 A 
ATOM     29  N   UNL     1       0.061   0.982   0.167  0.00  0.00    -0.284 N 
ATOM     30  H   UNL     1       0.141  -0.005   0.311  0.00  0.00    +0.188 HD
ATOM     31  N   UNL     1      -1.132   1.715   0.138  0.00  0.00    -0.174 NA
BRANCH  26  37
ATOM     32  C   UNL     1      -2.264   7.573   1.270  0.00  0.00    +0.044 C 
ATOM     33  C   UNL     1      -2.487   6.311   0.477  0.00  0.00    -0.050 A 
ATOM     34  C   UNL     1      -3.595   6.199  -0.344  0.00  0.00    +0.003 A 
ATOM     35  C   UNL     1      -3.806   5.043  -1.074  0.00  0.00    +0.004 A 
ATOM     36  C   UNL     1      -2.909   3.997  -0.991  0.00  0.00    -0.041 A 
ATOM     37  C   UNL     1      -1.795   4.103  -0.162  0.00  0.00    +0.005 A 
ATOM     38  C   UNL     1      -1.587   5.269   0.572  0.00  0.00    +0.013 A 
ATOM     39  C   UNL     1      -3.138   2.741  -1.792  0.00  0.00    +0.044 C 
ENDBRANCH  26  37
ENDBRANCH  25  27
ENDBRANCH  14  25
TORSDOF 6
