REMARK  Name = ZINC03655522
REMARK  8 active torsions:
REMARK  status: ('A' for Active; 'I' for Inactive)
REMARK    1  A    between atoms: C_1  and  C_2
REMARK    2  A    between atoms: C_4  and  C_31
REMARK    3  A    between atoms: C_6  and  O_8
REMARK    4  A    between atoms: O_8  and  C_9
REMARK    5  A    between atoms: C_9  and  C_10
REMARK    6  A    between atoms: N_12  and  C_13
REMARK    7  A    between atoms: C_21  and  C_22
REMARK    8  A    between atoms: C_22  and  C_24
REMARK                            x       y       z     vdW  Elec       q    Type
REMARK                         _______ _______ _______ _____ _____    ______ ____
ROOT
ATOM      1  C   UNL     1       6.255   6.042  -0.088  0.00  0.00    +0.091 A 
ATOM      2  C   UNL     1       6.605   7.431   0.234  0.00  0.00    +0.042 A 
ATOM      3  C   UNL     1       5.881   8.529   0.701  0.00  0.00    +0.013 A 
ATOM      4  C   UNL     1       6.518   9.719   0.916  0.00  0.00    +0.001 A 
ATOM      5  C   UNL     1       7.880   9.839   0.679  0.00  0.00    +0.004 A 
ATOM      6  C   UNL     1       8.613   8.765   0.223  0.00  0.00    +0.047 A 
ATOM      7  C   UNL     1       7.986   7.544  -0.003  0.00  0.00    +0.138 A 
ATOM      8  O   UNL     1       8.435   6.349  -0.436  0.00  0.00    -0.450 OA
ATOM      9  C   UNL     1       7.432   5.445  -0.495  0.00  0.00    +0.197 A 
ENDROOT
BRANCH   1  12
ATOM     10  C   UNL     1       4.086   5.933   0.861  0.00  0.00    +0.255 C 
ATOM     11  O   UNL     1       4.381   6.835   1.615  0.00  0.00    -0.272 OA
ATOM     12  N   UNL     1       5.001   5.453  -0.006  0.00  0.00    -0.279 N 
ATOM     13  H   UNL     1       4.782   4.697  -0.572  0.00  0.00    +0.155 HD
BRANCH  10  14
ATOM     14  C   UNL     1       2.698   5.348   0.891  0.00  0.00    +0.324 C 
BRANCH  14  15
ATOM     15  O   UNL     1       1.920   6.018   1.885  0.00  0.00    -0.483 OA
BRANCH  15  21
ATOM     16  C   UNL     1      -1.722   3.048   0.569  0.00  0.00    +0.044 C 
ATOM     17  C   UNL     1      -1.177   4.167   1.418  0.00  0.00    -0.047 A 
ATOM     18  C   UNL     1      -1.984   4.774   2.363  0.00  0.00    +0.007 A 
ATOM     19  C   UNL     1      -1.485   5.797   3.147  0.00  0.00    -0.047 A 
ATOM     20  C   UNL     1      -0.178   6.216   2.989  0.00  0.00    +0.049 A 
ATOM     21  C   UNL     1       0.634   5.608   2.042  0.00  0.00    +0.122 A 
ATOM     22  C   UNL     1       0.131   4.582   1.256  0.00  0.00    +0.049 A 
ATOM     23  C   UNL     1      -2.368   6.457   4.175  0.00  0.00    +0.044 C 
ENDBRANCH  15  21
ENDBRANCH  14  15
ENDBRANCH  10  14
ENDBRANCH   1  12
BRANCH   9  24
ATOM     24  C   UNL     1       7.567   4.097  -0.908  0.00  0.00    +0.230 C 
ATOM     25  O   UNL     1       6.580   3.390  -1.014  0.00  0.00    -0.283 OA
BRANCH  24  26
ATOM     26  C   UNL     1       8.906   3.547  -1.212  0.00  0.00    +0.026 A 
ATOM     27  C   UNL     1      10.021   4.386  -1.226  0.00  0.00    +0.013 A 
ATOM     28  C   UNL     1      11.268   3.867  -1.506  0.00  0.00    +0.016 A 
ATOM     29  C   UNL     1      11.413   2.518  -1.782  0.00  0.00    +0.018 A 
ATOM     30  C   UNL     1      10.309   1.681  -1.775  0.00  0.00    +0.016 A 
ATOM     31  C   UNL     1       9.058   2.188  -1.492  0.00  0.00    +0.013 A 
ATOM     32 BR   UNL     1      13.125   1.815  -2.171  0.00  0.00    -0.050 Br
ENDBRANCH  24  26
ENDBRANCH   9  24
TORSDOF 6
