REMARK  Name = ZINC39883378
REMARK  9 active torsions:
REMARK  status: ('A' for Active; 'I' for Inactive)
REMARK    1  A    between atoms: C_1  and  C_2
REMARK    2  A    between atoms: C_2  and  C_3
REMARK    3  A    between atoms: C_3  and  O_4
REMARK    4  A    between atoms: O_4  and  C_5
REMARK    5  A    between atoms: C_8  and  C_11
REMARK    6  A    between atoms: C_11  and  N_12
REMARK    7  A    between atoms: N_12  and  C_13
REMARK    8  A    between atoms: C_21  and  C_23
REMARK    9  A    between atoms: C_23  and  C_24
REMARK                            x       y       z     vdW  Elec       q    Type
REMARK                         _______ _______ _______ _____ _____    ______ ____
ROOT
ATOM      1  N   UNL     1      -6.857  -4.718  -1.295  0.00  0.00    -0.292 N 
ATOM      2  C   UNL     1      -7.470  -3.798  -2.066  0.00  0.00    +0.221 C 
ATOM      3  O   UNL     1      -7.867  -2.763  -1.575  0.00  0.00    -0.275 OA
ENDROOT
BRANCH   1   4
ATOM      4  C   UNL     1      -6.478  -6.014  -1.863  0.00  0.00    +0.099 C 
ATOM      5  C   UNL     1      -5.658  -6.804  -0.830  0.00  0.00    +0.046 C 
ATOM      6  C   UNL     1      -5.540  -8.274  -1.327  0.00  0.00    +0.168 C 
ATOM      7  S   UNL     1      -7.244  -8.550  -1.970  0.00  0.00    -0.029 S 
ATOM      8  O   UNL     1      -8.043  -9.112  -0.938  0.00  0.00    -0.174 OA
ATOM      9  O   UNL     1      -7.162  -9.207  -3.228  0.00  0.00    -0.174 OA
ATOM     10  C   UNL     1      -7.755  -6.804  -2.237  0.00  0.00    +0.188 C 
ENDBRANCH   1   4
BRANCH   1  11
ATOM     11  C   UNL     1      -6.570  -4.423   0.111  0.00  0.00    +0.143 C 
BRANCH  11  15
ATOM     12  C   UNL     1      -2.890  -2.268   0.391  0.00  0.00    +0.121 A 
ATOM     13  C   UNL     1      -4.071  -1.593   0.115  0.00  0.00    +0.046 A 
ATOM     14  C   UNL     1      -5.259  -2.292   0.025  0.00  0.00    +0.009 A 
ATOM     15  C   UNL     1      -5.272  -3.663   0.209  0.00  0.00    -0.030 A 
ATOM     16  C   UNL     1      -4.097  -4.337   0.484  0.00  0.00    +0.009 A 
ATOM     17  C   UNL     1      -2.905  -3.643   0.569  0.00  0.00    +0.046 A 
BRANCH  12  18
ATOM     18  O   UNL     1      -1.720  -1.582   0.479  0.00  0.00    -0.492 OA
BRANCH  18  19
ATOM     19  C   UNL     1      -1.780  -0.168   0.284  0.00  0.00    +0.229 C 
BRANCH  19  21
ATOM     20  C   UNL     1      -0.441   1.940   0.212  0.00  0.00    +0.007 C 
ATOM     21  C   UNL     1      -0.377   0.426   0.421  0.00  0.00    +0.038 C 
ENDBRANCH  19  21
ENDBRANCH  18  19
ENDBRANCH  12  18
ENDBRANCH  11  15
ENDBRANCH   1  11
BRANCH   2  22
ATOM     22  C   UNL     1      -7.662  -4.055  -3.538  0.00  0.00    +0.134 C 
BRANCH  22  23
ATOM     23  C   UNL     1      -8.228  -2.822  -4.194  0.00  0.00    +0.007 A 
ATOM     24  C   UNL     1      -9.520  -2.558  -4.431  0.00  0.00    +0.200 A 
ATOM     25  O   UNL     1      -9.646  -1.362  -5.032  0.00  0.00    -0.463 OA
ATOM     26  C   UNL     1      -8.440  -0.787  -5.217  0.00  0.00    +0.135 A 
ATOM     27  C   UNL     1      -7.476  -1.666  -4.696  0.00  0.00    +0.025 A 
ATOM     28  C   UNL     1      -6.124  -1.329  -4.743  0.00  0.00    +0.027 A 
ATOM     29  C   UNL     1      -5.740  -0.128  -5.300  0.00  0.00    +0.019 A 
ATOM     30  C   UNL     1      -6.694   0.742  -5.811  0.00  0.00    +0.019 A 
ATOM     31  C   UNL     1      -8.033   0.416  -5.778  0.00  0.00    +0.048 A 
ATOM     32 BR   UNL     1      -3.909   0.337  -5.368  0.00  0.00    -0.050 Br
ENDBRANCH  22  23
ENDBRANCH   2  22
TORSDOF 8
