REMARK  Name = ZINC60059993
REMARK  8 active torsions:
REMARK  status: ('A' for Active; 'I' for Inactive)
REMARK    1  A    between atoms: C_1  and  O_2
REMARK    2  A    between atoms: O_2  and  C_3
REMARK    3  A    between atoms: C_5  and  N_16
REMARK    4  A    between atoms: C_6  and  C_13
REMARK    5  A    between atoms: C_8  and  O_9
REMARK    6  A    between atoms: O_9  and  C_10
REMARK    7  A    between atoms: N_16  and  S_17
REMARK    8  A    between atoms: S_17  and  C_20
REMARK                            x       y       z     vdW  Elec       q    Type
REMARK                         _______ _______ _______ _____ _____    ______ ____
ROOT
ATOM      1  C   UNL     1       0.625  -0.618   1.040  0.00  0.00    +0.164 A 
ATOM      2  C   UNL     1       1.199   0.142   2.046  0.00  0.00    +0.077 A 
ATOM      3  C   UNL     1       1.837  -0.479   3.109  0.00  0.00    +0.092 A 
ATOM      4  C   UNL     1       1.899  -1.883   3.162  0.00  0.00    +0.091 A 
ATOM      5  C   UNL     1       1.315  -2.643   2.139  0.00  0.00    +0.066 A 
ATOM      6  C   UNL     1       0.679  -2.012   1.092  0.00  0.00    +0.169 A 
ENDROOT
BRANCH   4   7
ATOM      7  C   UNL     1       2.572  -2.550   4.283  0.00  0.00    +0.389 C 
ATOM      8  O   UNL     1       2.624  -3.772   4.327  0.00  0.00    -0.241 OA
ATOM      9  O   UNL     1       3.081  -1.883   5.175  0.00  0.00    -0.241 OA
ENDBRANCH   4   7
BRANCH   1  11
ATOM     10  C   UNL     1      -0.017   1.425   0.010  0.00  0.00    +0.277 C 
ATOM     11  O   UNL     1       0.002  -0.004   0.002  0.00  0.00    -0.491 OA
ENDBRANCH   1  11
BRANCH   6  12
ATOM     12  O   UNL     1       0.107  -2.751   0.103  0.00  0.00    -0.430 OA
BRANCH  12  13
ATOM     13  C   UNL     1       0.199  -4.172   0.218  0.00  0.00    +0.541 C 
ATOM     14  F   UNL     1       1.545  -4.552   0.240  0.00  0.00    -0.166 F 
ATOM     15  F   UNL     1      -0.422  -4.585   1.401  0.00  0.00    -0.166 F 
ENDBRANCH  12  13
ENDBRANCH   6  12
BRANCH   3  16
ATOM     16  N   UNL     1       2.413   0.282   4.118  0.00  0.00    -0.097 NA
BRANCH  16  17
ATOM     17  S   UNL     1       2.340   1.935   4.052  0.00  0.00    +0.093 S 
ATOM     18  O   UNL     1       3.117   2.333   2.931  0.00  0.00    -0.148 OA
ATOM     19  O   UNL     1       0.970   2.287   4.192  0.00  0.00    -0.148 OA
BRANCH  17  20
ATOM     20  C   UNL     1       3.166   2.551   5.482  0.00  0.00    +0.124 A 
ATOM     21  C   UNL     1       4.326   3.291   5.345  0.00  0.00    +0.030 A 
ATOM     22  C   UNL     1       4.974   3.775   6.466  0.00  0.00    +0.002 A 
ATOM     23  C   UNL     1       4.463   3.518   7.724  0.00  0.00    +0.001 A 
ATOM     24  C   UNL     1       3.304   2.778   7.862  0.00  0.00    +0.017 A 
ATOM     25  C   UNL     1       2.652   2.299   6.740  0.00  0.00    +0.045 A 
ATOM     26 BR   UNL     1       1.062   1.292   6.928  0.00  0.00    -0.048 Br
ENDBRANCH  17  20
ENDBRANCH  16  17
ENDBRANCH   3  16
TORSDOF 7
