REMARK  Name = ZINC08869898
REMARK  4 active torsions:
REMARK  status: ('A' for Active; 'I' for Inactive)
REMARK    1  A    between atoms: C_4  and  C_7
REMARK    2  A    between atoms: C_9  and  C_33
REMARK    3  A    between atoms: C_14  and  C_16
REMARK    4  A    between atoms: C_23  and  N_74
REMARK                            x       y       z     vdW  Elec       q    Type
REMARK                         _______ _______ _______ _____ _____    ______ ____
ROOT
ATOM      1  C   UNL     1       1.192   1.804  -0.017  0.00  0.00    +0.075 A 
ATOM      2  C   UNL     1       0.013   1.101  -0.336  0.00  0.00    +0.056 A 
ATOM      3  C   UNL     1      -1.163   1.787  -0.449  0.00  0.00    +0.077 A 
ATOM      4  N   UNL     1      -1.165   3.147  -0.237  0.00  0.00    -0.213 N 
ATOM      5  C   UNL     1       0.007   3.792   0.073  0.00  0.00    +0.157 A 
ATOM      6  N   UNL     1       1.155   3.111   0.176  0.00  0.00    -0.228 NA
ATOM      7  C   UNL     1      -0.295   5.138   0.223  0.00  0.00    +0.083 A 
ATOM      8  C   UNL     1      -1.668   5.290  -0.001  0.00  0.00    +0.150 A 
ATOM      9  N   UNL     1      -2.186   4.104  -0.275  0.00  0.00    -0.160 NA
ENDROOT
BRANCH   8  10
ATOM     10  C   UNL     1      -2.415   6.565   0.057  0.00  0.00    +0.267 C 
ATOM     11  O   UNL     1      -1.816   7.615   0.186  0.00  0.00    -0.268 OA
ATOM     12  N   UNL     1      -3.760   6.563  -0.032  0.00  0.00    -0.300 N 
ATOM     13  C   UNL     1      -4.514   5.300  -0.040  0.00  0.00    +0.089 C 
ATOM     14  C   UNL     1      -5.618   5.392   1.025  0.00  0.00    -0.059 C 
ATOM     15  C   UNL     1      -5.616   7.815   0.931  0.00  0.00    -0.059 C 
ATOM     16  C   UNL     1      -4.512   7.823  -0.131  0.00  0.00    +0.089 C 
ATOM     17  N   UNL     1      -6.435   6.596   0.756  0.00  0.00    +0.385 N 
ATOM     18  H   UNL     1      -6.774   6.558  -0.212  0.00  0.00    -0.081 HD
BRANCH  17  19
ATOM     19  C   UNL     1      -7.595   6.632   1.670  0.00  0.00    -0.065 C 
ATOM     20  C   UNL     1      -7.133   6.742   3.124  0.00  0.00    -0.009 C 
ATOM     21  C   UNL     1      -8.353   6.779   4.046  0.00  0.00    -0.012 C 
ATOM     22  C   UNL     1      -9.167   5.496   3.866  0.00  0.00    +0.007 C 
ATOM     23  C   UNL     1      -9.630   5.386   2.411  0.00  0.00    -0.012 C 
ATOM     24  C   UNL     1      -8.410   5.349   1.489  0.00  0.00    -0.009 C 
ATOM     25  C   UNL     1     -10.499   6.595   2.060  0.00  0.00    +0.007 C 
ATOM     26  C   UNL     1      -9.685   7.878   2.240  0.00  0.00    -0.012 C 
ATOM     27  C   UNL     1      -9.222   7.988   3.694  0.00  0.00    +0.007 C 
ATOM     28  C   UNL     1      -8.464   7.841   1.318  0.00  0.00    -0.009 C 
ENDBRANCH  17  19
ENDBRANCH   8  10
BRANCH   1  32
ATOM     29  C   UNL     1       4.878  -0.285   0.331  0.00  0.00    +0.000 A 
ATOM     30  C   UNL     1       4.840   1.084   0.531  0.00  0.00    +0.001 A 
ATOM     31  C   UNL     1       3.646   1.767   0.420  0.00  0.00    +0.010 A 
ATOM     32  C   UNL     1       2.477   1.076   0.104  0.00  0.00    +0.000 A 
ATOM     33  C   UNL     1       2.521  -0.304  -0.092  0.00  0.00    +0.010 A 
ATOM     34  C   UNL     1       3.721  -0.976   0.017  0.00  0.00    +0.001 A 
ENDBRANCH   1  32
BRANCH   3  35
ATOM     35  C   UNL     1      -2.414   1.079  -0.788  0.00  0.00    +0.001 A 
ATOM     36  C   UNL     1      -3.592   1.798  -0.998  0.00  0.00    +0.010 A 
ATOM     37  C   UNL     1      -4.756   1.131  -1.320  0.00  0.00    +0.001 A 
ATOM     38  C   UNL     1      -4.760  -0.249  -1.423  0.00  0.00    +0.000 A 
ATOM     39  C   UNL     1      -3.598  -0.968  -1.211  0.00  0.00    +0.001 A 
ATOM     40  C   UNL     1      -2.425  -0.314  -0.894  0.00  0.00    +0.010 A 
ENDBRANCH   3  35
TORSDOF 4
