REMARK  Name = ZINC03301579
REMARK  10 active torsions:
REMARK  status: ('A' for Active; 'I' for Inactive)
REMARK    1  A    between atoms: C_1  and  C_2
REMARK    2  A    between atoms: C_4  and  C_36
REMARK    3  A    between atoms: C_6  and  N_8
REMARK    4  A    between atoms: C_9  and  C_29
REMARK    5  A    between atoms: C_12  and  S_13
REMARK    6  A    between atoms: S_13  and  C_14
REMARK    7  A    between atoms: C_14  and  C_15
REMARK    8  A    between atoms: N_17  and  C_18
REMARK    9  A    between atoms: C_23  and  C_28
REMARK   10  A    between atoms: C_25  and  C_27
REMARK                            x       y       z     vdW  Elec       q    Type
REMARK                         _______ _______ _______ _____ _____    ______ ____
ROOT
ATOM      1  N   UNL     1       0.030  -2.832   2.377  0.00  0.00    -0.270 N 
ATOM      2  C   UNL     1      -0.897  -2.764   3.394  0.00  0.00    +0.169 A 
ATOM      3  N   UNL     1      -0.468  -3.544   4.358  0.00  0.00    -0.128 NA
ATOM      4  N   UNL     1       0.646  -4.088   4.021  0.00  0.00    -0.122 NA
ATOM      5  C   UNL     1       0.997  -3.693   2.818  0.00  0.00    +0.197 A 
ENDROOT
BRANCH   1  11
ATOM      6  C   UNL     1       0.254   1.370  -0.169  0.00  0.00    +0.044 C 
ATOM      7  C   UNL     1       0.094  -0.127  -0.117  0.00  0.00    -0.048 A 
ATOM      8  C   UNL     1      -0.094  -0.843  -1.285  0.00  0.00    +0.006 A 
ATOM      9  C   UNL     1      -0.242  -2.217  -1.241  0.00  0.00    -0.048 A 
ATOM     10  C   UNL     1      -0.201  -2.879  -0.029  0.00  0.00    +0.029 A 
ATOM     11  C   UNL     1      -0.011  -2.163   1.145  0.00  0.00    +0.051 A 
ATOM     12  C   UNL     1       0.141  -0.784   1.097  0.00  0.00    +0.029 A 
ATOM     13  C   UNL     1      -0.448  -2.994  -2.516  0.00  0.00    +0.044 C 
ENDBRANCH   1  11
BRANCH   2  14
ATOM     14  C   UNL     1      -2.139  -1.962   3.398  0.00  0.00    +0.020 A 
ATOM     15  C   UNL     1      -2.666  -1.480   2.199  0.00  0.00    +0.012 A 
ATOM     16  C   UNL     1      -3.826  -0.733   2.209  0.00  0.00    +0.016 A 
ATOM     17  C   UNL     1      -4.467  -0.462   3.406  0.00  0.00    +0.018 A 
ATOM     18  C   UNL     1      -3.949  -0.937   4.599  0.00  0.00    +0.016 A 
ATOM     19  C   UNL     1      -2.793  -1.690   4.601  0.00  0.00    +0.012 A 
ATOM     20 BR   UNL     1      -6.056   0.563   3.412  0.00  0.00    -0.050 Br
ENDBRANCH   2  14
BRANCH   5  21
ATOM     21  S   UNL     1       2.444  -4.180   1.938  0.00  0.00    -0.076 S 
BRANCH  21  22
ATOM     22  C   UNL     1       3.284  -5.320   3.072  0.00  0.00    +0.173 C 
BRANCH  22  23
ATOM     23  C   UNL     1       4.555  -5.818   2.433  0.00  0.00    +0.224 C 
ATOM     24  O   UNL     1       4.864  -5.441   1.323  0.00  0.00    -0.275 OA
ATOM     25  N   UNL     1       5.349  -6.682   3.097  0.00  0.00    -0.312 N 
ATOM     26  H   UNL     1       5.102  -6.984   3.985  0.00  0.00    +0.149 HD
BRANCH  25  27
ATOM     27  C   UNL     1       6.585  -7.166   2.476  0.00  0.00    +0.076 C 
ATOM     28  C   UNL     1       6.270  -8.368   1.583  0.00  0.00    +0.022 C 
ATOM     29  C   UNL     1       7.561  -8.873   0.935  0.00  0.00    +0.002 C 
ATOM     30  C   UNL     1       8.549  -9.293   2.025  0.00  0.00    +0.003 C 
ATOM     31  C   UNL     1       8.863  -8.091   2.918  0.00  0.00    -0.009 C 
ATOM     32  C   UNL     1       7.573  -7.585   3.566  0.00  0.00    +0.009 C 
ATOM     33  C   UNL     1       6.956  -8.701   4.412  0.00  0.00    +0.009 C 
ATOM     34  C   UNL     1       9.851  -8.510   4.008  0.00  0.00    +0.008 C 
ENDBRANCH  25  27
ENDBRANCH  22  23
ENDBRANCH  21  22
ENDBRANCH   5  21
TORSDOF 6
