REMARK  Name = ZINC08780386
REMARK  9 active torsions:
REMARK  status: ('A' for Active; 'I' for Inactive)
REMARK    1  A    between atoms: C_1  and  C_2
REMARK    2  A    between atoms: C_2  and  C_3
REMARK    3  A    between atoms: C_3  and  N_4
REMARK    4  A    between atoms: C_5  and  C_7
REMARK    5  A    between atoms: C_7  and  N_60
REMARK    6  A    between atoms: C_13  and  C_15
REMARK    7  A    between atoms: C_16  and  N_26
REMARK    8  A    between atoms: C_18  and  C_25
REMARK    9  A    between atoms: C_20  and  C_24
REMARK                            x       y       z     vdW  Elec       q    Type
REMARK                         _______ _______ _______ _____ _____    ______ ____
ROOT
ATOM      1  C   UNL     1      -4.624   2.610   0.879  0.00  0.00    -0.059 C 
ATOM      2  C   UNL     1      -3.599   3.040  -0.177  0.00  0.00    +0.089 C 
ATOM      3  N   UNL     1      -2.426   2.158  -0.075  0.00  0.00    -0.301 N 
ATOM      4  C   UNL     1      -2.646   0.704  -0.090  0.00  0.00    +0.089 C 
ATOM      5  C   UNL     1      -3.708   0.366   0.968  0.00  0.00    -0.059 C 
ATOM      6  C   UNL     1      -1.183   2.670   0.022  0.00  0.00    +0.255 C 
ATOM      7  O   UNL     1      -1.026   3.872   0.133  0.00  0.00    -0.269 OA
ATOM      8  N   UNL     1      -4.918   1.172   0.697  0.00  0.00    +0.387 N 
ATOM      9  H   UNL     1      -5.213   1.013  -0.274  0.00  0.00    -0.081 HD
ENDROOT
BRANCH   6  10
ATOM     10  C   UNL     1      -0.021   1.779  -0.004  0.00  0.00    +0.100 A 
ATOM     11  C   UNL     1       1.163   1.903   0.683  0.00  0.00    +0.075 A 
ATOM     12  C   UNL     1       2.184   0.886   0.489  0.00  0.00    +0.035 A 
ATOM     13  C   UNL     1       3.470   0.798   1.080  0.00  0.00    -0.037 A 
ATOM     14  C   UNL     1       4.279  -0.252   0.755  0.00  0.00    +0.027 A 
ATOM     15  C   UNL     1       3.851  -1.221  -0.141  0.00  0.00    +0.040 A 
ATOM     16  N   UNL     1       2.655  -1.141  -0.691  0.00  0.00    -0.245 NA
ATOM     17  C   UNL     1       1.839  -0.148  -0.410  0.00  0.00    +0.111 A 
ATOM     18  S   UNL     1       0.200   0.280  -0.942  0.00  0.00    -0.062 S 
ATOM     19  C   UNL     1       4.759  -2.373  -0.486  0.00  0.00    +0.065 C 
ATOM     20  C   UNL     1       3.938   1.850   2.052  0.00  0.00    +0.044 C 
BRANCH  11  21
ATOM     21  N   UNL     1       1.380   2.978   1.546  0.00  0.00    -0.321 N 
ATOM     22  C   UNL     1       2.321   3.956   1.380  0.00  0.00    +0.091 A 
ATOM     23  C   UNL     1       2.220   4.816   2.413  0.00  0.00    +0.019 A 
ATOM     24  C   UNL     1       1.188   4.351   3.253  0.00  0.00    +0.019 A 
ATOM     25  C   UNL     1       0.691   3.226   2.699  0.00  0.00    +0.091 A 
ENDBRANCH  11  21
ENDBRANCH   6  10
BRANCH   8  26
ATOM     26  C   UNL     1      -6.011   0.762   1.603  0.00  0.00    +0.019 C 
BRANCH  26  28
ATOM     27  N   UNL     1      -7.440  -1.231   1.925  0.00  0.00    -0.317 N 
ATOM     28  C   UNL     1      -6.437  -0.638   1.247  0.00  0.00    +0.196 C 
ATOM     29  O   UNL     1      -5.878  -1.233   0.349  0.00  0.00    -0.278 OA
ATOM     30  H   UNL     1      -7.887  -0.756   2.643  0.00  0.00    +0.149 HD
BRANCH  27  31
ATOM     31  C   UNL     1      -7.854  -2.593   1.578  0.00  0.00    +0.104 C 
BRANCH  31  33
ATOM     32  C   UNL     1      -9.435  -4.447   2.131  0.00  0.00    +0.005 C 
ATOM     33  C   UNL     1      -9.002  -3.025   2.493  0.00  0.00    +0.015 C 
ENDBRANCH  31  33
ENDBRANCH  27  31
ENDBRANCH  26  28
ENDBRANCH   8  26
TORSDOF 6
