REMARK  Name = ZINC00883235
REMARK  7 active torsions:
REMARK  status: ('A' for Active; 'I' for Inactive)
REMARK    1  A    between atoms: C_1  and  C_2
REMARK    2  A    between atoms: C_3  and  C_24
REMARK    3  A    between atoms: C_4  and  C_14
REMARK    4  A    between atoms: C_24  and  O_26
REMARK    5  A    between atoms: O_26  and  C_27
REMARK    6  A    between atoms: C_27  and  C_28
REMARK    7  A    between atoms: C_28  and  C_29
REMARK                            x       y       z     vdW  Elec       q    Type
REMARK                         _______ _______ _______ _____ _____    ______ ____
ROOT
ATOM      1  C   UNL     1       3.762  -0.355  -0.770  0.00  0.00    +0.061 C 
ATOM      2  C   UNL     1       2.432   0.235  -0.379  0.00  0.00    +0.016 C 
ATOM      3  C   UNL     1       1.300  -0.444  -0.633  0.00  0.00    +0.065 C 
ATOM      4  C   UNL     1      -0.042   0.107  -0.249  0.00  0.00    +0.094 C 
ATOM      5  C   UNL     1       0.037   1.591   0.012  0.00  0.00    +0.024 C 
ATOM      6  C   UNL     1       1.226   2.188   0.237  0.00  0.00    +0.015 C 
ATOM      7  N   UNL     1       2.384   1.457   0.232  0.00  0.00    -0.321 N 
ATOM      8  C   UNL     1       1.314   3.672   0.494  0.00  0.00    +0.051 C 
ATOM      9  C   UNL     1       0.035   4.151   1.185  0.00  0.00    +0.014 C 
ATOM     10  C   UNL     1      -1.159   3.809   0.287  0.00  0.00    +0.080 C 
ATOM     11  C   UNL     1      -1.159   2.329   0.020  0.00  0.00    +0.162 C 
ATOM     12  O   UNL     1      -2.212   1.762  -0.197  0.00  0.00    -0.292 OA
ATOM     13  H   UNL     1       3.280   1.861   0.726  0.00  0.00    +0.152 HD
ENDROOT
BRANCH   4  14
ATOM     14  C   UNL     1      -0.526  -0.589   0.996  0.00  0.00    -0.013 A 
ATOM     15  C   UNL     1       0.203  -0.494   2.167  0.00  0.00    +0.055 A 
ATOM     16  C   UNL     1      -0.242  -1.129   3.315  0.00  0.00    +0.167 A 
ATOM     17  C   UNL     1      -1.420  -1.872   3.283  0.00  0.00    +0.168 A 
ATOM     18  C   UNL     1      -2.143  -1.968   2.106  0.00  0.00    +0.069 A 
ATOM     19  C   UNL     1      -1.695  -1.327   0.964  0.00  0.00    +0.049 A 
ATOM     20 CL   UNL     1      -2.603  -1.449  -0.511  0.00  0.00    -0.083 Cl
ATOM     21  O   UNL     1      -1.638  -2.398   4.524  0.00  0.00    -0.453 OA
ATOM     22  C   UNL     1      -0.803  -1.636   5.416  0.00  0.00    +0.466 C 
ATOM     23  O   UNL     1       0.278  -1.189   4.576  0.00  0.00    -0.453 OA
ENDBRANCH   4  14
BRANCH   3  24
ATOM     24  C   UNL     1       1.375  -1.703  -1.274  0.00  0.00    +0.338 C 
ATOM     25  O   UNL     1       2.441  -2.106  -1.699  0.00  0.00    -0.245 OA
BRANCH  24  26
ATOM     26  O   UNL     1       0.264  -2.456  -1.413  0.00  0.00    -0.461 OA
BRANCH  26  27
ATOM     27  C   UNL     1       0.413  -3.716  -2.071  0.00  0.00    +0.237 C 
BRANCH  27  28
ATOM     28  C   UNL     1      -0.943  -4.422  -2.135  0.00  0.00    +0.076 C 
BRANCH  28  29
ATOM     29  C   UNL     1      -0.786  -5.751  -2.828  0.00  0.00    -0.044 A 
ATOM     30  C   UNL     1      -0.942  -5.838  -4.199  0.00  0.00    +0.004 A 
ATOM     31  C   UNL     1      -0.793  -7.056  -4.835  0.00  0.00    +0.000 A 
ATOM     32  C   UNL     1      -0.498  -8.188  -4.100  0.00  0.00    +0.000 A 
ATOM     33  C   UNL     1      -0.348  -8.102  -2.729  0.00  0.00    +0.000 A 
ATOM     34  C   UNL     1      -0.491  -6.883  -2.093  0.00  0.00    +0.004 A 
ENDBRANCH  28  29
ENDBRANCH  27  28
ENDBRANCH  26  27
ENDBRANCH  24  26
ENDBRANCH   3  24
TORSDOF 6
