REMARK  Name = ZINC16009845
REMARK  4 active torsions:
REMARK  status: ('A' for Active; 'I' for Inactive)
REMARK    1  A    between atoms: C_1  and  C_2
REMARK    2  A    between atoms: C_7  and  C_8
REMARK    3  A    between atoms: N_24  and  C_27
REMARK    4  A    between atoms: C_31  and  N_33
REMARK                            x       y       z     vdW  Elec       q    Type
REMARK                         _______ _______ _______ _____ _____    ______ ____
ROOT
ATOM      1  C   UNL     1       6.868   1.135   4.825  0.00  0.00    +0.044 C 
ATOM      2  C   UNL     1       6.543   2.063   3.683  0.00  0.00    -0.046 A 
ATOM      3  C   UNL     1       5.489   2.951   3.795  0.00  0.00    +0.004 A 
ATOM      4  C   UNL     1       5.190   3.801   2.745  0.00  0.00    +0.005 A 
ATOM      5  C   UNL     1       5.939   3.763   1.590  0.00  0.00    -0.027 A 
ATOM      6  C   UNL     1       7.006   2.878   1.469  0.00  0.00    +0.039 A 
ATOM      7  C   UNL     1       7.300   2.025   2.530  0.00  0.00    -0.026 A 
ATOM      8  C   UNL     1       8.448   1.055   2.418  0.00  0.00    +0.046 C 
ATOM      9  N   UNL     1       7.622   3.030   0.225  0.00  0.00    -0.286 N 
ATOM     10  C   UNL     1       7.030   3.983  -0.520  0.00  0.00    +0.212 C 
ATOM     11  O   UNL     1       7.355   4.336  -1.634  0.00  0.00    -0.277 OA
ATOM     12  C   UNL     1       5.888   4.527   0.296  0.00  0.00    +0.053 C 
ATOM     13  C   UNL     1       4.558   4.381  -0.418  0.00  0.00    +0.089 C 
ATOM     14  C   UNL     1       3.801   5.563   0.309  0.00  0.00    +0.074 C 
ATOM     15  C   UNL     1       4.773   6.666   0.199  0.00  0.00    -0.054 C 
ATOM     16  C   UNL     1       7.111   6.497  -0.368  0.00  0.00    -0.076 C 
ATOM     17  C   UNL     1       6.451   7.542  -1.287  0.00  0.00    -0.020 C 
ATOM     18  C   UNL     1       4.958   7.130  -1.263  0.00  0.00    -0.016 C 
ATOM     19  C   UNL     1       2.425   5.261   0.007  0.00  0.00    +0.228 C 
ATOM     20  O   UNL     1       1.523   6.045  -0.196  0.00  0.00    -0.275 OA
ATOM     21  N   UNL     1       2.358   3.889   0.000  0.00  0.00    -0.210 N 
ATOM     22  C   UNL     1       3.591   3.301  -0.008  0.00  0.00    +0.229 C 
ATOM     23  O   UNL     1       3.852   2.147   0.257  0.00  0.00    -0.275 OA
ATOM     24  H   UNL     1       8.386   2.510  -0.068  0.00  0.00    +0.155 HD
ATOM     25  N   UNL     1       6.062   5.980   0.525  0.00  0.00    +0.395 N 
ATOM     26  H   UNL     1       6.319   6.154   1.504  0.00  0.00    -0.079 HD
ENDROOT
BRANCH  21  27
ATOM     27  C   UNL     1       1.155   3.170   0.008  0.00  0.00    +0.046 A 
ATOM     28  C   UNL     1       1.174   1.782   0.000  0.00  0.00    +0.025 A 
ATOM     29  C   UNL     1      -0.013   1.076   0.008  0.00  0.00    +0.024 A 
ATOM     30  C   UNL     1      -1.221   1.751   0.017  0.00  0.00    +0.071 A 
ATOM     31  C   UNL     1      -1.243   3.134   0.030  0.00  0.00    +0.146 A 
ATOM     32  C   UNL     1      -0.058   3.845   0.022  0.00  0.00    +0.058 A 
ATOM     33 CL   UNL     1      -2.711   0.861   0.020  0.00  0.00    -0.081 Cl
BRANCH  31  34
ATOM     34  N   UNL     1      -2.536   3.853   0.046  0.00  0.00    +0.058 N 
ATOM     35  O   UNL     1      -2.556   5.071   0.053  0.00  0.00    -0.126 OA
ATOM     36  O   UNL     1      -3.581   3.227   0.053  0.00  0.00    -0.126 OA
ENDBRANCH  31  34
ENDBRANCH  21  27
TORSDOF 2
