REMARK  Name = ZINC09390921
REMARK  7 active torsions:
REMARK  status: ('A' for Active; 'I' for Inactive)
REMARK    1  A    between atoms: C_10  and  C_12
REMARK    2  A    between atoms: C_12  and  S_13
REMARK    3  A    between atoms: S_13  and  C_14
REMARK    4  A    between atoms: C_17  and  C_25
REMARK    5  A    between atoms: N_18  and  C_19
REMARK    6  A    between atoms: C_25  and  N_26
REMARK    7  A    between atoms: C_27  and  C_29
REMARK                            x       y       z     vdW  Elec       q    Type
REMARK                         _______ _______ _______ _____ _____    ______ ____
ROOT
ATOM      1  C   UNL     1       6.492  -2.310  -0.074  0.00  0.00    +0.192 A 
ATOM      2  N   UNL     1       5.694  -3.353  -0.072  0.00  0.00    -0.122 NA
ATOM      3  N   UNL     1       6.389  -4.434  -0.085  0.00  0.00    -0.132 NA
ATOM      4  C   UNL     1       7.660  -4.148  -0.096  0.00  0.00    +0.152 A 
ATOM      5  N   UNL     1       7.771  -2.785  -0.095  0.00  0.00    -0.302 N 
ENDROOT
BRANCH   5   6
ATOM      6  C   UNL     1       9.007  -1.998  -0.111  0.00  0.00    +0.091 C 
ATOM      7  C   UNL     1       9.069  -1.121   1.142  0.00  0.00    +0.025 C 
ATOM      8  C   UNL     1      10.359  -0.300   1.126  0.00  0.00    +0.002 C 
ATOM      9  C   UNL     1      10.383   0.588  -0.120  0.00  0.00    +0.000 C 
ATOM     10  C   UNL     1      10.322  -0.289  -1.372  0.00  0.00    +0.002 C 
ATOM     11  C   UNL     1       9.031  -1.111  -1.357  0.00  0.00    +0.025 C 
ENDBRANCH   5   6
BRANCH   1  12
ATOM     12  S   UNL     1       6.003  -0.617  -0.060  0.00  0.00    -0.077 S 
BRANCH  12  13
ATOM     13  C   UNL     1       4.203  -0.810  -0.043  0.00  0.00    +0.173 C 
BRANCH  13  23
ATOM     14  C   UNL     1      -0.751  -2.278  -0.004  0.00  0.00    +0.000 A 
ATOM     15  C   UNL     1       0.563  -2.711  -0.019  0.00  0.00    +0.002 A 
ATOM     16  C   UNL     1       1.594  -1.796  -0.024  0.00  0.00    +0.024 A 
ATOM     17  C   UNL     1       1.321  -0.427  -0.013  0.00  0.00    +0.040 A 
ATOM     18  C   UNL     1       0.002  -0.004   0.002  0.00  0.00    -0.024 A 
ATOM     19  C   UNL     1      -1.029  -0.924   0.006  0.00  0.00    +0.005 A 
ATOM     20  C   UNL     1      -0.018   1.508   0.010  0.00  0.00    +0.056 C 
ATOM     21  C   UNL     1       1.464   1.915  -0.002  0.00  0.00    +0.118 C 
ATOM     22  N   UNL     1       2.209   0.653  -0.015  0.00  0.00    -0.270 N 
ATOM     23  C   UNL     1       3.553   0.550  -0.030  0.00  0.00    +0.230 C 
ATOM     24  O   UNL     1       4.238   1.550  -0.031  0.00  0.00    -0.274 OA
ENDBRANCH  13  23
ENDBRANCH  12  13
ENDBRANCH   1  12
BRANCH   4  25
ATOM     25  C   UNL     1       8.798  -5.137  -0.112  0.00  0.00    +0.180 C 
BRANCH  25  26
ATOM     26  N   UNL     1       9.152  -5.450  -1.498  0.00  0.00    -0.308 N 
ATOM     27  C   UNL     1      10.150  -6.318  -1.759  0.00  0.00    +0.220 C 
ATOM     28  O   UNL     1      10.754  -6.840  -0.846  0.00  0.00    -0.275 OA
ATOM     29  H   UNL     1       8.669  -5.033  -2.229  0.00  0.00    +0.149 HD
BRANCH  27  30
ATOM     30  C   UNL     1      10.515  -6.641  -3.185  0.00  0.00    +0.048 C 
ATOM     31  C   UNL     1       9.303  -7.245  -3.898  0.00  0.00    +0.019 C 
ATOM     32  C   UNL     1       9.674  -7.572  -5.346  0.00  0.00    -0.009 C 
ATOM     33  C   UNL     1      10.828  -8.576  -5.362  0.00  0.00    +0.007 C 
ATOM     34  C   UNL     1      12.040  -7.972  -4.650  0.00  0.00    -0.009 C 
ATOM     35  C   UNL     1      11.669  -7.644  -3.202  0.00  0.00    +0.019 C 
ATOM     36  C   UNL     1      12.468  -6.691  -5.369  0.00  0.00    +0.007 C 
ATOM     37  C   UNL     1      11.313  -5.687  -5.352  0.00  0.00    -0.009 C 
ATOM     38  C   UNL     1      10.101  -6.291  -6.065  0.00  0.00    +0.007 C 
ATOM     39  C   UNL     1      10.942  -5.359  -3.904  0.00  0.00    +0.019 C 
ENDBRANCH  27  30
ENDBRANCH  25  26
ENDBRANCH   4  25
TORSDOF 7
