REMARK  Name = ZINC63571863
REMARK  7 active torsions:
REMARK  status: ('A' for Active; 'I' for Inactive)
REMARK    1  A    between atoms: C_1  and  C_2
REMARK    2  A    between atoms: C_2  and  O_3
REMARK    3  A    between atoms: O_3  and  C_4
REMARK    4  A    between atoms: C_4  and  C_6
REMARK    5  A    between atoms: C_9  and  C_12
REMARK    6  A    between atoms: C_12  and  N_13
REMARK    7  A    between atoms: C_29  and  C_31
REMARK                            x       y       z     vdW  Elec       q    Type
REMARK                         _______ _______ _______ _____ _____    ______ ____
ROOT
ATOM      1  N   UNL     1      -6.758  -6.381  -3.545  0.00  0.00    -0.299 N 
ATOM      2  C   UNL     1      -7.684  -7.018  -2.802  0.00  0.00    +0.303 C 
ATOM      3  O   UNL     1      -8.710  -6.445  -2.488  0.00  0.00    -0.253 OA
ATOM      4  N   UNL     1      -7.474  -8.289  -2.408  0.00  0.00    -0.276 N 
ATOM      5  C   UNL     1      -6.185  -8.931  -2.684  0.00  0.00    +0.114 C 
ATOM      6  C   UNL     1      -5.552  -9.400  -1.361  0.00  0.00    +0.052 C 
ATOM      7  C   UNL     1      -6.646 -10.083  -0.577  0.00  0.00    -0.035 C 
ATOM      8  C   UNL     1      -6.697 -11.276   0.001  0.00  0.00    -0.001 A 
ATOM      9  C   UNL     1      -5.677 -12.321   0.184  0.00  0.00    +0.010 A 
ATOM     10  C   UNL     1      -6.084 -13.453   0.818  0.00  0.00    +0.001 A 
ATOM     11  C   UNL     1      -7.389 -13.647   1.282  0.00  0.00    +0.002 A 
ATOM     12  C   UNL     1      -8.388 -12.737   1.165  0.00  0.00    +0.026 A 
ATOM     13  C   UNL     1      -8.080 -11.502   0.523  0.00  0.00    +0.043 A 
ATOM     14  N   UNL     1      -8.825 -10.461   0.299  0.00  0.00    -0.375 N 
ATOM     15  C   UNL     1      -8.001  -9.429  -0.331  0.00  0.00    +0.131 C 
ATOM     16  C   UNL     1      -8.539  -9.017  -1.700  0.00  0.00    +0.134 C 
ATOM     17  H   UNL     1      -5.909  -6.811  -3.735  0.00  0.00    +0.150 HD
ATOM     18  H   UNL     1      -9.768 -10.382   0.513  0.00  0.00    +0.160 HD
ENDROOT
BRANCH  16  19
ATOM     19  C   UNL     1      -9.740  -8.123  -1.525  0.00  0.00    -0.025 A 
ATOM     20  C   UNL     1      -9.686  -7.059  -0.643  0.00  0.00    +0.008 A 
ATOM     21  C   UNL     1     -10.785  -6.238  -0.482  0.00  0.00    +0.038 A 
ATOM     22  C   UNL     1     -11.942  -6.481  -1.204  0.00  0.00    +0.123 A 
ATOM     23  C   UNL     1     -11.995  -7.546  -2.087  0.00  0.00    +0.038 A 
ATOM     24  C   UNL     1     -10.892  -8.363  -2.250  0.00  0.00    +0.008 A 
ATOM     25  F   UNL     1     -13.018  -5.679  -1.048  0.00  0.00    -0.205 F 
ENDBRANCH  16  19
BRANCH   1  26
ATOM     26  C   UNL     1      -7.032  -5.039  -4.066  0.00  0.00    +0.109 C 
BRANCH  26  30
ATOM     27  C   UNL     1      -3.751  -2.544  -5.385  0.00  0.00    +0.098 C 
ATOM     28  C   UNL     1      -4.952  -2.710  -6.319  0.00  0.00    +0.015 C 
ATOM     29  C   UNL     1      -6.158  -3.201  -5.516  0.00  0.00    +0.006 C 
ATOM     30  C   UNL     1      -5.826  -4.547  -4.869  0.00  0.00    +0.006 C 
ATOM     31  C   UNL     1      -4.625  -4.382  -3.935  0.00  0.00    +0.006 C 
ATOM     32  C   UNL     1      -3.419  -3.890  -4.738  0.00  0.00    +0.015 C 
BRANCH  27  33
ATOM     33  C   UNL     1      -2.564  -2.060  -6.176  0.00  0.00    +0.310 C 
ATOM     34  O   UNL     1      -1.555  -2.723  -6.218  0.00  0.00    -0.251 OA
BRANCH  33  35
ATOM     35  O   UNL     1      -2.627  -0.891  -6.834  0.00  0.00    -0.465 OA
BRANCH  35  37
ATOM     36  C   UNL     1      -1.723   0.852  -8.242  0.00  0.00    +0.048 C 
ATOM     37  C   UNL     1      -1.464  -0.494  -7.564  0.00  0.00    +0.229 C 
ENDBRANCH  35  37
ENDBRANCH  33  35
ENDBRANCH  27  33
ENDBRANCH  26  30
ENDBRANCH   1  26
TORSDOF 6
