REMARK  Name = ZINC06321177
REMARK  8 active torsions:
REMARK  status: ('A' for Active; 'I' for Inactive)
REMARK    1  A    between atoms: C_1  and  C_2
REMARK    2  A    between atoms: C_6  and  C_15
REMARK    3  A    between atoms: C_13  and  C_14
REMARK    4  A    between atoms: C_15  and  C_17
REMARK    5  A    between atoms: C_15  and  N_68
REMARK    6  A    between atoms: N_21  and  C_22
REMARK    7  A    between atoms: C_22  and  C_23
REMARK    8  A    between atoms: C_34  and  C_36
REMARK                            x       y       z     vdW  Elec       q    Type
REMARK                         _______ _______ _______ _____ _____    ______ ____
ROOT
ATOM      1  C   UNL     1       2.041   6.277  -1.604  0.00  0.00    +0.039 C 
ENDROOT
BRANCH   1   7
ATOM      2  C   UNL     1      -3.205   2.285  -5.091  0.00  0.00    +0.044 C 
ATOM      3  C   UNL     1      -2.708   3.588  -4.522  0.00  0.00    -0.047 A 
ATOM      4  C   UNL     1      -1.476   3.643  -3.931  0.00  0.00    +0.013 A 
ATOM      5  C   UNL     1      -1.014   4.852  -3.402  0.00  0.00    -0.001 A 
ATOM      6  C   UNL     1       0.299   4.946  -2.763  0.00  0.00    +0.017 A 
ATOM      7  C   UNL     1       0.695   6.146  -2.268  0.00  0.00    +0.011 A 
ATOM      8  C   UNL     1      -0.152   7.270  -2.369  0.00  0.00    +0.251 A 
ATOM      9  O   UNL     1       0.221   8.337  -1.913  0.00  0.00    -0.268 OA
ATOM     10  N   UNL     1      -1.358   7.195  -2.960  0.00  0.00    -0.322 N 
ATOM     11  H   UNL     1      -1.913   7.989  -3.016  0.00  0.00    +0.169 HD
ATOM     12  C   UNL     1      -1.819   6.005  -3.482  0.00  0.00    +0.049 A 
ATOM     13  C   UNL     1      -3.068   5.926  -4.088  0.00  0.00    +0.030 A 
ATOM     14  C   UNL     1      -3.503   4.723  -4.602  0.00  0.00    -0.046 A 
ATOM     15  C   UNL     1      -4.857   4.639  -5.259  0.00  0.00    +0.044 C 
ENDBRANCH   1   7
BRANCH   1  23
ATOM     16  C   UNL     1       2.958   7.107  -3.685  0.00  0.00    -0.058 C 
ATOM     17  C   UNL     1       3.593   8.335  -4.347  0.00  0.00    +0.089 C 
ATOM     18  N   UNL     1       4.837   8.660  -3.632  0.00  0.00    -0.299 N 
ATOM     19  C   UNL     1       4.784   8.791  -2.168  0.00  0.00    +0.089 C 
ATOM     20  C   UNL     1       4.103   7.546  -1.592  0.00  0.00    -0.058 C 
ATOM     21  C   UNL     1       5.994   8.834  -4.301  0.00  0.00    +0.282 C 
ATOM     22  O   UNL     1       7.033   8.992  -3.688  0.00  0.00    -0.267 OA
ATOM     23  N   UNL     1       2.784   7.383  -2.242  0.00  0.00    +0.391 N 
ATOM     24  H   UNL     1       2.249   8.252  -2.131  0.00  0.00    -0.080 HD
BRANCH  21  25
ATOM     25  C   UNL     1       6.000   8.832  -5.768  0.00  0.00    +0.189 A 
ATOM     26  C   UNL     1       7.108   8.862  -6.565  0.00  0.00    +0.054 A 
ATOM     27  C   UNL     1       6.651   8.847  -7.892  0.00  0.00    +0.042 A 
ATOM     28  C   UNL     1       5.301   8.808  -7.847  0.00  0.00    +0.196 A 
ATOM     29  O   UNL     1       4.913   8.794  -6.565  0.00  0.00    -0.458 OA
ENDBRANCH  21  25
ENDBRANCH   1  23
BRANCH   1  30
ATOM     30  C   UNL     1       2.797   4.981  -1.741  0.00  0.00    +0.143 A 
ATOM     31  N   UNL     1       3.295   4.478  -2.844  0.00  0.00    -0.115 NA
ATOM     32  N   UNL     1       3.865   3.361  -2.551  0.00  0.00    -0.023 NA
ATOM     33  N   UNL     1       3.750   3.140  -1.288  0.00  0.00    -0.044 NA
ATOM     34  N   UNL     1       3.092   4.114  -0.754  0.00  0.00    -0.226 N 
BRANCH  34  35
ATOM     35  C   UNL     1       2.738   4.253   0.661  0.00  0.00    +0.182 C 
BRANCH  35  36
ATOM     36  C   UNL     1       1.461   3.501   0.935  0.00  0.00    -0.026 A 
ATOM     37  C   UNL     1       1.502   2.146   1.205  0.00  0.00    +0.005 A 
ATOM     38  C   UNL     1       0.330   1.456   1.457  0.00  0.00    +0.000 A 
ATOM     39  C   UNL     1      -0.882   2.120   1.434  0.00  0.00    +0.000 A 
ATOM     40  C   UNL     1      -0.921   3.477   1.170  0.00  0.00    +0.000 A 
ATOM     41  C   UNL     1       0.250   4.167   0.918  0.00  0.00    +0.005 A 
ENDBRANCH  35  36
ENDBRANCH  34  35
ENDBRANCH   1  30
TORSDOF 6
