REMARK  Name = ZINC16038961
REMARK  11 active torsions:
REMARK  status: ('A' for Active; 'I' for Inactive)
REMARK    1  A    between atoms: C_1  and  C_2
REMARK    2  A    between atoms: C_2  and  C_3
REMARK    3  A    between atoms: C_2  and  C_4
REMARK    4  A    between atoms: C_4  and  C_5
REMARK    5  A    between atoms: C_8  and  C_11
REMARK    6  A    between atoms: C_11  and  C_13
REMARK    7  A    between atoms: C_15  and  C_37
REMARK    8  A    between atoms: C_37  and  C_39
REMARK    9  A    between atoms: C_39  and  C_40
REMARK   10  A    between atoms: C_39  and  C_41
REMARK   11  A    between atoms: C_39  and  C_42
REMARK                            x       y       z     vdW  Elec       q    Type
REMARK                         _______ _______ _______ _____ _____    ______ ____
ROOT
ATOM      1  C   UNL     1      -1.390   1.932   0.275  0.00  0.00    +0.108 C 
ATOM      2  C   UNL     1      -1.888   2.114  -1.187  0.00  0.00    +0.136 C 
ATOM      3  C   UNL     1      -4.133   3.257  -1.650  0.00  0.00    +0.054 C 
ATOM      4  C   UNL     1      -5.257   3.662  -1.032  0.00  0.00    +0.022 C 
ATOM      5  C   UNL     1      -5.571   3.156   0.319  0.00  0.00    -0.019 A 
ATOM      6  C   UNL     1      -6.579   3.775   1.062  0.00  0.00    +0.008 A 
ATOM      7  C   UNL     1      -6.911   3.294   2.311  0.00  0.00    +0.001 A 
ATOM      8  C   UNL     1      -6.252   2.190   2.822  0.00  0.00    +0.000 A 
ATOM      9  C   UNL     1      -5.251   1.575   2.092  0.00  0.00    +0.006 A 
ATOM     10  C   UNL     1      -4.874   2.070   0.861  0.00  0.00    -0.020 A 
ATOM     11  C   UNL     1      -3.771   1.431   0.074  0.00  0.00    +0.107 C 
ATOM     12  C   UNL     1      -2.526   1.082   0.887  0.00  0.00    +0.107 C 
ATOM     13  C   UNL     1      -2.642   1.325   2.349  0.00  0.00    -0.008 A 
ATOM     14  C   UNL     1      -2.879   2.468   3.086  0.00  0.00    +0.006 A 
ATOM     15  C   UNL     1      -2.923   2.336   4.469  0.00  0.00    +0.000 A 
ATOM     16  C   UNL     1      -2.733   1.115   5.083  0.00  0.00    +0.002 A 
ATOM     17  C   UNL     1      -2.482  -0.036   4.355  0.00  0.00    +0.023 A 
ATOM     18  C   UNL     1      -2.429   0.083   2.966  0.00  0.00    +0.038 A 
ATOM     19  N   UNL     1      -2.172  -0.889   2.016  0.00  0.00    -0.284 N 
ATOM     20  C   UNL     1      -2.216  -0.391   0.761  0.00  0.00    +0.231 C 
ATOM     21  O   UNL     1      -2.059  -1.014  -0.268  0.00  0.00    -0.274 OA
ATOM     22  H   UNL     1      -1.989  -1.819   2.227  0.00  0.00    +0.155 HD
ATOM     23  N   UNL     1      -3.370   2.025  -1.170  0.00  0.00    -0.384 NA
ATOM     24  H   UNL     1      -3.600   1.314  -1.874  0.00  0.00    +0.127 HD
ENDROOT
BRANCH   1  25
ATOM     25  C   UNL     1      -0.068   1.216   0.319  0.00  0.00    +0.170 C 
ATOM     26  O   UNL     1       0.172   0.338  -0.481  0.00  0.00    -0.292 OA
BRANCH  25  30
ATOM     27  C   UNL     1       2.825   2.280   3.233  0.00  0.00    -0.047 A 
ATOM     28  C   UNL     1       3.049   1.194   2.405  0.00  0.00    +0.004 A 
ATOM     29  C   UNL     1       2.114   0.842   1.455  0.00  0.00    +0.011 A 
ATOM     30  C   UNL     1       0.936   1.585   1.330  0.00  0.00    +0.018 A 
ATOM     31  C   UNL     1       0.719   2.684   2.167  0.00  0.00    +0.011 A 
ATOM     32  C   UNL     1       1.662   3.021   3.115  0.00  0.00    +0.004 A 
BRANCH  27  33
ATOM     33  C   UNL     1       3.854   2.659   4.267  0.00  0.00    +0.038 C 
BRANCH  33  35
ATOM     34  C   UNL     1       5.816   4.130   4.742  0.00  0.00    +0.007 C 
ATOM     35  C   UNL     1       4.848   3.650   3.659  0.00  0.00    -0.013 C 
ATOM     36  C   UNL     1       5.633   2.963   2.540  0.00  0.00    +0.007 C 
ENDBRANCH  33  35
ENDBRANCH  27  33
ENDBRANCH  25  30
ENDBRANCH   1  25
BRANCH   2  37
ATOM     37  C   UNL     1      -1.231   3.307  -1.826  0.00  0.00    +0.158 C 
ATOM     38  O   UNL     1      -0.982   4.286  -1.164  0.00  0.00    -0.295 OA
BRANCH  37  39
ATOM     39  C   UNL     1      -0.885   3.282  -3.292  0.00  0.00    +0.022 C 
ATOM     40  C   UNL     1      -0.291   4.632  -3.700  0.00  0.00    +0.018 C 
ATOM     41  C   UNL     1       0.138   2.174  -3.556  0.00  0.00    +0.018 C 
ATOM     42  C   UNL     1      -2.150   3.013  -4.111  0.00  0.00    +0.018 C 
ENDBRANCH  37  39
ENDBRANCH   2  37
TORSDOF 6
