REMARK  Name = ZINC16362911
REMARK  9 active torsions:
REMARK  status: ('A' for Active; 'I' for Inactive)
REMARK    1  A    between atoms: C_1  and  C_2
REMARK    2  A    between atoms: C_7  and  N_8
REMARK    3  A    between atoms: C_9  and  C_11
REMARK    4  A    between atoms: C_11  and  C_30
REMARK    5  A    between atoms: C_12  and  C_13
REMARK    6  A    between atoms: C_16  and  O_20
REMARK    7  A    between atoms: O_20  and  C_21
REMARK    8  A    between atoms: C_21  and  C_22
REMARK    9  A    between atoms: C_25  and  C_28
REMARK                            x       y       z     vdW  Elec       q    Type
REMARK                         _______ _______ _______ _____ _____    ______ ____
ROOT
ATOM      1  C   UNL     1      -5.790   3.901   1.559  0.00  0.00    -0.022 A 
ATOM      2  C   UNL     1      -5.953   3.414   0.254  0.00  0.00    +0.011 A 
ATOM      3  C   UNL     1      -5.128   2.432  -0.216  0.00  0.00    +0.047 A 
ATOM      4  C   UNL     1      -4.132   1.903   0.598  0.00  0.00    +0.135 A 
ATOM      5  C   UNL     1      -3.960   2.378   1.895  0.00  0.00    +0.060 A 
ATOM      6  C   UNL     1      -4.782   3.372   2.378  0.00  0.00    +0.027 A 
ATOM      7 BR   UNL     1      -2.598   1.660   2.993  0.00  0.00    -0.046 Br
ENDROOT
BRANCH   1   9
ATOM      8  C   UNL     1      -6.926   6.068   1.291  0.00  0.00    +0.114 C 
ATOM      9  C   UNL     1      -6.669   4.957   2.064  0.00  0.00    +0.032 C 
BRANCH   8  11
ATOM     10  N   UNL     1      -6.457   7.337  -0.742  0.00  0.00    -0.281 N 
ATOM     11  C   UNL     1      -6.123   6.328   0.087  0.00  0.00    +0.259 C 
ATOM     12  O   UNL     1      -5.156   5.632  -0.161  0.00  0.00    -0.269 OA
ATOM     13  H   UNL     1      -7.277   7.835  -0.594  0.00  0.00    +0.155 HD
BRANCH  10  20
ATOM     14  C   UNL     1      -7.593   8.724  -2.951  0.00  0.00    +0.045 C 
ATOM     15  C   UNL     1      -6.135   8.345  -2.912  0.00  0.00    -0.029 A 
ATOM     16  C   UNL     1      -5.307   8.670  -3.969  0.00  0.00    +0.005 A 
ATOM     17  C   UNL     1      -3.969   8.322  -3.934  0.00  0.00    +0.000 A 
ATOM     18  C   UNL     1      -3.455   7.648  -2.841  0.00  0.00    +0.002 A 
ATOM     19  C   UNL     1      -4.276   7.325  -1.779  0.00  0.00    +0.023 A 
ATOM     20  C   UNL     1      -5.622   7.668  -1.813  0.00  0.00    +0.037 A 
ENDBRANCH  10  20
ENDBRANCH   8  11
BRANCH   8  21
ATOM     21  C   UNL     1      -7.976   6.969   1.659  0.00  0.00    +0.104 C 
ATOM     22  N   UNL     1      -8.809   7.684   1.952  0.00  0.00    -0.191 NA
ENDBRANCH   8  21
ENDBRANCH   1   9
BRANCH   4  23
ATOM     23  O   UNL     1      -3.321   0.924   0.124  0.00  0.00    -0.486 OA
BRANCH  23  24
ATOM     24  C   UNL     1      -3.551   0.483  -1.215  0.00  0.00    +0.264 C 
BRANCH  24  25
ATOM     25  C   UNL     1      -2.562  -0.599  -1.565  0.00  0.00    -0.010 A 
ATOM     26  C   UNL     1      -1.347  -0.264  -2.135  0.00  0.00    +0.008 A 
ATOM     27  C   UNL     1      -0.439  -1.249  -2.462  0.00  0.00    +0.015 A 
ATOM     28  C   UNL     1      -0.749  -2.588  -2.217  0.00  0.00    +0.063 A 
ATOM     29  C   UNL     1      -1.977  -2.920  -1.641  0.00  0.00    +0.015 A 
ATOM     30  C   UNL     1      -2.875  -1.924  -1.319  0.00  0.00    +0.008 A 
BRANCH  28  31
ATOM     31  C   UNL     1       0.218  -3.650  -2.564  0.00  0.00    +0.387 C 
ATOM     32  O   UNL     1      -0.054  -4.814  -2.349  0.00  0.00    -0.241 OA
ATOM     33  O   UNL     1       1.402  -3.326  -3.120  0.00  0.00    -0.241 OA
ENDBRANCH  28  31
ENDBRANCH  24  25
ENDBRANCH  23  24
ENDBRANCH   4  23
TORSDOF 8
