REMARK  Name = ZINC02769818
REMARK  12 active torsions:
REMARK  status: ('A' for Active; 'I' for Inactive)
REMARK    1  A    between atoms: C_1  and  C_2
REMARK    2  A    between atoms: C_2  and  O_3
REMARK    3  A    between atoms: O_3  and  C_4
REMARK    4  A    between atoms: C_4  and  C_6
REMARK    5  A    between atoms: C_7  and  C_35
REMARK    6  A    between atoms: C_11  and  C_13
REMARK    7  A    between atoms: C_16  and  C_18
REMARK    8  A    between atoms: C_18  and  O_19
REMARK    9  A    between atoms: O_19  and  C_20
REMARK   10  A    between atoms: C_24  and  C_26
REMARK   11  A    between atoms: C_31  and  C_33
REMARK   12  A    between atoms: C_31  and  C_34
REMARK                            x       y       z     vdW  Elec       q    Type
REMARK                         _______ _______ _______ _____ _____    ______ ____
ROOT
ATOM      1  C   UNL     1      -8.798   5.524   0.961  0.00  0.00    +0.068 C 
ATOM      2  C   UNL     1      -8.187   6.712   0.813  0.00  0.00    +0.016 C 
ATOM      3  N   UNL     1      -7.877   7.472   1.906  0.00  0.00    -0.321 N 
ATOM      4  C   UNL     1      -8.510   7.264   3.102  0.00  0.00    +0.016 C 
ATOM      5  C   UNL     1      -9.135   6.094   3.351  0.00  0.00    +0.027 C 
ATOM      6  C   UNL     1      -9.150   4.993   2.320  0.00  0.00    +0.128 C 
ATOM      7  C   UNL     1      -9.788   5.866   4.576  0.00  0.00    +0.162 C 
ATOM      8  O   UNL     1     -10.352   4.806   4.763  0.00  0.00    -0.292 OA
ATOM      9  C   UNL     1      -9.799   6.910   5.659  0.00  0.00    +0.086 C 
ATOM     10  C   UNL     1      -8.537   7.770   5.534  0.00  0.00    -0.023 C 
ATOM     11  C   UNL     1      -8.495   8.371   4.127  0.00  0.00    +0.058 C 
ATOM     12  C   UNL     1      -7.298   6.900   5.758  0.00  0.00    +0.011 C 
ATOM     13  C   UNL     1      -8.570   8.894   6.572  0.00  0.00    +0.011 C 
ATOM     14  C   UNL     1      -7.841   7.209  -0.567  0.00  0.00    +0.061 C 
ATOM     15  H   UNL     1      -7.113   8.260   1.829  0.00  0.00    +0.152 HD
ENDROOT
BRANCH   6  16
ATOM     16  C   UNL     1      -8.150   3.935   2.712  0.00  0.00    +0.118 A 
ATOM     17  C   UNL     1      -8.434   2.651   2.991  0.00  0.00    +0.046 A 
ATOM     18  C   UNL     1      -7.208   2.019   3.302  0.00  0.00    +0.048 A 
ATOM     19  C   UNL     1      -6.250   2.958   3.203  0.00  0.00    +0.142 A 
ATOM     20  O   UNL     1      -6.826   4.116   2.842  0.00  0.00    -0.460 OA
BRANCH  19  21
ATOM     21  C   UNL     1      -4.778   2.744   3.449  0.00  0.00    +0.303 C 
BRANCH  21  22
ATOM     22  O   UNL     1      -4.143   2.358   2.228  0.00  0.00    -0.484 OA
BRANCH  22  23
ATOM     23  C   UNL     1      -2.804   2.125   2.277  0.00  0.00    +0.121 A 
ATOM     24  C   UNL     1      -2.117   2.266   3.474  0.00  0.00    +0.047 A 
ATOM     25  C   UNL     1      -0.757   2.029   3.521  0.00  0.00    +0.024 A 
ATOM     26  C   UNL     1      -0.080   1.651   2.374  0.00  0.00    +0.044 A 
ATOM     27  C   UNL     1      -0.763   1.510   1.180  0.00  0.00    -0.029 A 
ATOM     28  C   UNL     1      -2.123   1.752   1.128  0.00  0.00    +0.050 A 
ATOM     29  C   UNL     1      -0.023   1.100  -0.067  0.00  0.00    +0.045 C 
ATOM     30 CL   UNL     1       1.629   1.355   2.436  0.00  0.00    -0.083 Cl
ENDBRANCH  22  23
ENDBRANCH  21  22
ENDBRANCH  19  21
ENDBRANCH   6  16
BRANCH   1  31
ATOM     31  C   UNL     1      -9.115   4.759  -0.185  0.00  0.00    +0.338 C 
ATOM     32  O   UNL     1      -8.932   5.222  -1.296  0.00  0.00    -0.245 OA
BRANCH  31  33
ATOM     33  O   UNL     1      -9.622   3.516  -0.048  0.00  0.00    -0.462 OA
BRANCH  33  35
ATOM     34  C   UNL     1     -10.479   1.421  -0.895  0.00  0.00    +0.048 C 
ATOM     35  C   UNL     1      -9.919   2.800  -1.249  0.00  0.00    +0.229 C 
ENDBRANCH  33  35
ENDBRANCH  31  33
ENDBRANCH   1  31
TORSDOF 7
