REMARK  Name = ZINC11980524
REMARK  10 active torsions:
REMARK  status: ('A' for Active; 'I' for Inactive)
REMARK    1  A    between atoms: C_1  and  C_2
REMARK    2  A    between atoms: C_2  and  C_9
REMARK    3  A    between atoms: C_3  and  C_4
REMARK    4  A    between atoms: C_9  and  N_60
REMARK    5  A    between atoms: C_16  and  C_20
REMARK    6  A    between atoms: C_20  and  C_21
REMARK    7  A    between atoms: C_20  and  C_22
REMARK    8  A    between atoms: C_20  and  O_30
REMARK    9  A    between atoms: C_22  and  O_23
REMARK   10  A    between atoms: O_23  and  C_24
REMARK                            x       y       z     vdW  Elec       q    Type
REMARK                         _______ _______ _______ _____ _____    ______ ____
ROOT
ATOM      1  C   UNL     1       2.566   0.422   1.881  0.00  0.00    -0.036 C 
ATOM      2  C   UNL     1       1.629  -0.736   2.149  0.00  0.00    +0.210 C 
ATOM      3  O   UNL     1       0.833  -1.021   0.992  0.00  0.00    -0.494 OA
ATOM      4  C   UNL     1      -0.301  -0.279   0.869  0.00  0.00    +0.122 A 
ATOM      5  C   UNL     1      -1.544  -0.875   1.033  0.00  0.00    +0.046 A 
ATOM      6  C   UNL     1      -2.689  -0.107   0.935  0.00  0.00    +0.010 A 
ATOM      7  C   UNL     1      -2.600   1.248   0.674  0.00  0.00    -0.013 A 
ATOM      8  C   UNL     1      -1.361   1.841   0.503  0.00  0.00    +0.012 A 
ATOM      9  C   UNL     1      -0.219   1.072   0.593  0.00  0.00    -0.022 A 
ATOM     10  C   UNL     1       1.144   1.702   0.375  0.00  0.00    -0.039 C 
ATOM     11  N   UNL     1       1.856   1.702   1.675  0.00  0.00    +0.387 N 
ATOM     12  H   UNL     1       1.168   1.823   2.427  0.00  0.00    -0.081 HD
ENDROOT
BRANCH   7  13
ATOM     13  C   UNL     1      -3.852   2.080   0.577  0.00  0.00    +0.122 C 
ATOM     14  C   UNL     1      -4.208   2.629   1.960  0.00  0.00    +0.050 C 
BRANCH  13  15
ATOM     15  O   UNL     1      -3.634   3.166  -0.325  0.00  0.00    -0.381 OA
ATOM     16  H   UNL     1      -3.403   2.892  -1.223  0.00  0.00    +0.211 HD
ENDBRANCH  13  15
BRANCH  13  17
ATOM     17  C   UNL     1      -5.002   1.212   0.062  0.00  0.00    +0.268 C 
BRANCH  17  18
ATOM     18  O   UNL     1      -6.190   2.002  -0.030  0.00  0.00    -0.489 OA
BRANCH  18  19
ATOM     19  C   UNL     1      -7.312   1.378  -0.475  0.00  0.00    +0.121 A 
ATOM     20  C   UNL     1      -7.270   0.035  -0.822  0.00  0.00    +0.045 A 
ATOM     21  C   UNL     1      -8.414  -0.598  -1.268  0.00  0.00    +0.004 A 
ATOM     22  C   UNL     1      -9.597   0.108  -1.381  0.00  0.00    +0.000 A 
ATOM     23  C   UNL     1      -9.640   1.448  -1.042  0.00  0.00    +0.004 A 
ATOM     24  C   UNL     1      -8.501   2.084  -0.589  0.00  0.00    +0.045 A 
ENDBRANCH  18  19
ENDBRANCH  17  18
ENDBRANCH  13  17
ENDBRANCH   7  13
BRANCH  11  25
ATOM     25  C   UNL     1       2.815   2.818   1.723  0.00  0.00    -0.047 C 
BRANCH  25  27
ATOM     26  C   UNL     1       2.536   3.720   4.157  0.00  0.00    +0.037 C 
ATOM     27  C   UNL     1       3.329   2.947   3.134  0.00  0.00    -0.086 C 
ATOM     28  C   UNL     1       4.481   2.379   3.477  0.00  0.00    +0.043 C 
BRANCH  28  29
ATOM     29  C   UNL     1       4.912   2.380   4.883  0.00  0.00    +0.128 A 
ATOM     30  C   UNL     1       6.112   1.939   5.352  0.00  0.00    +0.049 A 
ATOM     31  C   UNL     1       6.095   2.125   6.748  0.00  0.00    +0.042 A 
ATOM     32  C   UNL     1       4.900   2.665   7.061  0.00  0.00    +0.195 A 
ATOM     33  O   UNL     1       4.190   2.823   5.931  0.00  0.00    -0.464 OA
ENDBRANCH  28  29
ENDBRANCH  25  27
ENDBRANCH  11  25
TORSDOF 8
