REMARK  Name = ZINC09467474
REMARK  12 active torsions:
REMARK  status: ('A' for Active; 'I' for Inactive)
REMARK    1  A    between atoms: C_1  and  N_57
REMARK    2  A    between atoms: C_2  and  C_3
REMARK    3  A    between atoms: C_2  and  N_57
REMARK    4  A    between atoms: C_6  and  O_11
REMARK    5  A    between atoms: C_7  and  O_9
REMARK    6  A    between atoms: O_9  and  C_10
REMARK    7  A    between atoms: O_11  and  C_12
REMARK    8  A    between atoms: C_15  and  C_16
REMARK    9  A    between atoms: C_15  and  N_57
REMARK   10  A    between atoms: C_20  and  C_23
REMARK   11  A    between atoms: N_31  and  C_32
REMARK   12  A    between atoms: C_32  and  C_33
REMARK                            x       y       z     vdW  Elec       q    Type
REMARK                         _______ _______ _______ _____ _____    ______ ____
ROOT
ATOM      1  C   UNL     1       1.094   2.014   0.002  0.00  0.00    +0.098 A 
ATOM      2  N   UNL     1      -0.016   1.326   0.009  0.00  0.00    -0.228 NA
ATOM      3  C   UNL     1       0.002  -0.004   0.002  0.00  0.00    +0.116 A 
ATOM      4  C   UNL     1       1.204  -0.730  -0.013  0.00  0.00    +0.080 A 
ATOM      5  C   UNL     1       1.051  -2.180  -0.020  0.00  0.00    +0.004 A 
ATOM      6  C   UNL     1      -0.199  -2.703  -0.011  0.00  0.00    +0.056 A 
ATOM      7  S   UNL     1      -1.249  -1.262   0.007  0.00  0.00    -0.076 S 
ATOM      8  C   UNL     1       2.402   0.054  -0.021  0.00  0.00    +0.264 A 
ATOM      9  O   UNL     1       3.495  -0.486  -0.034  0.00  0.00    -0.267 OA
ATOM     10  N   UNL     1       2.303   1.396  -0.013  0.00  0.00    -0.284 N 
ENDROOT
BRANCH   5  11
ATOM     11  C   UNL     1       2.239  -3.065  -0.035  0.00  0.00    -0.017 A 
ATOM     12  C   UNL     1       3.252  -2.860  -0.971  0.00  0.00    +0.008 A 
ATOM     13  C   UNL     1       4.359  -3.684  -0.977  0.00  0.00    +0.001 A 
ATOM     14  C   UNL     1       4.460  -4.719  -0.065  0.00  0.00    +0.000 A 
ATOM     15  C   UNL     1       3.455  -4.931   0.862  0.00  0.00    +0.001 A 
ATOM     16  C   UNL     1       2.346  -4.110   0.882  0.00  0.00    +0.008 A 
ENDBRANCH   5  11
BRANCH   1  17
ATOM     17  C   UNL     1       1.032   3.520   0.011  0.00  0.00    -0.003 C 
BRANCH  17  19
ATOM     18  C   UNL     1      -1.027   3.568   1.284  0.00  0.00    -0.095 C 
ATOM     19  N   UNL     1      -0.385   3.939   0.005  0.00  0.00    +0.385 N 
ATOM     20  H   UNL     1      -0.871   3.461  -0.762  0.00  0.00    -0.081 HD
BRANCH  19  21
ATOM     21  C   UNL     1      -0.479   5.399  -0.203  0.00  0.00    -0.043 C 
BRANCH  21  22
ATOM     22  C   UNL     1      -1.924   5.766  -0.424  0.00  0.00    -0.060 A 
ATOM     23  C   UNL     1      -2.448   5.763  -1.704  0.00  0.00    +0.005 A 
ATOM     24  C   UNL     1      -3.774   6.094  -1.911  0.00  0.00    +0.050 A 
ATOM     25  C   UNL     1      -4.579   6.440  -0.837  0.00  0.00    +0.168 A 
ATOM     26  C   UNL     1      -4.050   6.449   0.450  0.00  0.00    +0.162 A 
ATOM     27  C   UNL     1      -2.721   6.111   0.652  0.00  0.00    +0.051 A 
BRANCH  26  28
ATOM     28  O   UNL     1      -4.835   6.787   1.507  0.00  0.00    -0.491 OA
ATOM     29  C   UNL     1      -4.225   6.774   2.799  0.00  0.00    +0.277 C 
ENDBRANCH  26  28
BRANCH  25  30
ATOM     30  O   UNL     1      -5.882   6.771  -1.041  0.00  0.00    -0.431 OA
BRANCH  30  31
ATOM     31  C   UNL     1      -6.356   6.741  -2.388  0.00  0.00    +0.541 C 
ATOM     32  F   UNL     1      -5.615   7.638  -3.164  0.00  0.00    -0.166 F 
ATOM     33  F   UNL     1      -6.212   5.449  -2.904  0.00  0.00    -0.166 F 
ENDBRANCH  30  31
ENDBRANCH  25  30
ENDBRANCH  21  22
ENDBRANCH  19  21
ENDBRANCH  17  19
ENDBRANCH   1  17
BRANCH  10  34
ATOM     34  C   UNL     1       3.523   2.206  -0.021  0.00  0.00    +0.245 C 
BRANCH  34  35
ATOM     35  C   UNL     1       3.919   2.485  -1.411  0.00  0.00    +0.084 C 
ATOM     36  N   UNL     1       4.224   2.700  -2.484  0.00  0.00    -0.195 NA
ENDBRANCH  34  35
ENDBRANCH  10  34
TORSDOF 10
