REMARK  Name = ZINC22362053
REMARK  8 active torsions:
REMARK  status: ('A' for Active; 'I' for Inactive)
REMARK    1  A    between atoms: C_1  and  C_2
REMARK    2  A    between atoms: C_2  and  C_35
REMARK    3  A    between atoms: C_4  and  N_13
REMARK    4  A    between atoms: C_14  and  C_16
REMARK    5  A    between atoms: C_16  and  N_17
REMARK    6  A    between atoms: N_17  and  C_18
REMARK    7  A    between atoms: N_17  and  S_25
REMARK    8  A    between atoms: S_25  and  C_28
REMARK                            x       y       z     vdW  Elec       q    Type
REMARK                         _______ _______ _______ _____ _____    ______ ____
ROOT
ATOM      1  N   UNL     1      -2.426   1.042   0.019  0.00  0.00    -0.194 N 
ENDROOT
BRANCH   1   2
ATOM      2  C   UNL     1      -1.227   1.758   0.028  0.00  0.00    +0.053 A 
ATOM      3  C   UNL     1      -1.103   2.897   0.814  0.00  0.00    +0.025 A 
ATOM      4  C   UNL     1       0.086   3.600   0.825  0.00  0.00    +0.003 A 
ATOM      5  C   UNL     1       1.151   3.175   0.052  0.00  0.00    +0.020 A 
ATOM      6  C   UNL     1       1.029   2.044  -0.736  0.00  0.00    +0.043 A 
ATOM      7  C   UNL     1      -0.158   1.335  -0.751  0.00  0.00    +0.044 A 
ATOM      8 CL   UNL     1       2.368   1.513  -1.705  0.00  0.00    -0.083 Cl
ENDBRANCH   1   2
BRANCH   1   9
ATOM      9  S   UNL     1      -3.828   1.781  -0.461  0.00  0.00    +0.075 S 
ATOM     10  O   UNL     1      -4.885   1.142   0.242  0.00  0.00    -0.150 OA
ATOM     11  O   UNL     1      -3.597   3.181  -0.381  0.00  0.00    -0.150 OA
BRANCH   9  12
ATOM     12  C   UNL     1      -4.058   1.405  -2.167  0.00  0.00    +0.109 A 
ATOM     13  C   UNL     1      -3.534   2.240  -3.135  0.00  0.00    +0.030 A 
ATOM     14  C   UNL     1      -3.709   1.942  -4.473  0.00  0.00    +0.022 A 
ATOM     15  C   UNL     1      -4.419   0.814  -4.844  0.00  0.00    +0.041 A 
ATOM     16  C   UNL     1      -4.948  -0.019  -3.874  0.00  0.00    +0.022 A 
ATOM     17  C   UNL     1      -4.767   0.277  -2.536  0.00  0.00    +0.030 A 
ATOM     18 CL   UNL     1      -4.646   0.443  -6.524  0.00  0.00    -0.084 Cl
ENDBRANCH   9  12
ENDBRANCH   1   9
BRANCH   1  19
ATOM     19  C   UNL     1      -2.443  -0.363   0.434  0.00  0.00    +0.227 C 
BRANCH  19  21
ATOM     20  N   UNL     1      -2.612  -1.643   2.544  0.00  0.00    -0.307 N 
ATOM     21  C   UNL     1      -2.575  -0.443   1.933  0.00  0.00    +0.233 C 
ATOM     22  O   UNL     1      -2.647   0.574   2.590  0.00  0.00    -0.274 OA
ATOM     23  H   UNL     1      -2.547  -2.566   1.948  0.00  0.00    +0.149 HD
BRANCH  20  27
ATOM     24  C   UNL     1      -3.943  -4.523   6.339  0.00  0.00    +0.055 C 
ATOM     25  C   UNL     1      -3.224  -3.245   5.902  0.00  0.00    +0.107 C 
ATOM     26  C   UNL     1      -3.371  -3.061   4.387  0.00  0.00    +0.074 C 
ATOM     27  C   UNL     1      -2.740  -1.721   4.001  0.00  0.00    +0.110 C 
ATOM     28  C   UNL     1      -1.376  -1.602   4.631  0.00  0.00    +0.015 A 
ATOM     29  C   UNL     1      -0.490  -0.662   4.131  0.00  0.00    +0.009 A 
ATOM     30  C   UNL     1       0.767  -0.524   4.686  0.00  0.00    +0.001 A 
ATOM     31  C   UNL     1       1.145  -1.325   5.748  0.00  0.00    +0.004 A 
ATOM     32  C   UNL     1       0.268  -2.263   6.250  0.00  0.00    +0.046 A 
ATOM     33  C   UNL     1      -0.999  -2.407   5.692  0.00  0.00    +0.126 A 
ATOM     34  O   UNL     1      -1.833  -3.345   6.211  0.00  0.00    -0.486 OA
ATOM     35  C   UNL     1      -3.827  -2.041   6.629  0.00  0.00    +0.055 C 
ENDBRANCH  20  27
ENDBRANCH  19  21
ENDBRANCH   1  19
TORSDOF 6
