REMARK  Name = ZINC06088928
REMARK  8 active torsions:
REMARK  status: ('A' for Active; 'I' for Inactive)
REMARK    1  A    between atoms: C_1  and  C_2
REMARK    2  A    between atoms: C_5  and  S_8
REMARK    3  A    between atoms: S_8  and  N_11
REMARK    4  A    between atoms: N_11  and  C_12
REMARK    5  A    between atoms: C_17  and  C_18
REMARK    6  A    between atoms: C_18  and  C_20
REMARK    7  A    between atoms: C_18  and  N_58
REMARK    8  A    between atoms: C_21  and  C_22
REMARK                            x       y       z     vdW  Elec       q    Type
REMARK                         _______ _______ _______ _____ _____    ______ ____
ROOT
ATOM      1  C   UNL     1       7.513  -0.529  -1.245  0.00  0.00    +0.051 A 
ATOM      2  C   UNL     1       8.608   0.321  -1.156  0.00  0.00    +0.025 A 
ATOM      3  C   UNL     1       9.311   0.417   0.029  0.00  0.00    +0.002 A 
ATOM      4  C   UNL     1       8.921  -0.326   1.128  0.00  0.00    +0.000 A 
ATOM      5  C   UNL     1       7.828  -1.169   1.044  0.00  0.00    +0.005 A 
ATOM      6  C   UNL     1       7.121  -1.270  -0.138  0.00  0.00    -0.027 A 
ENDROOT
BRANCH   1   7
ATOM      7  N   UNL     1       6.803  -0.633  -2.444  0.00  0.00    -0.216 N 
ATOM      8  H   UNL     1       5.842  -0.760  -2.429  0.00  0.00    +0.174 HD
BRANCH   7   9
ATOM      9  S   UNL     1       7.604  -0.541  -3.891  0.00  0.00    +0.072 S 
ATOM     10  O   UNL     1       6.646  -0.813  -4.904  0.00  0.00    -0.150 OA
ATOM     11  O   UNL     1       8.361   0.661  -3.860  0.00  0.00    -0.150 OA
BRANCH   9  16
ATOM     12  C   UNL     1      11.581  -5.078  -4.021  0.00  0.00    +0.044 C 
ATOM     13  C   UNL     1      10.588  -3.945  -3.988  0.00  0.00    -0.050 A 
ATOM     14  C   UNL     1       9.307  -4.134  -4.474  0.00  0.00    +0.005 A 
ATOM     15  C   UNL     1       8.396  -3.094  -4.445  0.00  0.00    +0.029 A 
ATOM     16  C   UNL     1       8.765  -1.866  -3.928  0.00  0.00    +0.109 A 
ATOM     17  C   UNL     1      10.047  -1.676  -3.447  0.00  0.00    +0.029 A 
ATOM     18  C   UNL     1      10.957  -2.717  -3.472  0.00  0.00    +0.005 A 
ENDBRANCH   9  16
ENDBRANCH   7   9
ENDBRANCH   1   7
BRANCH   6  19
ATOM     19  C   UNL     1       5.931  -2.190  -0.229  0.00  0.00    +0.042 C 
BRANCH  19  25
ATOM     20  C   UNL     1       7.267  -3.936   0.787  0.00  0.00    -0.048 C 
ATOM     21  C   UNL     1       7.325  -4.924   1.955  0.00  0.00    +0.141 C 
ATOM     22  O   UNL     1       6.185  -5.786   1.901  0.00  0.00    -0.383 OA
ATOM     23  C   UNL     1       4.936  -5.092   1.956  0.00  0.00    +0.141 C 
ATOM     24  C   UNL     1       4.853  -4.106   0.788  0.00  0.00    -0.048 C 
ATOM     25  N   UNL     1       6.001  -3.178   0.869  0.00  0.00    +0.395 N 
ATOM     26  H   UNL     1       5.966  -2.682   1.768  0.00  0.00    -0.079 HD
ENDBRANCH  19  25
BRANCH  19  27
ATOM     27  C   UNL     1       4.693  -1.405  -0.087  0.00  0.00    -0.108 C 
ATOM     28  C   UNL     1       3.706  -0.780   0.025  0.00  0.00    -0.068 C 
BRANCH  28  29
ATOM     29  C   UNL     1       2.502  -0.016   0.163  0.00  0.00    +0.025 A 
ATOM     30  C   UNL     1       1.261  -0.651   0.113  0.00  0.00    +0.017 A 
ATOM     31  C   UNL     1       0.104   0.090   0.246  0.00  0.00    +0.001 A 
ATOM     32  C   UNL     1       0.174   1.459   0.430  0.00  0.00    +0.000 A 
ATOM     33  C   UNL     1       1.402   2.095   0.481  0.00  0.00    +0.001 A 
ATOM     34  C   UNL     1       2.566   1.365   0.349  0.00  0.00    +0.017 A 
ENDBRANCH  28  29
ENDBRANCH  19  27
ENDBRANCH   6  19
TORSDOF 7
