REMARK  Name = ZINC06409321
REMARK  9 active torsions:
REMARK  status: ('A' for Active; 'I' for Inactive)
REMARK    1  A    between atoms: C_1  and  C_2
REMARK    2  A    between atoms: C_9  and  C_14
REMARK    3  A    between atoms: C_14  and  C_16
REMARK    4  A    between atoms: C_14  and  N_64
REMARK    5  A    between atoms: N_20  and  C_21
REMARK    6  A    between atoms: C_21  and  C_22
REMARK    7  A    between atoms: C_25  and  O_28
REMARK    8  A    between atoms: O_28  and  C_29
REMARK    9  A    between atoms: C_32  and  C_35
REMARK                            x       y       z     vdW  Elec       q    Type
REMARK                         _______ _______ _______ _____ _____    ______ ____
ROOT
ATOM      1  C   UNL     1       2.462   1.480   2.196  0.00  0.00    +0.039 C 
ENDROOT
BRANCH   1  10
ATOM      2  C   UNL     1       6.322  -4.254  -0.603  0.00  0.00    +0.044 C 
ATOM      3  C   UNL     1       5.768  -3.492   0.573  0.00  0.00    -0.050 A 
ATOM      4  C   UNL     1       5.999  -3.953   1.862  0.00  0.00    +0.005 A 
ATOM      5  C   UNL     1       5.502  -3.272   2.952  0.00  0.00    +0.026 A 
ATOM      6  C   UNL     1       4.760  -2.111   2.761  0.00  0.00    +0.049 A 
ATOM      7  C   UNL     1       4.528  -1.647   1.453  0.00  0.00    -0.001 A 
ATOM      8  C   UNL     1       5.042  -2.354   0.361  0.00  0.00    +0.013 A 
ATOM      9  C   UNL     1       3.741  -0.427   1.262  0.00  0.00    +0.017 A 
ATOM     10  C   UNL     1       3.271   0.219   2.357  0.00  0.00    +0.011 A 
ATOM     11  C   UNL     1       3.533  -0.288   3.648  0.00  0.00    +0.251 A 
ATOM     12  O   UNL     1       3.098   0.306   4.620  0.00  0.00    -0.268 OA
ATOM     13  N   UNL     1       4.250  -1.410   3.833  0.00  0.00    -0.322 N 
ATOM     14  H   UNL     1       4.411  -1.731   4.734  0.00  0.00    +0.169 HD
ENDBRANCH   1  10
BRANCH   1  21
ATOM     15  C   UNL     1       4.507   2.733   2.523  0.00  0.00    -0.077 C 
ATOM     16  C   UNL     1       5.185   3.779   3.411  0.00  0.00    -0.015 C 
ATOM     17  C   UNL     1       4.441   5.111   3.283  0.00  0.00    -0.018 C 
ATOM     18  C   UNL     1       2.974   4.906   3.672  0.00  0.00    -0.015 C 
ATOM     19  C   UNL     1       2.360   3.828   2.776  0.00  0.00    -0.077 C 
ATOM     20  C   UNL     1       5.078   6.144   4.215  0.00  0.00    +0.007 C 
ATOM     21  N   UNL     1       3.106   2.566   2.964  0.00  0.00    +0.389 N 
ATOM     22  H   UNL     1       3.098   2.319   3.961  0.00  0.00    -0.080 HD
ENDBRANCH   1  21
BRANCH   1  23
ATOM     23  C   UNL     1       2.380   1.841   0.735  0.00  0.00    +0.143 A 
ATOM     24  N   UNL     1       3.351   2.306  -0.012  0.00  0.00    -0.115 NA
ATOM     25  N   UNL     1       2.885   2.494  -1.198  0.00  0.00    -0.023 NA
ATOM     26  N   UNL     1       1.643   2.156  -1.229  0.00  0.00    -0.044 NA
ATOM     27  N   UNL     1       1.295   1.745  -0.056  0.00  0.00    -0.226 N 
BRANCH  27  28
ATOM     28  C   UNL     1      -0.033   1.270   0.340  0.00  0.00    +0.182 C 
BRANCH  28  29
ATOM     29  C   UNL     1      -0.157  -0.198   0.021  0.00  0.00    -0.026 A 
ATOM     30  C   UNL     1      -0.534  -0.599  -1.248  0.00  0.00    +0.009 A 
ATOM     31  C   UNL     1      -0.643  -1.943  -1.545  0.00  0.00    +0.046 A 
ATOM     32  C   UNL     1      -0.385  -2.892  -0.566  0.00  0.00    +0.120 A 
ATOM     33  C   UNL     1      -0.012  -2.487   0.708  0.00  0.00    +0.046 A 
ATOM     34  C   UNL     1       0.101  -1.141   0.998  0.00  0.00    +0.009 A 
BRANCH  32  35
ATOM     35  O   UNL     1      -0.496  -4.215  -0.855  0.00  0.00    -0.495 OA
ATOM     36  C   UNL     1      -0.884  -4.559  -2.186  0.00  0.00    +0.277 C 
ENDBRANCH  32  35
ENDBRANCH  28  29
ENDBRANCH  27  28
ENDBRANCH   1  23
TORSDOF 6
