REMARK  Name = ZINC03289905
REMARK  8 active torsions:
REMARK  status: ('A' for Active; 'I' for Inactive)
REMARK    1  A    between atoms: C_1  and  C_2
REMARK    2  A    between atoms: N_5  and  C_7
REMARK    3  A    between atoms: N_15  and  C_34
REMARK    4  A    between atoms: C_23  and  C_25
REMARK    5  A    between atoms: C_28  and  O_32
REMARK    6  A    between atoms: C_29  and  O_31
REMARK    7  A    between atoms: O_32  and  C_33
REMARK    8  A    between atoms: C_34  and  C_35
REMARK                            x       y       z     vdW  Elec       q    Type
REMARK                         _______ _______ _______ _____ _____    ______ ____
ROOT
ATOM      1  C   UNL     1      -4.804  -1.044   4.777  0.00  0.00    +0.068 C 
ATOM      2  C   UNL     1      -5.554  -1.862   3.757  0.00  0.00    +0.068 A 
ATOM      3  C   UNL     1      -6.053  -1.393   2.550  0.00  0.00    +0.045 A 
ATOM      4  C   UNL     1      -6.674  -2.444   1.900  0.00  0.00    +0.165 A 
ATOM      5  N   UNL     1      -6.546  -3.535   2.716  0.00  0.00    -0.214 N 
ATOM      6  N   UNL     1      -5.846  -3.136   3.861  0.00  0.00    -0.169 NA
ATOM      7  N   UNL     1      -7.252  -2.262   0.691  0.00  0.00    -0.198 NA
ATOM      8  C   UNL     1      -7.281  -1.120   0.040  0.00  0.00    +0.197 C 
ATOM      9  N   UNL     1      -7.831  -0.811  -1.181  0.00  0.00    -0.267 N 
ATOM     10  C   UNL     1      -7.601   0.537  -1.441  0.00  0.00    +0.058 A 
ATOM     11  C   UNL     1      -7.931   1.362  -2.506  0.00  0.00    +0.025 A 
ATOM     12  C   UNL     1      -7.561   2.693  -2.487  0.00  0.00    +0.002 A 
ATOM     13  C   UNL     1      -6.862   3.207  -1.408  0.00  0.00    +0.002 A 
ATOM     14  C   UNL     1      -6.529   2.394  -0.343  0.00  0.00    +0.025 A 
ATOM     15  C   UNL     1      -6.896   1.055  -0.353  0.00  0.00    +0.059 A 
ATOM     16  N   UNL     1      -6.710   0.015   0.549  0.00  0.00    -0.259 N 
ATOM     17  C   UNL     1      -6.045  -0.047   1.862  0.00  0.00    +0.147 C 
ENDROOT
BRANCH   5  18
ATOM     18  C   UNL     1      -7.032  -4.822   2.453  0.00  0.00    +0.068 A 
ATOM     19  C   UNL     1      -8.233  -4.988   1.776  0.00  0.00    +0.028 A 
ATOM     20  C   UNL     1      -8.707  -6.258   1.514  0.00  0.00    +0.002 A 
ATOM     21  C   UNL     1      -7.992  -7.365   1.934  0.00  0.00    +0.000 A 
ATOM     22  C   UNL     1      -6.798  -7.203   2.614  0.00  0.00    +0.002 A 
ATOM     23  C   UNL     1      -6.316  -5.935   2.874  0.00  0.00    +0.028 A 
ENDBRANCH   5  18
BRANCH  17  24
ATOM     24  C   UNL     1      -4.611   0.380   1.683  0.00  0.00    -0.018 A 
ATOM     25  C   UNL     1      -3.904  -0.030   0.568  0.00  0.00    +0.009 A 
ATOM     26  C   UNL     1      -2.590   0.365   0.396  0.00  0.00    +0.050 A 
ATOM     27  C   UNL     1      -1.976   1.163   1.348  0.00  0.00    +0.161 A 
ATOM     28  C   UNL     1      -2.688   1.575   2.470  0.00  0.00    +0.159 A 
ATOM     29  C   UNL     1      -4.006   1.181   2.634  0.00  0.00    +0.055 A 
BRANCH  28  30
ATOM     30  O   UNL     1      -2.092   2.363   3.405  0.00  0.00    -0.503 OA
ATOM     31  H   UNL     1      -2.656   2.688   4.291  0.00  0.00    +0.292 HD
ENDBRANCH  28  30
BRANCH  27  32
ATOM     32  O   UNL     1      -0.682   1.547   1.184  0.00  0.00    -0.491 OA
ATOM     33  C   UNL     1      -0.013   1.086   0.008  0.00  0.00    +0.277 C 
ENDBRANCH  27  32
ENDBRANCH  17  24
BRANCH   9  34
ATOM     34  C   UNL     1      -8.541  -1.743  -2.061  0.00  0.00    +0.148 C 
BRANCH  34  35
ATOM     35  C   UNL     1      -7.558  -2.395  -2.999  0.00  0.00    -0.030 A 
ATOM     36  C   UNL     1      -7.285  -1.817  -4.225  0.00  0.00    +0.005 A 
ATOM     37  C   UNL     1      -6.379  -2.413  -5.083  0.00  0.00    +0.000 A 
ATOM     38  C   UNL     1      -5.755  -3.592  -4.721  0.00  0.00    +0.000 A 
ATOM     39  C   UNL     1      -6.033  -4.173  -3.497  0.00  0.00    +0.000 A 
ATOM     40  C   UNL     1      -6.934  -3.575  -2.637  0.00  0.00    +0.005 A 
ENDBRANCH  34  35
ENDBRANCH   9  34
TORSDOF 6
