REMARK  Name = ZINC02262280
REMARK  8 active torsions:
REMARK  status: ('A' for Active; 'I' for Inactive)
REMARK    1  A    between atoms: C_4  and  C_7
REMARK    2  A    between atoms: C_10  and  S_18
REMARK    3  A    between atoms: N_11  and  C_12
REMARK    4  A    between atoms: S_18  and  C_19
REMARK    5  A    between atoms: C_19  and  C_20
REMARK    6  A    between atoms: N_22  and  N_23
REMARK    7  A    between atoms: C_24  and  C_25
REMARK    8  A    between atoms: C_29  and  N_31
REMARK                            x       y       z     vdW  Elec       q    Type
REMARK                         _______ _______ _______ _____ _____    ______ ____
ROOT
ATOM      1  S   UNL     1      -0.224  -2.424  -2.385  0.00  0.00    -0.076 S 
ENDROOT
BRANCH   1   5
ATOM      2  C   UNL     1       1.813  -2.911   0.917  0.00  0.00    +0.169 A 
ATOM      3  N   UNL     1       1.633  -4.144   0.502  0.00  0.00    -0.128 NA
ATOM      4  N   UNL     1       0.968  -4.145  -0.597  0.00  0.00    -0.122 NA
ATOM      5  C   UNL     1       0.676  -2.914  -0.951  0.00  0.00    +0.197 A 
ATOM      6  N   UNL     1       1.200  -2.083   0.002  0.00  0.00    -0.270 N 
BRANCH   2  10
ATOM      7  C   UNL     1       3.882  -1.703   4.424  0.00  0.00    +0.000 A 
ATOM      8  C   UNL     1       3.014  -0.825   3.800  0.00  0.00    +0.001 A 
ATOM      9  C   UNL     1       2.339  -1.211   2.660  0.00  0.00    +0.011 A 
ATOM     10  C   UNL     1       2.533  -2.490   2.138  0.00  0.00    +0.020 A 
ATOM     11  C   UNL     1       3.405  -3.373   2.776  0.00  0.00    +0.011 A 
ATOM     12  C   UNL     1       4.079  -2.973   3.911  0.00  0.00    +0.001 A 
ENDBRANCH   2  10
BRANCH   6  13
ATOM     13  C   UNL     1       1.133  -0.684   0.036  0.00  0.00    +0.051 A 
ATOM     14  C   UNL     1      -0.084  -0.051   0.247  0.00  0.00    +0.026 A 
ATOM     15  C   UNL     1      -0.147   1.329   0.280  0.00  0.00    +0.002 A 
ATOM     16  C   UNL     1       1.001   2.079   0.104  0.00  0.00    +0.000 A 
ATOM     17  C   UNL     1       2.215   1.451  -0.106  0.00  0.00    +0.002 A 
ATOM     18  C   UNL     1       2.284   0.072  -0.140  0.00  0.00    +0.026 A 
ENDBRANCH   6  13
ENDBRANCH   1   5
BRANCH   1  19
ATOM     19  C   UNL     1      -0.562  -4.045  -3.113  0.00  0.00    +0.174 C 
BRANCH  19  20
ATOM     20  C   UNL     1      -1.346  -3.870  -4.388  0.00  0.00    +0.242 C 
ATOM     21  O   UNL     1      -1.646  -2.757  -4.768  0.00  0.00    -0.273 OA
ATOM     22  N   UNL     1      -1.713  -4.949  -5.108  0.00  0.00    -0.206 N 
ATOM     23  H   UNL     1      -1.473  -5.838  -4.805  0.00  0.00    +0.177 HD
BRANCH  22  24
ATOM     24  N   UNL     1      -2.441  -4.785  -6.293  0.00  0.00    -0.188 NA
ATOM     25  C   UNL     1      -2.795  -5.824  -6.986  0.00  0.00    +0.138 C 
BRANCH  25  26
ATOM     26  C   UNL     1      -3.562  -5.652  -8.234  0.00  0.00    -0.003 A 
ATOM     27  C   UNL     1      -3.914  -4.372  -8.670  0.00  0.00    +0.011 A 
ATOM     28  C   UNL     1      -4.627  -4.218  -9.840  0.00  0.00    +0.023 A 
ATOM     29  C   UNL     1      -5.003  -5.329 -10.578  0.00  0.00    +0.071 A 
ATOM     30  C   UNL     1      -4.661  -6.600 -10.148  0.00  0.00    +0.145 A 
ATOM     31  C   UNL     1      -3.944  -6.768  -8.982  0.00  0.00    +0.043 A 
ATOM     32 CL   UNL     1      -5.906  -5.127 -12.046  0.00  0.00    -0.081 Cl
BRANCH  30  33
ATOM     33  N   UNL     1      -5.066  -7.782 -10.942  0.00  0.00    +0.058 N 
ATOM     34  O   UNL     1      -4.766  -8.901 -10.566  0.00  0.00    -0.126 OA
ATOM     35  O   UNL     1      -5.700  -7.635 -11.972  0.00  0.00    -0.126 OA
ENDBRANCH  30  33
ENDBRANCH  25  26
ENDBRANCH  22  24
ENDBRANCH  19  20
ENDBRANCH   1  19
TORSDOF 8
