REMARK  Name = ZINC54206582
REMARK  6 active torsions:
REMARK  status: ('A' for Active; 'I' for Inactive)
REMARK    1  A    between atoms: C_3  and  C_10
REMARK    2  A    between atoms: C_5  and  N_7
REMARK    3  A    between atoms: C_10  and  S_11
REMARK    4  A    between atoms: S_11  and  C_12
REMARK    5  A    between atoms: N_22  and  C_23
REMARK    6  A    between atoms: C_23  and  C_24
REMARK                            x       y       z     vdW  Elec       q    Type
REMARK                         _______ _______ _______ _____ _____    ______ ____
ROOT
ATOM      1  C   UNL     1       5.714   3.382   1.506  0.00  0.00    +0.174 A 
ATOM      2  N   UNL     1       6.138   3.653   0.295  0.00  0.00    -0.203 NA
ATOM      3  C   UNL     1       7.279   4.336   0.081  0.00  0.00    +0.168 A 
ATOM      4  C   UNL     1       8.036   4.768   1.195  0.00  0.00    +0.084 A 
ATOM      5  C   UNL     1       9.220   5.476   0.990  0.00  0.00    +0.018 A 
ATOM      6  C   UNL     1       9.607   5.726  -0.315  0.00  0.00    +0.021 A 
ATOM      7  C   UNL     1       8.819   5.274  -1.362  0.00  0.00    +0.113 A 
ATOM      8  N   UNL     1       7.703   4.607  -1.151  0.00  0.00    -0.235 NA
ATOM      9  C   UNL     1       7.542   4.453   2.542  0.00  0.00    +0.264 A 
ATOM     10  O   UNL     1       8.151   4.800   3.536  0.00  0.00    -0.267 OA
ATOM     11  N   UNL     1       6.379   3.766   2.634  0.00  0.00    -0.285 N 
ENDROOT
BRANCH   1  12
ATOM     12  S   UNL     1       4.208   2.483   1.684  0.00  0.00    -0.083 S 
BRANCH  12  13
ATOM     13  C   UNL     1       3.672   2.182  -0.022  0.00  0.00    +0.112 C 
BRANCH  13  16
ATOM     14  C   UNL     1      -0.017   1.378   0.010  0.00  0.00    +0.003 A 
ATOM     15  C   UNL     1       1.171   2.085   0.002  0.00  0.00    +0.004 A 
ATOM     16  C   UNL     1       2.377   1.411  -0.013  0.00  0.00    -0.035 A 
ATOM     17  C   UNL     1       2.396   0.028  -0.020  0.00  0.00    +0.037 A 
ATOM     18  C   UNL     1       1.209  -0.679  -0.012  0.00  0.00    +0.126 A 
ATOM     19  C   UNL     1       0.002  -0.004   0.002  0.00  0.00    +0.033 A 
BRANCH  18  20
ATOM     20  N   UNL     1       1.229  -2.159  -0.020  0.00  0.00    +0.056 N 
ATOM     21  O   UNL     1       2.284  -2.749  -0.035  0.00  0.00    -0.126 OA
ATOM     22  O   UNL     1       0.190  -2.778  -0.013  0.00  0.00    -0.126 OA
ENDBRANCH  18  20
ENDBRANCH  13  16
ENDBRANCH  12  13
ENDBRANCH   1  12
BRANCH  11  23
ATOM     23  C   UNL     1       5.834   3.428   3.951  0.00  0.00    +0.159 C 
BRANCH  23  24
ATOM     24  C   UNL     1       6.382   2.071   4.397  0.00  0.00    +0.138 C 
ATOM     25  C   UNL     1       5.791   1.679   5.774  0.00  0.00    +0.035 C 
ATOM     26  C   UNL     1       5.919   0.132   5.720  0.00  0.00    +0.031 C 
ATOM     27  C   UNL     1       5.681  -0.165   4.224  0.00  0.00    +0.160 C 
ATOM     28  O   UNL     1       5.953   1.039   3.495  0.00  0.00    -0.375 OA
ENDBRANCH  23  24
ENDBRANCH  11  23
TORSDOF 6
