REMARK  Name = ZINC19521663
REMARK  10 active torsions:
REMARK  status: ('A' for Active; 'I' for Inactive)
REMARK    1  A    between atoms: C_1  and  C_2
REMARK    2  A    between atoms: C_2  and  C_3
REMARK    3  A    between atoms: C_4  and  C_29
REMARK    4  A    between atoms: C_8  and  C_13
REMARK    5  A    between atoms: N_17  and  C_19
REMARK    6  A    between atoms: C_19  and  C_20
REMARK    7  A    between atoms: C_20  and  C_21
REMARK    8  A    between atoms: C_20  and  C_22
REMARK    9  A    between atoms: C_20  and  C_23
REMARK   10  A    between atoms: C_23  and  N_24
REMARK                            x       y       z     vdW  Elec       q    Type
REMARK                         _______ _______ _______ _____ _____    ______ ____
ROOT
ATOM      1  C   UNL     1       1.476  -2.416  -7.463  0.00  0.00    +0.021 C 
ATOM      2  C   UNL     1       2.628  -3.396  -7.807  0.00  0.00    -0.011 C 
ATOM      3  C   UNL     1       2.956  -3.047  -9.274  0.00  0.00    -0.078 C 
ATOM      4  N   UNL     1       2.476  -1.674  -9.514  0.00  0.00    +0.380 N 
ATOM      5  C   UNL     1       1.890  -1.153  -8.260  0.00  0.00    -0.069 C 
ATOM      6  H   UNL     1       1.774  -1.682 -10.239  0.00  0.00    -0.082 HD
ENDROOT
BRANCH   1  12
ATOM      7  C   UNL     1       0.678  -1.198  -1.615  0.00  0.00    +0.037 A 
ATOM      8  C   UNL     1       2.017  -1.372  -1.539  0.00  0.00    +0.023 A 
ATOM      9  N   UNL     1       2.727  -1.684  -2.659  0.00  0.00    -0.343 N 
ATOM     10  C   UNL     1       2.082  -1.822  -3.873  0.00  0.00    +0.138 A 
ATOM     11  C   UNL     1       2.532  -2.122  -5.124  0.00  0.00    +0.071 A 
ATOM     12  C   UNL     1       1.433  -2.130  -5.984  0.00  0.00    +0.067 A 
ATOM     13  N   UNL     1       0.357  -1.848  -5.292  0.00  0.00    -0.167 NA
ATOM     14  N   UNL     1       0.730  -1.648  -3.957  0.00  0.00    -0.180 N 
ATOM     15  C   UNL     1       0.020  -1.346  -2.852  0.00  0.00    +0.278 A 
ATOM     16  O   UNL     1      -1.187  -1.196  -2.924  0.00  0.00    -0.265 OA
ATOM     17  C   UNL     1       2.724  -1.221  -0.216  0.00  0.00    +0.064 C 
ATOM     18  H   UNL     1       3.688  -1.808  -2.604  0.00  0.00    +0.167 HD
BRANCH   7  20
ATOM     19  C   UNL     1      -0.292   0.663  -0.294  0.00  0.00    +0.009 C 
ATOM     20  C   UNL     1      -0.110  -0.854  -0.377  0.00  0.00    +0.039 C 
ENDBRANCH   7  20
ENDBRANCH   1  12
BRANCH   4  21
ATOM     21  C   UNL     1       3.600  -0.823  -9.927  0.00  0.00    -0.074 C 
BRANCH  21  22
ATOM     22  C   UNL     1       3.071   0.548 -10.354  0.00  0.00    -0.064 C 
ATOM     23  C   UNL     1       2.510   1.282  -9.134  0.00  0.00    +0.007 C 
ATOM     24  C   UNL     1       4.211   1.367 -10.962  0.00  0.00    +0.007 C 
BRANCH  22  25
ATOM     25  C   UNL     1       1.963   0.366 -11.394  0.00  0.00    -0.074 C 
BRANCH  25  26
ATOM     26  N   UNL     1       1.566   1.678 -11.921  0.00  0.00    +0.380 N 
ATOM     27  C   UNL     1       0.872   2.448 -10.868  0.00  0.00    -0.079 C 
ATOM     28  C   UNL     1      -0.230   3.238 -11.617  0.00  0.00    -0.020 C 
ATOM     29  C   UNL     1      -0.675   2.213 -12.693  0.00  0.00    -0.020 C 
ATOM     30  C   UNL     1       0.644   1.498 -13.057  0.00  0.00    -0.079 C 
ATOM     31  H   UNL     1       2.385   2.184 -12.225  0.00  0.00    -0.082 HD
ENDBRANCH  25  26
ENDBRANCH  22  25
ENDBRANCH  21  22
ENDBRANCH   4  21
TORSDOF 6
