REMARK  Name = ZINC39916521
REMARK  4 active torsions:
REMARK  status: ('A' for Active; 'I' for Inactive)
REMARK    1  A    between atoms: C_6  and  S_11
REMARK    2  A    between atoms: S_11  and  N_14
REMARK    3  A    between atoms: C_23  and  C_25
REMARK    4  A    between atoms: N_27  and  C_28
REMARK                            x       y       z     vdW  Elec       q    Type
REMARK                         _______ _______ _______ _____ _____    ______ ____
ROOT
ATOM      1  N   UNL     1       5.851  -3.399   1.501  0.00  0.00    -0.160 NA
ATOM      2  C   UNL     1       6.622  -2.474   2.339  0.00  0.00    +0.145 C 
ATOM      3  C   UNL     1       7.483  -3.256   3.299  0.00  0.00    -0.028 A 
ATOM      4  C   UNL     1       8.459  -2.565   4.003  0.00  0.00    +0.005 A 
ATOM      5  C   UNL     1       9.271  -3.224   4.903  0.00  0.00    +0.000 A 
ATOM      6  C   UNL     1       9.111  -4.582   5.106  0.00  0.00    +0.000 A 
ATOM      7  C   UNL     1       8.143  -5.270   4.403  0.00  0.00    +0.004 A 
ATOM      8  C   UNL     1       7.328  -4.611   3.492  0.00  0.00    -0.041 A 
ATOM      9  C   UNL     1       6.312  -5.432   2.742  0.00  0.00    +0.065 C 
ATOM     10  C   UNL     1       5.204  -4.540   2.171  0.00  0.00    +0.170 C 
ENDROOT
BRANCH  10  11
ATOM     11  C   UNL     1       4.382  -5.316   1.175  0.00  0.00    +0.236 C 
ATOM     12  O   UNL     1       4.904  -6.175   0.496  0.00  0.00    -0.274 OA
ATOM     13  N   UNL     1       3.066  -5.056   1.039  0.00  0.00    -0.284 N 
ATOM     14  H   UNL     1       2.637  -4.410   1.621  0.00  0.00    +0.155 HD
BRANCH  13  15
ATOM     15  C   UNL     1       2.322  -5.716   0.059  0.00  0.00    +0.041 A 
ATOM     16  C   UNL     1       2.649  -7.002  -0.313  0.00  0.00    +0.024 A 
ATOM     17  C   UNL     1       1.913  -7.669  -1.288  0.00  0.00    +0.002 A 
ATOM     18  C   UNL     1       0.853  -7.073  -1.900  0.00  0.00    +0.008 A 
ATOM     19  C   UNL     1       0.486  -5.763  -1.548  0.00  0.00    -0.016 A 
ATOM     20  C   UNL     1       1.224  -5.075  -0.553  0.00  0.00    +0.003 A 
ATOM     21  C   UNL     1       0.854  -3.768  -0.200  0.00  0.00    +0.010 A 
ATOM     22  C   UNL     1      -0.210  -3.180  -0.813  0.00  0.00    +0.001 A 
ATOM     23  C   UNL     1      -0.941  -3.858  -1.787  0.00  0.00    +0.001 A 
ATOM     24  C   UNL     1      -0.604  -5.122  -2.163  0.00  0.00    +0.008 A 
ENDBRANCH  13  15
ENDBRANCH  10  11
BRANCH   1  25
ATOM     25  S   UNL     1       5.708  -3.166  -0.132  0.00  0.00    +0.062 S 
ATOM     26  O   UNL     1       5.984  -1.792  -0.372  0.00  0.00    -0.153 OA
ATOM     27  O   UNL     1       4.487  -3.777  -0.525  0.00  0.00    -0.153 OA
BRANCH  25  33
ATOM     28  C   UNL     1       9.821  -7.440  -3.268  0.00  0.00    +0.001 A 
ATOM     29  C   UNL     1       8.535  -7.976  -3.219  0.00  0.00    +0.001 A 
ATOM     30  C   UNL     1       7.514  -7.295  -2.631  0.00  0.00    +0.008 A 
ATOM     31  C   UNL     1       7.757  -6.033  -2.062  0.00  0.00    -0.016 A 
ATOM     32  C   UNL     1       6.728  -5.300  -1.445  0.00  0.00    +0.037 A 
ATOM     33  C   UNL     1       7.001  -4.081  -0.904  0.00  0.00    +0.106 A 
ATOM     34  C   UNL     1       8.287  -3.546  -0.952  0.00  0.00    +0.029 A 
ATOM     35  C   UNL     1       9.307  -4.227  -1.541  0.00  0.00    +0.010 A 
ATOM     36  C   UNL     1       9.064  -5.489  -2.111  0.00  0.00    -0.018 A 
ATOM     37  C   UNL     1      10.093  -6.221  -2.727  0.00  0.00    +0.008 A 
ENDBRANCH  25  33
ENDBRANCH   1  25
TORSDOF 4
