REMARK  Name = ZINC15011942
REMARK  8 active torsions:
REMARK  status: ('A' for Active; 'I' for Inactive)
REMARK    1  A    between atoms: C_1  and  O_2
REMARK    2  A    between atoms: O_2  and  C_3
REMARK    3  A    between atoms: C_6  and  C_26
REMARK    4  A    between atoms: C_8  and  N_9
REMARK    5  A    between atoms: C_13  and  C_14
REMARK    6  A    between atoms: C_17  and  O_22
REMARK    7  A    between atoms: C_18  and  O_20
REMARK    8  A    between atoms: O_20  and  C_21
REMARK                            x       y       z     vdW  Elec       q    Type
REMARK                         _______ _______ _______ _____ _____    ______ ____
ROOT
ATOM      1  N   UNL     1       5.112   3.641  -0.261  0.00  0.00    -0.220 N 
ATOM      2  C   UNL     1       3.859   3.236  -0.142  0.00  0.00    +0.263 C 
ATOM      3  O   UNL     1       2.938   4.026  -0.049  0.00  0.00    -0.269 OA
ATOM      4  C   UNL     1       3.634   1.777  -0.126  0.00  0.00    +0.078 C 
ATOM      5  C   UNL     1       2.473   1.082  -0.016  0.00  0.00    +0.028 C 
ATOM      6  S   UNL     1       5.311   1.178  -0.284  0.00  0.00    -0.061 S 
ATOM      7  C   UNL     1       6.130   2.762  -0.363  0.00  0.00    +0.125 C 
ATOM      8  S   UNL     1       7.803   3.087  -0.523  0.00  0.00    -0.027 S 
ENDROOT
BRANCH   1  14
ATOM      9  C   UNL     1       5.417   5.705  -1.493  0.00  0.00    +0.142 A 
ATOM     10  C   UNL     1       5.685   7.065  -1.514  0.00  0.00    +0.048 A 
ATOM     11  C   UNL     1       5.937   7.739  -0.337  0.00  0.00    +0.012 A 
ATOM     12  C   UNL     1       5.917   7.056   0.878  0.00  0.00    -0.016 A 
ATOM     13  C   UNL     1       5.641   5.690   0.902  0.00  0.00    +0.036 A 
ATOM     14  C   UNL     1       5.389   5.016  -0.281  0.00  0.00    +0.085 A 
BRANCH  12  15
ATOM     15  C   UNL     1       6.187   7.781   2.143  0.00  0.00    -0.018 A 
ATOM     16  C   UNL     1       6.161   7.101   3.359  0.00  0.00    +0.008 A 
ATOM     17  C   UNL     1       6.419   7.780   4.533  0.00  0.00    +0.001 A 
ATOM     18  C   UNL     1       6.692   9.136   4.505  0.00  0.00    +0.000 A 
ATOM     19  C   UNL     1       6.713   9.817   3.301  0.00  0.00    +0.001 A 
ATOM     20  C   UNL     1       6.462   9.147   2.121  0.00  0.00    +0.008 A 
ENDBRANCH  12  15
BRANCH   9  22
ATOM     21  C   UNL     1       5.218   5.810  -3.860  0.00  0.00    +0.277 C 
ATOM     22  O   UNL     1       5.174   5.043  -2.655  0.00  0.00    -0.493 OA
ENDBRANCH   9  22
ENDBRANCH   1  14
BRANCH   5  23
ATOM     23  C   UNL     1       1.187   1.787  -0.072  0.00  0.00    -0.020 A 
ATOM     24  C   UNL     1       1.007   2.851  -0.965  0.00  0.00    +0.012 A 
ATOM     25  C   UNL     1      -0.201   3.511  -1.016  0.00  0.00    +0.050 A 
ATOM     26  C   UNL     1      -1.243   3.124  -0.183  0.00  0.00    +0.158 A 
ATOM     27  C   UNL     1      -1.075   2.062   0.704  0.00  0.00    +0.162 A 
ATOM     28  C   UNL     1       0.135   1.398   0.766  0.00  0.00    +0.057 A 
BRANCH  27  29
ATOM     29  O   UNL     1      -2.100   1.683   1.513  0.00  0.00    -0.491 OA
ATOM     30  C   UNL     1      -1.855   0.591   2.402  0.00  0.00    +0.277 C 
ENDBRANCH  27  29
BRANCH  26  31
ATOM     31  O   UNL     1      -2.432   3.778  -0.238  0.00  0.00    -0.503 OA
ATOM     32  H   UNL     1      -3.059   3.402  -0.871  0.00  0.00    +0.292 HD
ENDBRANCH  26  31
ENDBRANCH   5  23
TORSDOF 6
