REMARK  Name = ZINC06321364
REMARK  8 active torsions:
REMARK  status: ('A' for Active; 'I' for Inactive)
REMARK    1  A    between atoms: C_1  and  C_2
REMARK    2  A    between atoms: C_6  and  C_15
REMARK    3  A    between atoms: C_13  and  C_14
REMARK    4  A    between atoms: C_15  and  C_17
REMARK    5  A    between atoms: C_15  and  N_63
REMARK    6  A    between atoms: N_21  and  C_22
REMARK    7  A    between atoms: C_22  and  C_23
REMARK    8  A    between atoms: C_32  and  C_35
REMARK                            x       y       z     vdW  Elec       q    Type
REMARK                         _______ _______ _______ _____ _____    ______ ____
ROOT
ATOM      1  C   UNL     1      -4.986   3.843   0.045  0.00  0.00    +0.039 C 
ENDROOT
BRANCH   1   7
ATOM      2  C   UNL     1       2.459   3.674   0.441  0.00  0.00    +0.044 C 
ATOM      3  C   UNL     1       1.133   2.968   0.320  0.00  0.00    -0.047 A 
ATOM      4  C   UNL     1      -0.023   3.696   0.315  0.00  0.00    +0.013 A 
ATOM      5  C   UNL     1      -1.254   3.041   0.202  0.00  0.00    -0.001 A 
ATOM      6  C   UNL     1      -2.512   3.790   0.193  0.00  0.00    +0.017 A 
ATOM      7  C   UNL     1      -3.674   3.103   0.064  0.00  0.00    +0.011 A 
ATOM      8  C   UNL     1      -3.659   1.695  -0.042  0.00  0.00    +0.251 A 
ATOM      9  O   UNL     1      -4.715   1.096  -0.146  0.00  0.00    -0.268 OA
ATOM     10  N   UNL     1      -2.509   0.999  -0.029  0.00  0.00    -0.322 N 
ATOM     11  H   UNL     1      -2.535   0.032  -0.104  0.00  0.00    +0.169 HD
ATOM     12  C   UNL     1      -1.294   1.638   0.088  0.00  0.00    +0.049 A 
ATOM     13  C   UNL     1      -0.104   0.918   0.101  0.00  0.00    +0.030 A 
ATOM     14  C   UNL     1       1.098   1.585   0.214  0.00  0.00    -0.046 A 
ATOM     15  C   UNL     1       2.386   0.803   0.222  0.00  0.00    +0.044 C 
ENDBRANCH   1   7
BRANCH   1  22
ATOM     16  C   UNL     1      -7.094   4.045  -1.127  0.00  0.00    -0.077 C 
ATOM     17  C   UNL     1      -7.904   3.512  -2.311  0.00  0.00    -0.015 C 
ATOM     18  C   UNL     1      -7.193   3.879  -3.616  0.00  0.00    -0.018 C 
ATOM     19  C   UNL     1      -5.776   3.300  -3.596  0.00  0.00    -0.015 C 
ATOM     20  C   UNL     1      -5.027   3.840  -2.375  0.00  0.00    -0.077 C 
ATOM     21  C   UNL     1      -7.966   3.296  -4.801  0.00  0.00    +0.007 C 
ATOM     22  N   UNL     1      -5.749   3.432  -1.151  0.00  0.00    +0.389 N 
ATOM     23  H   UNL     1      -5.849   2.410  -1.148  0.00  0.00    -0.080 HD
ENDBRANCH   1  22
BRANCH   1  24
ATOM     24  C   UNL     1      -5.779   3.491   1.278  0.00  0.00    +0.143 A 
ATOM     25  N   UNL     1      -6.424   2.372   1.499  0.00  0.00    -0.115 NA
ATOM     26  N   UNL     1      -6.973   2.452   2.662  0.00  0.00    -0.023 NA
ATOM     27  N   UNL     1      -6.700   3.597   3.185  0.00  0.00    -0.044 NA
ATOM     28  N   UNL     1      -5.966   4.266   2.362  0.00  0.00    -0.226 N 
BRANCH  28  29
ATOM     29  C   UNL     1      -5.436   5.616   2.568  0.00  0.00    +0.182 C 
BRANCH  29  30
ATOM     30  C   UNL     1      -6.423   6.628   2.044  0.00  0.00    -0.026 A 
ATOM     31  C   UNL     1      -6.344   7.054   0.731  0.00  0.00    +0.008 A 
ATOM     32  C   UNL     1      -7.251   7.978   0.248  0.00  0.00    +0.038 A 
ATOM     33  C   UNL     1      -8.232   8.486   1.083  0.00  0.00    +0.123 A 
ATOM     34  C   UNL     1      -8.306   8.063   2.399  0.00  0.00    +0.038 A 
ATOM     35  C   UNL     1      -7.402   7.135   2.878  0.00  0.00    +0.008 A 
ATOM     36  F   UNL     1      -9.116   9.393   0.613  0.00  0.00    -0.205 F 
ENDBRANCH  29  30
ENDBRANCH  28  29
ENDBRANCH   1  24
TORSDOF 5
