REMARK  Name = ZINC13034005
REMARK  15 active torsions:
REMARK  status: ('A' for Active; 'I' for Inactive)
REMARK    1  A    between atoms: C_1  and  C_2
REMARK    2  A    between atoms: C_2  and  C_3
REMARK    3  A    between atoms: C_10  and  C_15
REMARK    4  A    between atoms: C_15  and  N_72
REMARK    5  A    between atoms: C_16  and  C_17
REMARK    6  A    between atoms: C_16  and  N_72
REMARK    7  A    between atoms: C_23  and  C_25
REMARK    8  A    between atoms: C_23  and  C_27
REMARK    9  A    between atoms: C_23  and  N_72
REMARK   10  A    between atoms: C_25  and  C_26
REMARK   11  A    between atoms: N_31  and  C_32
REMARK   12  A    between atoms: C_32  and  C_33
REMARK   13  A    between atoms: C_32  and  C_34
REMARK   14  A    between atoms: C_32  and  C_35
REMARK   15  A    between atoms: C_35  and  C_36
REMARK                            x       y       z     vdW  Elec       q    Type
REMARK                         _______ _______ _______ _____ _____    ______ ____
ROOT
ATOM      1  N   UNL     1      -2.054  -1.382   1.237  0.00  0.00    +0.391 N 
ATOM      2  H   UNL     1      -1.496  -1.923   1.908  0.00  0.00    -0.080 HD
ENDROOT
BRANCH   1   3
ATOM      3  C   UNL     1      -1.355  -1.366  -0.066  0.00  0.00    -0.036 C 
BRANCH   3  11
ATOM      4  C   UNL     1       4.572  -2.904   0.821  0.00  0.00    -0.047 A 
ATOM      5  C   UNL     1       5.051  -1.607   0.956  0.00  0.00    +0.005 A 
ATOM      6  C   UNL     1       4.197  -0.530   0.868  0.00  0.00    +0.026 A 
ATOM      7  C   UNL     1       2.841  -0.740   0.639  0.00  0.00    +0.049 A 
ATOM      8  C   UNL     1       2.359  -2.056   0.502  0.00  0.00    -0.001 A 
ATOM      9  C   UNL     1       3.245  -3.135   0.597  0.00  0.00    +0.013 A 
ATOM     10  C   UNL     1       0.931  -2.267   0.263  0.00  0.00    +0.017 A 
ATOM     11  C   UNL     1       0.120  -1.183   0.180  0.00  0.00    +0.001 A 
ATOM     12  C   UNL     1       0.654   0.116   0.325  0.00  0.00    +0.251 A 
ATOM     13  O   UNL     1      -0.092   1.077   0.242  0.00  0.00    -0.268 OA
ATOM     14  N   UNL     1       1.964   0.320   0.545  0.00  0.00    -0.322 N 
ATOM     15  H   UNL     1       2.298   1.226   0.640  0.00  0.00    +0.169 HD
BRANCH   4  17
ATOM     16  C   UNL     1       6.078  -4.396  -0.466  0.00  0.00    +0.009 C 
ATOM     17  C   UNL     1       5.526  -4.066   0.922  0.00  0.00    +0.032 C 
ENDBRANCH   4  17
ENDBRANCH   3  11
ENDBRANCH   1   3
BRANCH   1  18
ATOM     18  C   UNL     1      -2.209  -0.002   1.744  0.00  0.00    -0.045 C 
BRANCH  18  19
ATOM     19  C   UNL     1      -2.556  -0.062   3.233  0.00  0.00    +0.102 C 
ATOM     20  C   UNL     1      -2.811   1.358   3.784  0.00  0.00    +0.032 C 
ATOM     21  C   UNL     1      -2.210   1.323   5.207  0.00  0.00    +0.030 C 
ATOM     22  C   UNL     1      -1.663  -0.115   5.348  0.00  0.00    +0.160 C 
ATOM     23  O   UNL     1      -1.430  -0.555   3.992  0.00  0.00    -0.378 OA
ENDBRANCH  18  19
ENDBRANCH   1  18
BRANCH   1  24
ATOM     24  C   UNL     1      -3.380  -2.019   1.092  0.00  0.00    +0.003 C 
BRANCH  24  25
ATOM     25  C   UNL     1      -4.121  -1.432  -0.081  0.00  0.00    +0.139 A 
ATOM     26  N   UNL     1      -3.628  -1.168  -1.267  0.00  0.00    -0.115 NA
ATOM     27  N   UNL     1      -4.574  -0.678  -1.992  0.00  0.00    -0.023 NA
ATOM     28  N   UNL     1      -5.656  -0.615  -1.297  0.00  0.00    -0.043 NA
ATOM     29  N   UNL     1      -5.418  -1.071  -0.113  0.00  0.00    -0.225 N 
BRANCH  29  30
ATOM     30  C   UNL     1      -6.377  -1.175   0.989  0.00  0.00    +0.061 C 
ATOM     31  C   UNL     1      -6.397  -2.612   1.513  0.00  0.00    +0.036 C 
ATOM     32  C   UNL     1      -5.965  -0.227   2.116  0.00  0.00    +0.036 C 
BRANCH  30  33
ATOM     33  C   UNL     1      -7.772  -0.796   0.487  0.00  0.00    +0.026 C 
ATOM     34  C   UNL     1      -8.775  -0.905   1.638  0.00  0.00    +0.006 C 
ENDBRANCH  30  33
ENDBRANCH  29  30
ENDBRANCH  24  25
BRANCH  24  35
ATOM     35  C   UNL     1      -3.183  -3.520   0.871  0.00  0.00    -0.011 C 
ATOM     36  C   UNL     1      -2.535  -4.137   2.112  0.00  0.00    +0.002 C 
ENDBRANCH  24  35
ENDBRANCH   1  24
TORSDOF 10
