REMARK  Name = ZINC14169652
REMARK  10 active torsions:
REMARK  status: ('A' for Active; 'I' for Inactive)
REMARK    1  A    between atoms: C_1  and  C_2
REMARK    2  A    between atoms: C_2  and  C_4
REMARK    3  A    between atoms: C_2  and  N_51
REMARK    4  A    between atoms: C_9  and  C_10
REMARK    5  A    between atoms: C_9  and  N_51
REMARK    6  A    between atoms: N_12  and  C_13
REMARK    7  A    between atoms: C_17  and  S_19
REMARK    8  A    between atoms: S_19  and  N_22
REMARK    9  A    between atoms: N_22  and  C_23
REMARK   10  A    between atoms: N_22  and  C_24
REMARK                            x       y       z     vdW  Elec       q    Type
REMARK                         _______ _______ _______ _____ _____    ______ ____
ROOT
ATOM      1  C   UNL     1       2.486  -6.561   3.595  0.00  0.00    +0.035 A 
ATOM      2  C   UNL     1       1.097  -6.546   3.561  0.00  0.00    +0.023 A 
ATOM      3  C   UNL     1       0.380  -7.441   4.331  0.00  0.00    +0.004 A 
ATOM      4  C   UNL     1       1.042  -8.344   5.142  0.00  0.00    +0.029 A 
ATOM      5  C   UNL     1       2.424  -8.358   5.182  0.00  0.00    +0.110 A 
ATOM      6  C   UNL     1       3.147  -7.469   4.410  0.00  0.00    +0.052 A 
ENDROOT
BRANCH   1   9
ATOM      7  C   UNL     1       2.756  -5.295   1.599  0.00  0.00    +0.200 C 
ATOM      8  O   UNL     1       1.753  -5.809   1.151  0.00  0.00    -0.278 OA
ATOM      9  N   UNL     1       3.216  -5.660   2.812  0.00  0.00    -0.287 N 
ATOM     10  H   UNL     1       4.052  -5.298   3.143  0.00  0.00    +0.155 HD
BRANCH   7  11
ATOM     11  C   UNL     1       3.489  -4.250   0.799  0.00  0.00    +0.016 C 
BRANCH  11  12
ATOM     12  N   UNL     1       2.784  -4.037  -0.479  0.00  0.00    +0.389 N 
ATOM     13  H   UNL     1       2.757  -4.920  -1.002  0.00  0.00    -0.084 HD
ATOM     14  H   UNL     1       1.826  -3.722  -0.289  0.00  0.00    -0.084 HD
BRANCH  12  16
ATOM     15  C   UNL     1       4.605  -3.677  -2.086  0.00  0.00    -0.008 C 
ATOM     16  C   UNL     1       3.481  -3.016  -1.285  0.00  0.00    -0.037 C 
BRANCH  16  17
ATOM     17  C   UNL     1       2.498  -2.377  -2.231  0.00  0.00    -0.024 A 
ATOM     18  C   UNL     1       2.384  -1.076  -2.593  0.00  0.00    +0.009 A 
ATOM     19  C   UNL     1       1.395  -0.713  -3.487  0.00  0.00    +0.008 A 
ATOM     20  C   UNL     1       0.568  -1.669  -3.977  0.00  0.00    +0.045 A 
ATOM     21  S   UNL     1       1.182  -3.137  -3.167  0.00  0.00    -0.103 S 
ENDBRANCH  16  17
ENDBRANCH  12  16
ENDBRANCH  11  12
ENDBRANCH   7  11
ENDBRANCH   1   9
BRANCH   5  22
ATOM     22  S   UNL     1       3.263  -9.511   6.217  0.00  0.00    +0.075 S 
ATOM     23  O   UNL     1       2.320 -10.521   6.548  0.00  0.00    -0.150 OA
ATOM     24  O   UNL     1       4.500  -9.802   5.582  0.00  0.00    -0.150 OA
BRANCH  22  25
ATOM     25  N   UNL     1       3.629  -8.725   7.628  0.00  0.00    -0.206 N 
ATOM     26  C   UNL     1       4.888  -7.986   7.749  0.00  0.00    +0.157 C 
BRANCH  25  27
ATOM     27  C   UNL     1       2.738  -8.767   8.703  0.00  0.00    +0.051 A 
ATOM     28  C   UNL     1       1.378  -8.936   8.473  0.00  0.00    +0.025 A 
ATOM     29  C   UNL     1       0.500  -8.982   9.538  0.00  0.00    +0.002 A 
ATOM     30  C   UNL     1       0.972  -8.849  10.831  0.00  0.00    +0.000 A 
ATOM     31  C   UNL     1       2.324  -8.675  11.063  0.00  0.00    +0.002 A 
ATOM     32  C   UNL     1       3.208  -8.634  10.003  0.00  0.00    +0.025 A 
ENDBRANCH  25  27
ENDBRANCH  22  25
ENDBRANCH   5  22
TORSDOF 8
