REMARK  Name = ZINC49063956
REMARK  9 active torsions:
REMARK  status: ('A' for Active; 'I' for Inactive)
REMARK    1  A    between atoms: C_1  and  C_2
REMARK    2  A    between atoms: C_2  and  C_4
REMARK    3  A    between atoms: C_2  and  S_8
REMARK    4  A    between atoms: C_4  and  O_6
REMARK    5  A    between atoms: O_6  and  C_7
REMARK    6  A    between atoms: S_8  and  N_11
REMARK    7  A    between atoms: N_11  and  C_12
REMARK    8  A    between atoms: C_15  and  S_19
REMARK    9  A    between atoms: S_19  and  N_22
REMARK                            x       y       z     vdW  Elec       q    Type
REMARK                         _______ _______ _______ _____ _____    ______ ____
ROOT
ATOM      1  C   UNL     1      -3.739  -0.198   1.646  0.00  0.00    +0.088 A 
ATOM      2  C   UNL     1      -4.475  -1.066   0.850  0.00  0.00    +0.030 A 
ATOM      3  C   UNL     1      -5.794  -1.333   1.159  0.00  0.00    +0.030 A 
ATOM      4  C   UNL     1      -6.383  -0.738   2.260  0.00  0.00    +0.106 A 
ATOM      5  C   UNL     1      -5.654   0.126   3.055  0.00  0.00    +0.045 A 
ATOM      6  C   UNL     1      -4.332   0.395   2.755  0.00  0.00    +0.044 A 
ATOM      7 BR   UNL     1      -3.333   1.572   3.847  0.00  0.00    -0.048 Br
ENDROOT
BRANCH   4   8
ATOM      8  S   UNL     1      -8.067  -1.083   2.650  0.00  0.00    +0.056 S 
ATOM      9  O   UNL     1      -8.541   0.020   3.411  0.00  0.00    -0.153 OA
ATOM     10  O   UNL     1      -8.687  -1.496   1.440  0.00  0.00    -0.153 OA
BRANCH   8  11
ATOM     11  N   UNL     1      -8.077  -2.394   3.660  0.00  0.00    -0.204 NA
ATOM     12  H   UNL     1      -7.241  -2.813   3.920  0.00  0.00    +0.144 HD
ATOM     13  H   UNL     1      -8.918  -2.744   3.992  0.00  0.00    +0.144 HD
ENDBRANCH   8  11
ENDBRANCH   4   8
BRANCH   1  14
ATOM     14  N   UNL     1      -2.404   0.075   1.337  0.00  0.00    -0.101 NA
BRANCH  14  15
ATOM     15  S   UNL     1      -1.700  -0.632   0.015  0.00  0.00    +0.075 S 
ATOM     16  O   UNL     1      -2.419  -0.118  -1.098  0.00  0.00    -0.153 OA
ATOM     17  O   UNL     1      -1.706  -2.024   0.302  0.00  0.00    -0.153 OA
BRANCH  15  19
ATOM     18  C   UNL     1      -0.019   1.526   0.010  0.00  0.00    +0.046 C 
ATOM     19  C   UNL     1       0.002  -0.004   0.002  0.00  0.00    +0.258 C 
BRANCH  19  20
ATOM     20  C   UNL     1       0.707  -0.490  -1.238  0.00  0.00    +0.333 C 
ATOM     21  O   UNL     1       0.069  -0.781  -2.221  0.00  0.00    -0.249 OA
BRANCH  20  22
ATOM     22  O   UNL     1       2.045  -0.600  -1.249  0.00  0.00    -0.467 OA
ATOM     23  C   UNL     1       2.647  -1.067  -2.458  0.00  0.00    +0.280 C 
ENDBRANCH  20  22
ENDBRANCH  19  20
ENDBRANCH  15  19
ENDBRANCH  14  15
ENDBRANCH   1  14
TORSDOF 7
