REMARK  Name = ZINC63254431
REMARK  7 active torsions:
REMARK  status: ('A' for Active; 'I' for Inactive)
REMARK    1  A    between atoms: C_4  and  C_7
REMARK    2  A    between atoms: N_9  and  C_10
REMARK    3  A    between atoms: C_10  and  C_19
REMARK    4  A    between atoms: C_11  and  C_12
REMARK    5  A    between atoms: N_21  and  C_22
REMARK    6  A    between atoms: C_22  and  C_23
REMARK    7  A    between atoms: C_23  and  C_24
REMARK                            x       y       z     vdW  Elec       q    Type
REMARK                         _______ _______ _______ _____ _____    ______ ____
ROOT
ATOM      1  C   UNL     1       5.014  -2.566  -0.209  0.00  0.00    +0.097 C 
ATOM      2  C   UNL     1       6.132  -1.805  -0.175  0.00  0.00    +0.038 C 
ENDROOT
BRANCH   2   3
ATOM      3  C   UNL     1       6.025  -0.339  -0.185  0.00  0.00    -0.005 A 
ATOM      4  C   UNL     1       4.888   0.279  -0.718  0.00  0.00    +0.009 A 
ATOM      5  C   UNL     1       4.795   1.655  -0.723  0.00  0.00    +0.001 A 
ATOM      6  C   UNL     1       5.821   2.425  -0.204  0.00  0.00    +0.001 A 
ATOM      7  C   UNL     1       6.949   1.823   0.326  0.00  0.00    +0.020 A 
ATOM      8  C   UNL     1       7.056   0.446   0.344  0.00  0.00    +0.048 A 
ATOM      9 CL   UNL     1       8.468  -0.308   1.015  0.00  0.00    -0.083 Cl
ENDBRANCH   2   3
BRANCH   1  12
ATOM     10  C   UNL     1       2.835  -2.162  -1.071  0.00  0.00    +0.248 C 
ATOM     11  O   UNL     1       3.062  -2.937  -1.980  0.00  0.00    -0.270 OA
ATOM     12  N   UNL     1       3.756  -1.965  -0.107  0.00  0.00    -0.277 N 
ATOM     13  H   UNL     1       3.546  -1.405   0.657  0.00  0.00    +0.155 HD
BRANCH  10  17
ATOM     14  C   UNL     1      -0.865  -0.080  -0.932  0.00  0.00    +0.000 A 
ATOM     15  C   UNL     1      -0.563  -0.877  -2.022  0.00  0.00    +0.001 A 
ATOM     16  C   UNL     1       0.636  -1.556  -2.074  0.00  0.00    +0.013 A 
ATOM     17  C   UNL     1       1.547  -1.438  -1.022  0.00  0.00    +0.037 A 
ATOM     18  C   UNL     1       1.237  -0.632   0.075  0.00  0.00    +0.013 A 
ATOM     19  C   UNL     1       0.034   0.041   0.114  0.00  0.00    +0.001 A 
ENDBRANCH  10  17
ENDBRANCH   1  12
BRANCH   1  20
ATOM     20  C   UNL     1       5.122  -4.025  -0.352  0.00  0.00    +0.258 C 
ATOM     21  O   UNL     1       4.116  -4.709  -0.383  0.00  0.00    -0.269 OA
ATOM     22  N   UNL     1       6.334  -4.605  -0.450  0.00  0.00    -0.310 N 
ATOM     23  H   UNL     1       7.136  -4.060  -0.426  0.00  0.00    +0.149 HD
BRANCH  22  24
ATOM     24  C   UNL     1       6.441  -6.059  -0.593  0.00  0.00    +0.109 C 
BRANCH  24  25
ATOM     25  C   UNL     1       7.917  -6.455  -0.683  0.00  0.00    +0.052 C 
BRANCH  25  26
ATOM     26  C   UNL     1       8.027  -7.951  -0.830  0.00  0.00    -0.040 C 
ATOM     27  C   UNL     1       8.149  -8.648  -1.983  0.00  0.00    -0.001 A 
ATOM     28  C   UNL     1       8.211  -8.238  -3.391  0.00  0.00    +0.010 A 
ATOM     29  C   UNL     1       8.336  -9.187  -4.346  0.00  0.00    +0.001 A 
ATOM     30  C   UNL     1       8.407 -10.550  -4.025  0.00  0.00    +0.002 A 
ATOM     31  C   UNL     1       8.357 -11.004  -2.755  0.00  0.00    +0.026 A 
ATOM     32  C   UNL     1       8.226 -10.093  -1.671  0.00  0.00    +0.043 A 
ATOM     33  N   UNL     1       8.155 -10.282  -0.375  0.00  0.00    -0.380 N 
ATOM     34  C   UNL     1       8.031  -8.976   0.282  0.00  0.00    +0.144 C 
ATOM     35  H   UNL     1       8.185 -11.141   0.074  0.00  0.00    +0.160 HD
ENDBRANCH  25  26
ENDBRANCH  24  25
ENDBRANCH  22  24
ENDBRANCH   1  20
TORSDOF 7
