REMARK  Name = ZINC38915373
REMARK  9 active torsions:
REMARK  status: ('A' for Active; 'I' for Inactive)
REMARK    1  A    between atoms: C_1  and  C_2
REMARK    2  A    between atoms: C_2  and  C_3
REMARK    3  A    between atoms: C_2  and  C_4
REMARK    4  A    between atoms: C_2  and  C_5
REMARK    5  A    between atoms: C_8  and  C_11
REMARK    6  A    between atoms: N_17  and  N_18
REMARK    7  A    between atoms: C_19  and  C_20
REMARK    8  A    between atoms: C_24  and  O_26
REMARK    9  A    between atoms: O_26  and  C_27
REMARK                            x       y       z     vdW  Elec       q    Type
REMARK                         _______ _______ _______ _____ _____    ______ ____
ROOT
ATOM      1  C   UNL     1       2.735  -1.909  -4.796  0.00  0.00    +0.264 C 
ATOM      2  N   UNL     1       1.798  -2.008  -5.926  0.00  0.00    -0.189 NA
ATOM      3  N   UNL     1       2.174  -1.229  -6.805  0.00  0.00    -0.219 N 
ATOM      4  C   UNL     1       3.299  -0.541  -6.473  0.00  0.00    +0.174 C 
ATOM      5  S   UNL     1       4.073   0.614  -7.471  0.00  0.00    -0.015 S 
ATOM      6  N   UNL     1       3.719  -0.903  -5.237  0.00  0.00    -0.172 N 
ATOM      7  H   UNL     1       1.712  -1.118  -7.651  0.00  0.00    +0.176 HD
ENDROOT
BRANCH   1  11
ATOM      8  C   UNL     1       0.707  -0.582  -1.278  0.00  0.00    -0.042 A 
ATOM      9  C   UNL     1       0.048  -1.377  -2.197  0.00  0.00    +0.004 A 
ATOM     10  C   UNL     1       0.704  -1.806  -3.336  0.00  0.00    +0.008 A 
ATOM     11  C   UNL     1       2.019  -1.440  -3.555  0.00  0.00    -0.002 A 
ATOM     12  C   UNL     1       2.678  -0.644  -2.637  0.00  0.00    +0.008 A 
ATOM     13  C   UNL     1       2.020  -0.211  -1.500  0.00  0.00    +0.004 A 
BRANCH   8  15
ATOM     14  C   UNL     1      -0.047   1.415  -0.017  0.00  0.00    +0.015 C 
ATOM     15  C   UNL     1      -0.008  -0.114  -0.037  0.00  0.00    -0.013 C 
ATOM     16  C   UNL     1       0.734  -0.622   1.201  0.00  0.00    +0.015 C 
ATOM     17  C   UNL     1      -1.437  -0.661  -0.035  0.00  0.00    +0.015 C 
ENDBRANCH   8  15
ENDBRANCH   1  11
BRANCH   6  18
ATOM     18  N   UNL     1       4.835  -0.430  -4.535  0.00  0.00    -0.183 NA
ATOM     19  C   UNL     1       5.672   0.377  -5.113  0.00  0.00    +0.138 C 
BRANCH  19  20
ATOM     20  C   UNL     1       6.904   0.787  -4.414  0.00  0.00    -0.002 A 
ATOM     21  C   UNL     1       7.176   0.303  -3.131  0.00  0.00    +0.010 A 
ATOM     22  C   UNL     1       8.330   0.689  -2.480  0.00  0.00    +0.004 A 
ATOM     23  C   UNL     1       9.219   1.553  -3.093  0.00  0.00    +0.046 A 
ATOM     24  C   UNL     1       8.957   2.040  -4.367  0.00  0.00    +0.129 A 
ATOM     25  C   UNL     1       7.805   1.655  -5.033  0.00  0.00    +0.055 A 
BRANCH  24  26
ATOM     26  O   UNL     1       9.834   2.889  -4.963  0.00  0.00    -0.456 OA
BRANCH  26  27
ATOM     27  C   UNL     1       9.505   4.207  -5.024  0.00  0.00    +0.128 A 
ATOM     28  C   UNL     1       8.264   4.635  -4.572  0.00  0.00    +0.046 A 
ATOM     29  C   UNL     1       7.932   5.974  -4.636  0.00  0.00    +0.004 A 
ATOM     30  C   UNL     1       8.835   6.888  -5.148  0.00  0.00    +0.000 A 
ATOM     31  C   UNL     1      10.072   6.464  -5.598  0.00  0.00    +0.004 A 
ATOM     32  C   UNL     1      10.411   5.127  -5.532  0.00  0.00    +0.046 A 
ENDBRANCH  26  27
ENDBRANCH  24  26
ENDBRANCH  19  20
ENDBRANCH   6  18
TORSDOF 6
