REMARK  Name = ZINC10166684
REMARK  7 active torsions:
REMARK  status: ('A' for Active; 'I' for Inactive)
REMARK    1  A    between atoms: C_1  and  C_2
REMARK    2  A    between atoms: C_9  and  C_13
REMARK    3  A    between atoms: N_15  and  C_16
REMARK    4  A    between atoms: C_16  and  C_18
REMARK    5  A    between atoms: C_16  and  C_19
REMARK    6  A    between atoms: C_19  and  O_20
REMARK    7  A    between atoms: O_20  and  C_21
REMARK                            x       y       z     vdW  Elec       q    Type
REMARK                         _______ _______ _______ _____ _____    ______ ____
ROOT
ATOM      1  C   UNL     1      -0.068   1.501   0.011  0.00  0.00    +0.064 C 
ATOM      2  C   UNL     1      -0.025  -0.005   0.002  0.00  0.00    +0.033 A 
ATOM      3  C   UNL     1      -0.016  -0.682  -1.145  0.00  0.00    +0.070 A 
ATOM      4  S   UNL     1       0.037  -2.371  -0.577  0.00  0.00    -0.057 S 
ATOM      5  C   UNL     1       0.044  -2.078   1.075  0.00  0.00    +0.184 A 
ATOM      6  N   UNL     1       0.011  -0.718   1.182  0.00  0.00    -0.258 N 
ATOM      7  C   UNL     1       0.012  -0.188   2.442  0.00  0.00    +0.275 A 
ATOM      8  O   UNL     1      -0.021   1.020   2.596  0.00  0.00    -0.266 OA
ATOM      9  C   UNL     1       0.051  -1.043   3.561  0.00  0.00    +0.167 A 
ATOM     10  C   UNL     1       0.088  -2.436   3.355  0.00  0.00    +0.290 A 
ATOM     11  N   UNL     1       0.076  -2.894   2.109  0.00  0.00    -0.184 NA
ATOM     12  O   UNL     1       0.127  -3.288   4.404  0.00  0.00    -0.265 OA
ENDROOT
BRANCH   9  13
ATOM     13  C   UNL     1       0.053  -0.492   4.917  0.00  0.00    +0.255 C 
ATOM     14  O   UNL     1      -0.022  -1.236   5.877  0.00  0.00    -0.270 OA
ATOM     15  N   UNL     1       0.139   0.841   5.103  0.00  0.00    -0.306 N 
ATOM     16  H   UNL     1       0.124   1.439   4.340  0.00  0.00    +0.149 HD
BRANCH  15  17
ATOM     17  C   UNL     1       0.254   1.385   6.458  0.00  0.00    +0.096 C 
ATOM     18  C   UNL     1       1.723   1.379   6.887  0.00  0.00    +0.030 C 
BRANCH  17  19
ATOM     19  C   UNL     1      -0.277   2.820   6.478  0.00  0.00    +0.181 C 
BRANCH  19  20
ATOM     20  O   UNL     1       0.557   3.648   5.665  0.00  0.00    -0.381 OA
ATOM     21  C   UNL     1       0.146   5.016   5.615  0.00  0.00    +0.194 C 
ENDBRANCH  19  20
ENDBRANCH  17  19
ENDBRANCH  15  17
ENDBRANCH   9  13
TORSDOF 4
