REMARK  Name = ZINC03300485
REMARK  12 active torsions:
REMARK  status: ('A' for Active; 'I' for Inactive)
REMARK    1  A    between atoms: C_1  and  C_2
REMARK    2  A    between atoms: C_2  and  O_3
REMARK    3  A    between atoms: O_3  and  C_4
REMARK    4  A    between atoms: C_4  and  C_6
REMARK    5  A    between atoms: C_8  and  C_29
REMARK    6  A    between atoms: C_10  and  N_11
REMARK    7  A    between atoms: C_12  and  C_14
REMARK    8  A    between atoms: C_14  and  O_15
REMARK    9  A    between atoms: O_15  and  C_16
REMARK   10  A    between atoms: C_16  and  C_18
REMARK   11  A    between atoms: C_19  and  C_20
REMARK   12  A    between atoms: C_25  and  N_26
REMARK                            x       y       z     vdW  Elec       q    Type
REMARK                         _______ _______ _______ _____ _____    ______ ____
ROOT
ATOM      1  N   UNL     1       5.918   1.814  -1.392  0.00  0.00    -0.277 N 
ATOM      2  C   UNL     1       4.713   1.259  -1.154  0.00  0.00    +0.255 C 
ATOM      3  O   UNL     1       4.625   0.066  -0.950  0.00  0.00    -0.272 OA
ATOM      4  H   UNL     1       5.989   2.768  -1.555  0.00  0.00    +0.155 HD
ENDROOT
BRANCH   1   9
ATOM      5  C   UNL     1       8.376   1.405  -1.635  0.00  0.00    +0.088 A 
ATOM      6  C   UNL     1       9.353   0.411  -1.589  0.00  0.00    +0.033 A 
ATOM      7  C   UNL     1       8.948  -0.863  -1.334  0.00  0.00    +0.022 A 
ATOM      8  S   UNL     1       7.185  -0.685  -1.145  0.00  0.00    -0.073 S 
ATOM      9  C   UNL     1       7.055   1.024  -1.405  0.00  0.00    +0.086 A 
BRANCH   7  10
ATOM     10  C   UNL     1       9.767  -2.089  -1.236  0.00  0.00    -0.011 A 
ATOM     11  C   UNL     1      11.149  -2.026  -1.422  0.00  0.00    +0.009 A 
ATOM     12  C   UNL     1      11.909  -3.174  -1.325  0.00  0.00    +0.001 A 
ATOM     13  C   UNL     1      11.302  -4.387  -1.054  0.00  0.00    +0.000 A 
ATOM     14  C   UNL     1       9.932  -4.458  -0.874  0.00  0.00    +0.001 A 
ATOM     15  C   UNL     1       9.162  -3.317  -0.963  0.00  0.00    +0.009 A 
ENDBRANCH   7  10
BRANCH   5  16
ATOM     16  C   UNL     1       8.725   2.801  -1.911  0.00  0.00    +0.342 C 
ATOM     17  O   UNL     1       7.856   3.651  -1.942  0.00  0.00    -0.245 OA
BRANCH  16  18
ATOM     18  O   UNL     1      10.011   3.143  -2.131  0.00  0.00    -0.461 OA
BRANCH  18  20
ATOM     19  C   UNL     1      11.785   4.738  -2.620  0.00  0.00    +0.048 C 
ATOM     20  C   UNL     1      10.284   4.544  -2.398  0.00  0.00    +0.229 C 
ENDBRANCH  18  20
ENDBRANCH  16  18
ENDBRANCH   5  16
ENDBRANCH   1   9
BRANCH   2  21
ATOM     21  C   UNL     1       3.476   2.119  -1.140  0.00  0.00    +0.328 C 
BRANCH  21  22
ATOM     22  O   UNL     1       2.333   1.306  -0.868  0.00  0.00    -0.452 OA
BRANCH  22  23
ATOM     23  C   UNL     1       1.137   1.927  -0.820  0.00  0.00    +0.332 C 
ATOM     24  O   UNL     1       1.067   3.127  -1.006  0.00  0.00    -0.246 OA
BRANCH  23  25
ATOM     25  C   UNL     1      -0.076   1.157  -0.546  0.00  0.00    +0.092 C 
ATOM     26  C   UNL     1      -1.274   1.778  -0.504  0.00  0.00    +0.017 C 
BRANCH  26  27
ATOM     27  C   UNL     1      -2.495   1.002  -0.235  0.00  0.00    +0.005 A 
ATOM     28  C   UNL     1      -2.482  -0.392  -0.346  0.00  0.00    +0.010 A 
ATOM     29  C   UNL     1      -3.630  -1.111  -0.091  0.00  0.00    +0.001 A 
ATOM     30  C   UNL     1      -4.794  -0.457   0.274  0.00  0.00    +0.002 A 
ATOM     31  C   UNL     1      -4.816   0.922   0.386  0.00  0.00    +0.033 A 
ATOM     32  C   UNL     1      -3.674   1.655   0.140  0.00  0.00    +0.133 A 
BRANCH  32  33
ATOM     33  N   UNL     1      -3.697   3.130   0.266  0.00  0.00    +0.057 N 
ATOM     34  O   UNL     1      -2.731   3.718   0.718  0.00  0.00    -0.126 OA
ATOM     35  O   UNL     1      -4.683   3.755  -0.082  0.00  0.00    -0.126 OA
ENDBRANCH  32  33
ENDBRANCH  26  27
ENDBRANCH  23  25
ENDBRANCH  22  23
ENDBRANCH  21  22
ENDBRANCH   2  21
TORSDOF 11
