REMARK  Name = ZINC39977688
REMARK  6 active torsions:
REMARK  status: ('A' for Active; 'I' for Inactive)
REMARK    1  A    between atoms: C_4  and  N_7
REMARK    2  A    between atoms: N_7  and  C_8
REMARK    3  A    between atoms: C_11  and  N_14
REMARK    4  A    between atoms: N_14  and  C_15
REMARK    5  A    between atoms: N_18  and  S_19
REMARK    6  A    between atoms: S_19  and  C_22
REMARK                            x       y       z     vdW  Elec       q    Type
REMARK                         _______ _______ _______ _____ _____    ______ ____
ROOT
ATOM      1  C   UNL     1       4.721  -6.976  -0.318  0.00  0.00    +0.237 C 
ATOM      2  C   UNL     1       4.702  -8.030  -1.403  0.00  0.00    +0.192 C 
ATOM      3  N   UNL     1       4.589  -7.689  -2.652  0.00  0.00    -0.110 NA
ATOM      4  N   UNL     1       4.803  -9.323  -1.056  0.00  0.00    -0.226 NA
ATOM      5  C   UNL     1       4.919  -9.694   0.202  0.00  0.00    +0.089 A 
ATOM      6  C   UNL     1       5.024 -11.069   0.532  0.00  0.00    +0.030 A 
ATOM      7  C   UNL     1       5.142 -11.454   1.821  0.00  0.00    +0.002 A 
ATOM      8  C   UNL     1       5.168 -10.541   2.889  0.00  0.00    +0.002 A 
ATOM      9  C   UNL     1       5.074  -9.209   2.686  0.00  0.00    +0.027 A 
ATOM     10  C   UNL     1       4.943  -8.707   1.310  0.00  0.00    +0.063 A 
ATOM     11  N   UNL     1       4.851  -7.428   1.076  0.00  0.00    -0.359 N 
ATOM     12  H   UNL     1       4.868  -6.788   1.805  0.00  0.00    +0.162 HD
ENDROOT
BRANCH   3  13
ATOM     13  S   UNL     1       4.570  -8.853  -3.830  0.00  0.00    +0.100 S 
ATOM     14  O   UNL     1       5.856  -9.457  -3.825  0.00  0.00    -0.146 OA
ATOM     15  O   UNL     1       3.376  -9.601  -3.641  0.00  0.00    -0.146 OA
BRANCH  13  16
ATOM     16  C   UNL     1       4.407  -8.027  -5.377  0.00  0.00    +0.113 A 
ATOM     17  C   UNL     1       3.151  -7.767  -5.893  0.00  0.00    +0.030 A 
ATOM     18  C   UNL     1       3.022  -7.118  -7.107  0.00  0.00    +0.022 A 
ATOM     19  C   UNL     1       4.151  -6.729  -7.806  0.00  0.00    +0.041 A 
ATOM     20  C   UNL     1       5.408  -6.989  -7.289  0.00  0.00    +0.022 A 
ATOM     21  C   UNL     1       5.535  -7.633  -6.072  0.00  0.00    +0.030 A 
ATOM     22 CL   UNL     1       3.990  -5.915  -9.331  0.00  0.00    -0.084 Cl
ENDBRANCH  13  16
ENDBRANCH   3  13
BRANCH   1  23
ATOM     23  N   UNL     1       3.481  -6.203  -0.424  0.00  0.00    -0.318 N 
ATOM     24  H   UNL     1       2.627  -6.661  -0.472  0.00  0.00    +0.148 HD
BRANCH  23  28
ATOM     25  C   UNL     1       3.623  -2.037  -0.520  0.00  0.00    +0.031 A 
ATOM     26  C   UNL     1       4.784  -2.767  -0.298  0.00  0.00    +0.025 A 
ATOM     27  C   UNL     1       4.737  -4.146  -0.266  0.00  0.00    +0.025 A 
ATOM     28  C   UNL     1       3.529  -4.805  -0.457  0.00  0.00    +0.029 A 
ATOM     29  C   UNL     1       2.368  -4.075  -0.679  0.00  0.00    +0.025 A 
ATOM     30  C   UNL     1       2.414  -2.696  -0.705  0.00  0.00    +0.025 A 
BRANCH  25  31
ATOM     31  N   UNL     1       3.671  -0.638  -0.553  0.00  0.00    -0.314 N 
ATOM     32  H   UNL     1       2.870  -0.122  -0.371  0.00  0.00    +0.152 HD
BRANCH  31  36
ATOM     33  C   UNL     1       7.248   1.304  -1.430  0.00  0.00    +0.000 A 
ATOM     34  C   UNL     1       6.939   0.110  -2.056  0.00  0.00    +0.002 A 
ATOM     35  C   UNL     1       5.754  -0.537  -1.768  0.00  0.00    +0.023 A 
ATOM     36  C   UNL     1       4.871   0.013  -0.847  0.00  0.00    +0.031 A 
ATOM     37  C   UNL     1       5.184   1.212  -0.220  0.00  0.00    +0.023 A 
ATOM     38  C   UNL     1       6.371   1.854  -0.513  0.00  0.00    +0.002 A 
ENDBRANCH  31  36
ENDBRANCH  25  31
ENDBRANCH  23  28
ENDBRANCH   1  23
TORSDOF 6
