REMARK  Name = ZINC39188229
REMARK  10 active torsions:
REMARK  status: ('A' for Active; 'I' for Inactive)
REMARK    1  A    between atoms: C_1  and  C_2
REMARK    2  A    between atoms: C_2  and  C_3
REMARK    3  A    between atoms: C_2  and  C_4
REMARK    4  A    between atoms: C_4  and  N_5
REMARK    5  A    between atoms: C_6  and  C_27
REMARK    6  A    between atoms: C_9  and  S_10
REMARK    7  A    between atoms: S_10  and  C_11
REMARK    8  A    between atoms: C_11  and  C_12
REMARK    9  A    between atoms: C_14  and  O_15
REMARK   10  A    between atoms: C_24  and  C_26
REMARK                            x       y       z     vdW  Elec       q    Type
REMARK                         _______ _______ _______ _____ _____    ______ ____
ROOT
ATOM      1  C   UNL     1      -0.424  -5.300   3.873  0.00  0.00    +0.113 C 
ENDROOT
BRANCH   1   2
ATOM      2  C   UNL     1      -0.331  -4.747   5.272  0.00  0.00    -0.020 A 
ATOM      3  C   UNL     1       0.878  -4.318   5.783  0.00  0.00    +0.092 A 
ATOM      4  C   UNL     1       0.944  -3.813   7.073  0.00  0.00    +0.285 A 
ATOM      5  O   UNL     1      -0.145  -3.728   7.844  0.00  0.00    -0.425 OA
ATOM      6  C   UNL     1      -1.351  -4.132   7.396  0.00  0.00    +0.141 A 
ATOM      7  C   UNL     1      -1.479  -4.651   6.087  0.00  0.00    +0.022 A 
ATOM      8  C   UNL     1      -2.735  -5.068   5.614  0.00  0.00    +0.013 A 
ATOM      9  C   UNL     1      -3.829  -4.968   6.415  0.00  0.00    +0.024 A 
ATOM     10  C   UNL     1      -3.712  -4.448   7.716  0.00  0.00    +0.037 A 
ATOM     11  C   UNL     1      -2.470  -4.039   8.204  0.00  0.00    +0.070 A 
ATOM     12  N   UNL     1      -4.816  -4.352   8.508  0.00  0.00    -0.286 N 
ATOM     13  C   UNL     1      -4.797  -3.577   9.574  0.00  0.00    +0.214 C 
ATOM     14  O   UNL     1      -3.834  -2.862   9.790  0.00  0.00    -0.276 OA
ATOM     15  C   UNL     1      -5.965  -3.576  10.526  0.00  0.00    +0.109 C 
ATOM     16  H   UNL     1      -5.616  -4.854   8.287  0.00  0.00    +0.155 HD
BRANCH   4  17
ATOM     17  O   UNL     1       2.130  -3.398   7.559  0.00  0.00    -0.480 OA
ATOM     18  H   UNL     1       2.088  -3.060   8.464  0.00  0.00    +0.295 HD
ENDBRANCH   4  17
ENDBRANCH   1   2
BRANCH   1  19
ATOM     19  S   UNL     1      -0.312  -3.940   2.678  0.00  0.00    -0.081 S 
BRANCH  19  24
ATOM     20  N   UNL     1      -0.402  -4.133  -0.112  0.00  0.00    -0.302 N 
ATOM     21  C   UNL     1      -0.525  -5.147  -1.032  0.00  0.00    +0.168 A 
ATOM     22  N   UNL     1      -0.628  -6.269  -0.358  0.00  0.00    -0.128 NA
ATOM     23  N   UNL     1      -0.579  -6.029   0.903  0.00  0.00    -0.122 NA
ATOM     24  C   UNL     1      -0.435  -4.739   1.112  0.00  0.00    +0.192 A 
BRANCH  21  25
ATOM     25  C   UNL     1      -0.539  -5.003  -2.503  0.00  0.00    +0.054 A 
ATOM     26  C   UNL     1      -1.352  -4.041  -3.106  0.00  0.00    +0.014 A 
ATOM     27  C   UNL     1      -1.360  -3.910  -4.479  0.00  0.00    +0.001 A 
ATOM     28  C   UNL     1      -0.565  -4.730  -5.261  0.00  0.00    +0.003 A 
ATOM     29  C   UNL     1       0.244  -5.686  -4.673  0.00  0.00    +0.039 A 
ATOM     30  C   UNL     1       0.266  -5.824  -3.297  0.00  0.00    +0.134 A 
ATOM     31  F   UNL     1       1.060  -6.753  -2.723  0.00  0.00    -0.205 F 
ENDBRANCH  21  25
BRANCH  20  32
ATOM     32  C   UNL     1      -0.260  -2.701  -0.387  0.00  0.00    +0.129 C 
BRANCH  32  34
ATOM     33  C   UNL     1       1.351  -0.904  -1.035  0.00  0.00    +0.009 C 
ATOM     34  C   UNL     1       1.216  -2.372  -0.625  0.00  0.00    +0.003 C 
ATOM     35  C   UNL     1       2.007  -2.618   0.660  0.00  0.00    +0.009 C 
ENDBRANCH  32  34
ENDBRANCH  20  32
ENDBRANCH  19  24
ENDBRANCH   1  19
TORSDOF 7
