REMARK  Name = ZINC12445652
REMARK  5 active torsions:
REMARK  status: ('A' for Active; 'I' for Inactive)
REMARK    1  A    between atoms: C_1  and  C_2
REMARK    2  A    between atoms: C_4  and  C_30
REMARK    3  A    between atoms: C_20  and  C_23
REMARK    4  A    between atoms: C_30  and  O_31
REMARK    5  A    between atoms: O_31  and  C_32
REMARK                            x       y       z     vdW  Elec       q    Type
REMARK                         _______ _______ _______ _____ _____    ______ ____
ROOT
ATOM      1  C   UNL     1      -0.018   1.503   0.010  0.00  0.00    +0.065 C 
ATOM      2  C   UNL     1       0.002  -0.004   0.002  0.00  0.00    +0.040 A 
ATOM      3  C   UNL     1       0.005  -0.666  -1.213  0.00  0.00    +0.029 A 
ATOM      4  C   UNL     1       0.023  -2.046  -1.298  0.00  0.00    -0.009 A 
ATOM      5  C   UNL     1       0.038  -2.744  -0.062  0.00  0.00    +0.035 A 
ATOM      6  C   UNL     1       0.051  -4.179   0.120  0.00  0.00    +0.056 A 
ATOM      7  C   UNL     1       0.081  -4.626   1.432  0.00  0.00    +0.078 A 
ATOM      8  S   UNL     1       0.061  -3.171   2.424  0.00  0.00    -0.064 S 
ATOM      9  C   UNL     1       0.035  -1.965   1.130  0.00  0.00    +0.111 A 
ATOM     10  N   UNL     1       0.022  -0.652   1.161  0.00  0.00    -0.245 NA
ATOM     11  C   UNL     1       0.136  -6.040   1.751  0.00  0.00    +0.152 A 
ATOM     12  N   UNL     1       0.024  -6.697   2.872  0.00  0.00    -0.227 NA
ATOM     13  C   UNL     1       0.105  -8.018   2.627  0.00  0.00    +0.090 A 
ATOM     14  C   UNL     1       0.031  -9.127   3.479  0.00  0.00    +0.030 A 
ATOM     15  C   UNL     1       0.144 -10.376   2.896  0.00  0.00    +0.002 A 
ATOM     16  C   UNL     1       0.324 -10.535   1.532  0.00  0.00    +0.002 A 
ATOM     17  C   UNL     1       0.404  -9.454   0.670  0.00  0.00    +0.028 A 
ATOM     18  C   UNL     1       0.296  -8.186   1.230  0.00  0.00    +0.071 A 
ATOM     19  N   UNL     1       0.343  -6.934   0.697  0.00  0.00    -0.300 N 
ATOM     20  C   UNL     1       0.591  -6.482  -0.673  0.00  0.00    +0.205 C 
ATOM     21  N   UNL     1       0.015  -5.152  -0.906  0.00  0.00    -0.319 N 
ATOM     22  H   UNL     1      -0.390  -4.941  -1.762  0.00  0.00    +0.148 HD
ENDROOT
BRANCH  20  23
ATOM     23  C   UNL     1       2.077  -6.424  -0.912  0.00  0.00    -0.007 A 
ATOM     24  C   UNL     1       2.810  -5.346  -0.451  0.00  0.00    +0.008 A 
ATOM     25  C   UNL     1       4.174  -5.293  -0.670  0.00  0.00    +0.015 A 
ATOM     26  C   UNL     1       4.805  -6.318  -1.352  0.00  0.00    +0.018 A 
ATOM     27  C   UNL     1       4.071  -7.396  -1.814  0.00  0.00    +0.015 A 
ATOM     28  C   UNL     1       2.709  -7.451  -1.589  0.00  0.00    +0.008 A 
ATOM     29 BR   UNL     1       6.670  -6.245  -1.653  0.00  0.00    -0.050 Br
ENDBRANCH  20  23
BRANCH   4  30
ATOM     30  C   UNL     1       0.026  -2.765  -2.622  0.00  0.00    +0.195 C 
BRANCH  30  31
ATOM     31  O   UNL     1       0.008  -1.809  -3.684  0.00  0.00    -0.378 OA
ATOM     32  C   UNL     1       0.009  -2.390  -4.989  0.00  0.00    +0.194 C 
ENDBRANCH  30  31
ENDBRANCH   4  30
TORSDOF 3
