REMARK  Name = ZINC20681625
REMARK  7 active torsions:
REMARK  status: ('A' for Active; 'I' for Inactive)
REMARK    1  A    between atoms: C_1  and  O_2
REMARK    2  A    between atoms: O_2  and  C_3
REMARK    3  A    between atoms: C_6  and  O_27
REMARK    4  A    between atoms: C_16  and  C_19
REMARK    5  A    between atoms: C_22  and  O_26
REMARK    6  A    between atoms: C_24  and  O_25
REMARK    7  A    between atoms: O_27  and  C_28
REMARK                            x       y       z     vdW  Elec       q    Type
REMARK                         _______ _______ _______ _____ _____    ______ ____
ROOT
ATOM      1  C   UNL     1      -0.719   2.272  -3.500  0.00  0.00    +0.126 A 
ATOM      2  C   UNL     1      -0.033   2.332  -4.701  0.00  0.00    +0.049 A 
ATOM      3  C   UNL     1       1.312   2.012  -4.745  0.00  0.00    +0.051 A 
ATOM      4  C   UNL     1       1.966   1.633  -3.588  0.00  0.00    +0.141 A 
ATOM      5  C   UNL     1       1.277   1.571  -2.373  0.00  0.00    +0.077 A 
ATOM      6  C   UNL     1      -0.067   1.890  -2.329  0.00  0.00    +0.026 A 
ATOM      7  C   UNL     1      -0.864   1.826  -1.074  0.00  0.00    +0.052 C 
ATOM      8  C   UNL     1      -1.204   3.223  -0.608  0.00  0.00    -0.022 C 
ATOM      9  C   UNL     1      -1.131   3.301   0.697  0.00  0.00    -0.030 C 
ATOM     10  C   UNL     1      -0.716   1.961   1.301  0.00  0.00    +0.033 C 
ATOM     11  C   UNL     1      -0.061   1.224   0.099  0.00  0.00    +0.029 C 
ATOM     12  C   UNL     1       1.392   1.695  -0.004  0.00  0.00    +0.109 C 
ATOM     13  N   UNL     1       1.987   1.178  -1.236  0.00  0.00    -0.333 N 
ATOM     14  H   UNL     1       2.894   0.557  -1.190  0.00  0.00    +0.147 HD
ENDROOT
BRANCH  12  15
ATOM     15  C   UNL     1       2.170   1.186   1.183  0.00  0.00    +0.015 A 
ATOM     16  C   UNL     1       1.664   0.153   1.948  0.00  0.00    +0.012 A 
ATOM     17  C   UNL     1       2.375  -0.317   3.035  0.00  0.00    +0.046 A 
ATOM     18  C   UNL     1       3.599   0.250   3.362  0.00  0.00    +0.120 A 
ATOM     19  C   UNL     1       4.109   1.287   2.596  0.00  0.00    +0.091 A 
ATOM     20  C   UNL     1       3.396   1.752   1.502  0.00  0.00    +0.125 A 
BRANCH  20  21
ATOM     21  O   UNL     1       3.895   2.765   0.746  0.00  0.00    -0.506 OA
ATOM     22  H   UNL     1       4.867   3.213   0.999  0.00  0.00    +0.292 HD
ENDBRANCH  20  21
BRANCH  18  23
ATOM     23  O   UNL     1       4.298  -0.212   4.432  0.00  0.00    -0.507 OA
ATOM     24  H   UNL     1       5.268   0.237   4.691  0.00  0.00    +0.292 HD
ENDBRANCH  18  23
ENDBRANCH  12  15
BRANCH   1  26
ATOM     25  C   UNL     1      -2.650   2.971  -4.697  0.00  0.00    +0.277 C 
ATOM     26  O   UNL     1      -2.040   2.588  -3.463  0.00  0.00    -0.495 OA
ENDBRANCH   1  26
BRANCH   4  27
ATOM     27  O   UNL     1       3.290   1.319  -3.631  0.00  0.00    -0.493 OA
ATOM     28  C   UNL     1       3.935   1.404  -4.903  0.00  0.00    +0.277 C 
ENDBRANCH   4  27
TORSDOF 5
