REMARK  Name = ZINC12466230
REMARK  9 active torsions:
REMARK  status: ('A' for Active; 'I' for Inactive)
REMARK    1  A    between atoms: C_1  and  C_2
REMARK    2  A    between atoms: C_2  and  C_28
REMARK    3  A    between atoms: C_3  and  C_4
REMARK    4  A    between atoms: C_4  and  N_61
REMARK    5  A    between atoms: C_10  and  C_12
REMARK    6  A    between atoms: C_12  and  C_13
REMARK    7  A    between atoms: N_15  and  C_16
REMARK    8  A    between atoms: C_16  and  C_17
REMARK    9  A    between atoms: C_17  and  C_22
REMARK                            x       y       z     vdW  Elec       q    Type
REMARK                         _______ _______ _______ _____ _____    ______ ____
ROOT
ATOM      1  C   UNL     1      -0.111   0.666   0.344  0.00  0.00    +0.212 C 
ATOM      2  O   UNL     1       0.919   0.067   0.568  0.00  0.00    -0.276 OA
ATOM      3  N   UNL     1      -0.148   2.009   0.456  0.00  0.00    -0.315 N 
ATOM      4  H   UNL     1      -0.971   2.488   0.273  0.00  0.00    +0.149 HD
ENDROOT
BRANCH   1   5
ATOM      5  C   UNL     1      -1.351  -0.091  -0.058  0.00  0.00    +0.089 C 
BRANCH   5  11
ATOM      6  C   UNL     1      -0.109  -3.354   1.325  0.00  0.00    -0.058 C 
ATOM      7  C   UNL     1       1.187  -3.413   0.515  0.00  0.00    +0.085 C 
ATOM      8  N   UNL     1       0.997  -2.770  -0.782  0.00  0.00    -0.318 N 
ATOM      9  C   UNL     1      -0.011  -1.929  -1.035  0.00  0.00    +0.200 C 
ATOM     10  O   UNL     1      -0.078  -1.415  -2.132  0.00  0.00    -0.278 OA
ATOM     11  C   UNL     1      -1.066  -1.594  -0.018  0.00  0.00    +0.028 C 
ATOM     12  H   UNL     1       1.629  -2.962  -1.492  0.00  0.00    +0.149 HD
ATOM     13  N   UNL     1      -0.583  -1.955   1.328  0.00  0.00    +0.391 N 
ATOM     14  H   UNL     1       0.197  -1.337   1.582  0.00  0.00    -0.080 HD
BRANCH  13  15
ATOM     15  C   UNL     1      -1.672  -1.789   2.318  0.00  0.00    -0.050 C 
BRANCH  15  18
ATOM     16  C   UNL     1      -2.084   0.174   4.298  0.00  0.00    +0.038 C 
ATOM     17  C   UNL     1      -1.254  -1.046   4.606  0.00  0.00    -0.081 C 
ATOM     18  C   UNL     1      -1.109  -1.983   3.702  0.00  0.00    -0.047 C 
ATOM     19  C   UNL     1      -0.593  -1.188   5.952  0.00  0.00    +0.038 C 
ENDBRANCH  15  18
ENDBRANCH  13  15
ENDBRANCH   5  11
ENDBRANCH   1   5
BRANCH   3  20
ATOM     20  C   UNL     1       1.057   2.744   0.847  0.00  0.00    +0.115 C 
BRANCH  20  21
ATOM     21  C   UNL     1       0.784   4.248   0.769  0.00  0.00    +0.011 C 
ATOM     22  C   UNL     1       0.325   4.628  -0.650  0.00  0.00    +0.013 C 
ATOM     23  C   UNL     1       1.361   5.633  -1.194  0.00  0.00    +0.001 C 
ATOM     24  C   UNL     1       2.642   5.338  -0.375  0.00  0.00    +0.001 C 
ATOM     25  C   UNL     1       2.083   5.035   1.038  0.00  0.00    +0.013 C 
BRANCH  21  26
ATOM     26  C   UNL     1      -0.271   4.633   1.774  0.00  0.00    -0.040 A 
ATOM     27  C   UNL     1      -0.775   5.920   1.788  0.00  0.00    +0.004 A 
ATOM     28  C   UNL     1      -1.745   6.272   2.708  0.00  0.00    +0.000 A 
ATOM     29  C   UNL     1      -2.205   5.340   3.619  0.00  0.00    +0.000 A 
ATOM     30  C   UNL     1      -1.696   4.055   3.609  0.00  0.00    +0.000 A 
ATOM     31  C   UNL     1      -0.729   3.701   2.687  0.00  0.00    +0.004 A 
ENDBRANCH  21  26
ENDBRANCH  20  21
ENDBRANCH   3  20
TORSDOF 7
