REMARK  Name = ZINC09424806
REMARK  15 active torsions:
REMARK  status: ('A' for Active; 'I' for Inactive)
REMARK    1  A    between atoms: C_1  and  C_2
REMARK    2  A    between atoms: C_2  and  N_70
REMARK    3  A    between atoms: C_3  and  C_4
REMARK    4  A    between atoms: C_3  and  N_70
REMARK    5  A    between atoms: C_5  and  C_6
REMARK    6  A    between atoms: C_5  and  N_70
REMARK    7  A    between atoms: C_6  and  N_7
REMARK    8  A    between atoms: C_8  and  C_28
REMARK    9  A    between atoms: C_10  and  C_15
REMARK   10  A    between atoms: C_11  and  O_14
REMARK   11  A    between atoms: C_15  and  C_17
REMARK   12  A    between atoms: C_24  and  C_27
REMARK   13  A    between atoms: C_32  and  O_34
REMARK   14  A    between atoms: O_34  and  C_35
REMARK   15  A    between atoms: C_35  and  C_36
REMARK                            x       y       z     vdW  Elec       q    Type
REMARK                         _______ _______ _______ _____ _____    ______ ____
ROOT
ATOM      1  N   UNL     1       0.451  -1.583  -0.108  0.00  0.00    -0.285 N 
ATOM      2  C   UNL     1      -0.414  -0.450   0.243  0.00  0.00    +0.144 C 
ATOM      3  C   UNL     1       0.487   0.761   0.314  0.00  0.00    +0.071 C 
ATOM      4  C   UNL     1       1.740   0.333   0.037  0.00  0.00    +0.188 C 
ATOM      5  C   UNL     1       1.710  -1.122  -0.223  0.00  0.00    +0.282 C 
ATOM      6  O   UNL     1       2.678  -1.801  -0.501  0.00  0.00    -0.267 OA
ENDROOT
BRANCH   2   7
ATOM      7  C   UNL     1      -1.069  -0.687   1.579  0.00  0.00    -0.019 A 
ATOM      8  C   UNL     1      -0.315  -1.135   2.648  0.00  0.00    +0.006 A 
ATOM      9  C   UNL     1      -0.912  -1.349   3.877  0.00  0.00    +0.004 A 
ATOM     10  C   UNL     1      -2.266  -1.126   4.036  0.00  0.00    +0.045 A 
ATOM     11  C   UNL     1      -3.026  -0.682   2.963  0.00  0.00    +0.121 A 
ATOM     12  C   UNL     1      -2.423  -0.463   1.733  0.00  0.00    +0.051 A 
BRANCH  11  13
ATOM     13  O   UNL     1      -4.358  -0.463   3.117  0.00  0.00    -0.488 OA
BRANCH  13  14
ATOM     14  C   UNL     1      -4.911  -0.709   4.412  0.00  0.00    +0.256 C 
BRANCH  14  15
ATOM     15  C   UNL     1      -6.388  -0.413   4.392  0.00  0.00    +0.006 C 
ATOM     16  C   UNL     1      -7.231  -1.247   4.949  0.00  0.00    +0.007 C 
ENDBRANCH  14  15
ENDBRANCH  13  14
ENDBRANCH  11  13
ENDBRANCH   2   7
BRANCH   4  17
ATOM     17  O   UNL     1       2.846   1.112   0.003  0.00  0.00    -0.502 OA
ATOM     18  H   UNL     1       3.642   0.551  -0.225  0.00  0.00    +0.292 HD
ENDBRANCH   4  17
BRANCH   3  19
ATOM     19  C   UNL     1       0.082   2.135   0.628  0.00  0.00    +0.195 C 
ATOM     20  O   UNL     1       0.461   2.660   1.659  0.00  0.00    -0.287 OA
BRANCH  19  21
ATOM     21  C   UNL     1      -0.784   2.881  -0.305  0.00  0.00    +0.023 A 
ATOM     22  C   UNL     1      -1.167   2.309  -1.522  0.00  0.00    +0.015 A 
ATOM     23  C   UNL     1      -1.966   3.008  -2.394  0.00  0.00    +0.046 A 
ATOM     24  C   UNL     1      -2.413   4.291  -2.070  0.00  0.00    +0.124 A 
ATOM     25  C   UNL     1      -2.034   4.853  -0.854  0.00  0.00    -0.002 A 
ATOM     26  C   UNL     1      -1.230   4.167   0.021  0.00  0.00    +0.019 A 
ATOM     27  C   UNL     1      -2.674   6.227  -0.783  0.00  0.00    +0.083 C 
ATOM     28  C   UNL     1      -3.737   6.142  -1.903  0.00  0.00    +0.175 C 
ATOM     29  O   UNL     1      -3.194   5.145  -2.784  0.00  0.00    -0.488 OA
ATOM     30  C   UNL     1      -5.085   5.689  -1.337  0.00  0.00    +0.052 C 
ENDBRANCH  19  21
ENDBRANCH   3  19
BRANCH   1  31
ATOM     31  C   UNL     1       0.020  -2.971  -0.293  0.00  0.00    +0.090 C 
BRANCH  31  32
ATOM     32  C   UNL     1       0.092  -3.710   1.044  0.00  0.00    -0.060 C 
BRANCH  32  33
ATOM     33  N   UNL     1      -0.365  -5.101   0.845  0.00  0.00    +0.380 N 
ATOM     34  H   UNL     1      -1.276  -5.089   0.373  0.00  0.00    -0.082 HD
BRANCH  33  36
ATOM     35  C   UNL     1       1.974  -5.884   0.679  0.00  0.00    -0.017 C 
ATOM     36  C   UNL     1       0.603  -5.835   0.003  0.00  0.00    -0.082 C 
ENDBRANCH  33  36
BRANCH  33  37
ATOM     37  C   UNL     1      -0.511  -5.777   2.152  0.00  0.00    -0.082 C 
ATOM     38  C   UNL     1      -1.236  -7.108   1.940  0.00  0.00    -0.017 C 
ENDBRANCH  33  37
ENDBRANCH  32  33
ENDBRANCH  31  32
ENDBRANCH   1  31
TORSDOF 12
