REMARK  Name = ZINC41349627
REMARK  9 active torsions:
REMARK  status: ('A' for Active; 'I' for Inactive)
REMARK    1  A    between atoms: C_1  and  C_2
REMARK    2  A    between atoms: C_3  and  O_21
REMARK    3  A    between atoms: C_10  and  C_11
REMARK    4  A    between atoms: C_12  and  C_13
REMARK    5  A    between atoms: O_21  and  C_22
REMARK    6  A    between atoms: C_22  and  C_24
REMARK    7  A    between atoms: C_24  and  C_26
REMARK    8  A    between atoms: C_24  and  O_27
REMARK    9  A    between atoms: O_27  and  C_28
REMARK                            x       y       z     vdW  Elec       q    Type
REMARK                         _______ _______ _______ _____ _____    ______ ____
ROOT
ATOM      1  C   UNL     1      -0.188   1.518  -0.006  0.00  0.00    +0.051 C 
ATOM      2  C   UNL     1      -0.082   0.015   0.001  0.00  0.00    +0.035 A 
ATOM      3  C   UNL     1       0.003  -0.679  -1.195  0.00  0.00    +0.138 A 
ATOM      4  C   UNL     1       0.101  -2.067  -1.202  0.00  0.00    +0.047 A 
ATOM      5  C   UNL     1       0.114  -2.761  -0.025  0.00  0.00    +0.019 A 
ATOM      6  C   UNL     1       0.030  -2.075   1.187  0.00  0.00    +0.068 A 
ATOM      7  C   UNL     1      -0.064  -0.674   1.207  0.00  0.00    +0.146 A 
ATOM      8  O   UNL     1      -0.127  -0.242   2.485  0.00  0.00    -0.451 OA
ATOM      9  C   UNL     1      -0.077  -1.268   3.366  0.00  0.00    +0.176 C 
ATOM     10  C   UNL     1      -0.119  -1.164   4.727  0.00  0.00    +0.050 C 
ATOM     11  C   UNL     1       0.018  -2.512   2.595  0.00  0.00    +0.231 C 
ATOM     12  O   UNL     1       0.085  -3.652   3.023  0.00  0.00    -0.283 OA
ENDROOT
BRANCH  10  13
ATOM     13  C   UNL     1      -0.224   0.103   5.333  0.00  0.00    +0.004 C 
ATOM     14  C   UNL     1      -0.266   0.206   6.684  0.00  0.00    +0.008 C 
BRANCH  14  15
ATOM     15  C   UNL     1      -0.375   1.528   7.317  0.00  0.00    -0.025 A 
ATOM     16  C   UNL     1      -0.442   2.682   6.528  0.00  0.00    +0.008 A 
ATOM     17  C   UNL     1      -0.544   3.918   7.130  0.00  0.00    +0.001 A 
ATOM     18  C   UNL     1      -0.581   4.019   8.510  0.00  0.00    +0.000 A 
ATOM     19  C   UNL     1      -0.514   2.883   9.297  0.00  0.00    +0.001 A 
ATOM     20  C   UNL     1      -0.419   1.638   8.711  0.00  0.00    +0.008 A 
ENDBRANCH  14  15
ENDBRANCH  10  13
BRANCH   3  21
ATOM     21  O   UNL     1      -0.009   0.001  -2.370  0.00  0.00    -0.423 OA
BRANCH  21  22
ATOM     22  C   UNL     1       1.150   0.514  -2.814  0.00  0.00    +0.353 C 
ATOM     23  O   UNL     1       2.179   0.280  -2.226  0.00  0.00    -0.246 OA
BRANCH  22  24
ATOM     24  C   UNL     1       1.167   1.384  -4.045  0.00  0.00    +0.279 C 
ATOM     25  C   UNL     1       0.385   2.670  -3.771  0.00  0.00    +0.064 C 
BRANCH  24  26
ATOM     26  O   UNL     1       2.517   1.709  -4.380  0.00  0.00    -0.472 OA
BRANCH  26  27
ATOM     27  C   UNL     1       2.795   1.913  -5.696  0.00  0.00    +0.198 A 
ATOM     28  C   UNL     1       3.181   0.848  -6.497  0.00  0.00    +0.206 A 
ATOM     29  C   UNL     1       3.464   1.056  -7.837  0.00  0.00    +0.200 A 
ATOM     30  C   UNL     1       3.361   2.329  -8.378  0.00  0.00    +0.199 A 
ATOM     31  C   UNL     1       2.976   3.393  -7.578  0.00  0.00    +0.200 A 
ATOM     32  C   UNL     1       2.687   3.186  -6.239  0.00  0.00    +0.206 A 
ATOM     33  F   UNL     1       2.307   4.223  -5.462  0.00  0.00    -0.198 F 
ATOM     34  F   UNL     1       2.877   4.633  -8.106  0.00  0.00    -0.199 F 
ATOM     35  F   UNL     1       3.636   2.531  -9.685  0.00  0.00    -0.199 F 
ATOM     36  F   UNL     1       3.840   0.020  -8.618  0.00  0.00    -0.199 F 
ATOM     37  F   UNL     1       3.282  -0.392  -5.971  0.00  0.00    -0.198 F 
ENDBRANCH  26  27
ENDBRANCH  24  26
ENDBRANCH  22  24
ENDBRANCH  21  22
ENDBRANCH   3  21
TORSDOF 7
