REMARK  Name = ZINC07341711
REMARK  9 active torsions:
REMARK  status: ('A' for Active; 'I' for Inactive)
REMARK    1  A    between atoms: C_1  and  C_2
REMARK    2  A    between atoms: C_5  and  N_8
REMARK    3  A    between atoms: C_9  and  C_30
REMARK    4  A    between atoms: C_10  and  N_14
REMARK    5  A    between atoms: C_11  and  C_13
REMARK    6  A    between atoms: C_15  and  C_17
REMARK    7  A    between atoms: C_17  and  N_63
REMARK    8  A    between atoms: C_20  and  C_23
REMARK    9  A    between atoms: C_23  and  C_24
REMARK                            x       y       z     vdW  Elec       q    Type
REMARK                         _______ _______ _______ _____ _____    ______ ____
ROOT
ATOM      1  N   UNL     1       3.340   0.223  -0.330  0.00  0.00    -0.284 N 
ATOM      2  C   UNL     1       4.157   1.196  -0.778  0.00  0.00    +0.201 C 
ATOM      3  O   UNL     1       3.728   2.318  -0.949  0.00  0.00    -0.278 OA
ATOM      4  H   UNL     1       3.678  -0.678  -0.210  0.00  0.00    +0.155 HD
ENDROOT
BRANCH   1   7
ATOM      5  N   UNL     1       0.091   0.741   1.030  0.00  0.00    -0.235 N 
ATOM      6  C   UNL     1       1.385   0.341   1.166  0.00  0.00    +0.063 A 
ATOM      7  C   UNL     1       1.995   0.515  -0.034  0.00  0.00    +0.078 A 
ATOM      8  C   UNL     1       1.047   1.036  -0.927  0.00  0.00    +0.082 A 
ATOM      9  N   UNL     1      -0.089   1.170  -0.291  0.00  0.00    -0.170 NA
ATOM     10  C   UNL     1       1.294   1.382  -2.373  0.00  0.00    +0.069 C 
ATOM     11  C   UNL     1       2.023  -0.199   2.420  0.00  0.00    +0.068 C 
BRANCH   5  16
ATOM     12  C   UNL     1      -3.871   0.680   5.093  0.00  0.00    +0.044 C 
ATOM     13  C   UNL     1      -2.819   0.697   4.014  0.00  0.00    -0.050 A 
ATOM     14  C   UNL     1      -2.814   1.707   3.070  0.00  0.00    +0.005 A 
ATOM     15  C   UNL     1      -1.851   1.724   2.080  0.00  0.00    +0.028 A 
ATOM     16  C   UNL     1      -0.887   0.726   2.033  0.00  0.00    +0.066 A 
ATOM     17  C   UNL     1      -0.898  -0.290   2.979  0.00  0.00    +0.028 A 
ATOM     18  C   UNL     1      -1.860  -0.299   3.970  0.00  0.00    +0.005 A 
ENDBRANCH   5  16
ENDBRANCH   1   7
BRANCH   2  19
ATOM     19  C   UNL     1       5.604   0.891  -1.067  0.00  0.00    +0.019 C 
BRANCH  19  25
ATOM     20  C   UNL     1       5.739   2.537  -2.837  0.00  0.00    -0.078 C 
ATOM     21  C   UNL     1       6.356   3.882  -3.228  0.00  0.00    -0.015 C 
ATOM     22  C   UNL     1       7.878   3.734  -3.310  0.00  0.00    -0.010 C 
ATOM     23  C   UNL     1       8.408   3.241  -1.961  0.00  0.00    -0.015 C 
ATOM     24  C   UNL     1       7.731   1.915  -1.607  0.00  0.00    -0.078 C 
ATOM     25  N   UNL     1       6.271   2.130  -1.520  0.00  0.00    +0.385 N 
ATOM     26  H   UNL     1       6.084   2.876  -0.840  0.00  0.00    -0.081 HD
BRANCH  22  27
ATOM     27  C   UNL     1       8.507   5.089  -3.642  0.00  0.00    +0.038 C 
BRANCH  27  28
ATOM     28  C   UNL     1       8.081   5.516  -5.022  0.00  0.00    -0.047 A 
ATOM     29  C   UNL     1       8.840   5.161  -6.121  0.00  0.00    +0.003 A 
ATOM     30  C   UNL     1       8.447   5.549  -7.388  0.00  0.00    +0.000 A 
ATOM     31  C   UNL     1       7.299   6.301  -7.556  0.00  0.00    +0.000 A 
ATOM     32  C   UNL     1       6.542   6.660  -6.456  0.00  0.00    +0.000 A 
ATOM     33  C   UNL     1       6.933   6.269  -5.190  0.00  0.00    +0.003 A 
ENDBRANCH  27  28
ENDBRANCH  22  27
ENDBRANCH  19  25
ENDBRANCH   2  19
TORSDOF 6
