REMARK  Name = ZINC25669879
REMARK  9 active torsions:
REMARK  status: ('A' for Active; 'I' for Inactive)
REMARK    1  A    between atoms: C_1  and  C_2
REMARK    2  A    between atoms: C_4  and  C_14
REMARK    3  A    between atoms: C_5  and  C_13
REMARK    4  A    between atoms: C_9  and  C_12
REMARK    5  A    between atoms: C_15  and  C_16
REMARK    6  A    between atoms: N_18  and  C_19
REMARK    7  A    between atoms: N_18  and  C_26
REMARK    8  A    between atoms: C_19  and  C_20
REMARK    9  A    between atoms: C_26  and  C_27
REMARK                            x       y       z     vdW  Elec       q    Type
REMARK                         _______ _______ _______ _____ _____    ______ ____
ROOT
ATOM      1  C   UNL     1       1.665  -4.077  -0.770  0.00  0.00    +0.240 C 
ATOM      2  O   UNL     1       2.869  -4.255  -0.753  0.00  0.00    -0.271 OA
ATOM      3  N   UNL     1       0.833  -5.117  -0.977  0.00  0.00    -0.286 N 
ENDROOT
BRANCH   1   5
ATOM      4  C   UNL     1       1.973  -1.734  -0.365  0.00  0.00    +0.015 C 
ATOM      5  C   UNL     1       1.138  -2.777  -0.573  0.00  0.00    +0.068 C 
BRANCH   4   9
ATOM      6  C   UNL     1      -1.272   2.165   0.155  0.00  0.00    +0.064 C 
ATOM      7  C   UNL     1      -0.023   1.326   0.069  0.00  0.00    +0.023 A 
ATOM      8  C   UNL     1       0.011   0.001  -0.151  0.00  0.00    +0.031 A 
ATOM      9  C   UNL     1       1.427  -0.387  -0.161  0.00  0.00    -0.004 A 
ATOM     10  C   UNL     1       2.141   0.773   0.061  0.00  0.00    +0.030 A 
ATOM     11  N   UNL     1       1.256   1.792   0.197  0.00  0.00    -0.299 N 
ATOM     12  C   UNL     1       1.601   3.127   0.433  0.00  0.00    +0.181 A 
ATOM     13  C   UNL     1       1.029   3.997   1.398  0.00  0.00    +0.094 A 
ATOM     14  C   UNL     1       1.700   5.159   1.228  0.00  0.00    +0.136 A 
ATOM     15  O   UNL     1       2.582   4.951   0.240  0.00  0.00    -0.358 OA
ATOM     16  N   UNL     1       2.519   3.821  -0.186  0.00  0.00    -0.060 NA
ATOM     17  C   UNL     1       1.496   6.438   1.998  0.00  0.00    +0.089 C 
ATOM     18  C   UNL     1       3.642   0.888   0.138  0.00  0.00    +0.064 C 
ENDBRANCH   4   9
ENDBRANCH   1   5
BRANCH   3  19
ATOM     19  C   UNL     1      -0.616  -4.903  -0.998  0.00  0.00    +0.143 C 
BRANCH  19  20
ATOM     20  C   UNL     1      -1.058  -4.595  -2.406  0.00  0.00    -0.030 A 
ATOM     21  C   UNL     1      -1.096  -3.285  -2.847  0.00  0.00    +0.005 A 
ATOM     22  C   UNL     1      -1.496  -3.003  -4.140  0.00  0.00    +0.000 A 
ATOM     23  C   UNL     1      -1.869  -4.029  -4.988  0.00  0.00    +0.000 A 
ATOM     24  C   UNL     1      -1.836  -5.338  -4.545  0.00  0.00    +0.000 A 
ATOM     25  C   UNL     1      -1.431  -5.621  -3.254  0.00  0.00    +0.005 A 
ENDBRANCH  19  20
ENDBRANCH   3  19
BRANCH   3  26
ATOM     26  C   UNL     1       1.377  -6.462  -1.181  0.00  0.00    +0.182 C 
BRANCH  26  27
ATOM     27  C   UNL     1       1.509  -7.157   0.149  0.00  0.00    +0.128 A 
ATOM     28  N   UNL     1       2.000  -8.424   0.168  0.00  0.00    -0.309 N 
ATOM     29  H   UNL     1       2.289  -8.916  -0.772  0.00  0.00    +0.170 HD
ATOM     30  C   UNL     1       2.138  -9.092   1.337  0.00  0.00    +0.259 A 
ATOM     31  O   UNL     1       2.577 -10.227   1.369  0.00  0.00    -0.267 OA
ATOM     32  C   UNL     1       1.738  -8.393   2.568  0.00  0.00    +0.065 A 
ATOM     33  C   UNL     1       1.841  -8.991   3.822  0.00  0.00    +0.015 A 
ATOM     34  C   UNL     1       1.452  -8.290   4.942  0.00  0.00    +0.001 A 
ATOM     35  C   UNL     1       0.960  -6.996   4.830  0.00  0.00    +0.002 A 
ATOM     36  C   UNL     1       0.851  -6.387   3.600  0.00  0.00    +0.028 A 
ATOM     37  C   UNL     1       1.238  -7.077   2.450  0.00  0.00    +0.078 A 
ATOM     38  N   UNL     1       1.153  -6.514   1.219  0.00  0.00    -0.232 NA
ENDBRANCH  26  27
ENDBRANCH   3  26
TORSDOF 6
