REMARK  Name = ZINC42015792
REMARK  5 active torsions:
REMARK  status: ('A' for Active; 'I' for Inactive)
REMARK    1  A    between atoms: C_1  and  C_2
REMARK    2  A    between atoms: C_2  and  C_3
REMARK    3  A    between atoms: C_6  and  N_9
REMARK    4  A    between atoms: C_10  and  C_14
REMARK    5  A    between atoms: C_18  and  N_20
REMARK                            x       y       z     vdW  Elec       q    Type
REMARK                         _______ _______ _______ _____ _____    ______ ____
ROOT
ATOM      1  N   UNL     1       2.580  -1.687  -4.793  0.00  0.00    -0.193 N 
ATOM      2  C   UNL     1       3.879  -1.445  -5.135  0.00  0.00    +0.187 A 
ATOM      3  N   UNL     1       4.175  -2.268  -6.119  0.00  0.00    -0.108 NA
ATOM      4  N   UNL     1       3.163  -3.001  -6.413  0.00  0.00    -0.022 NA
ATOM      5  N   UNL     1       2.161  -2.716  -5.654  0.00  0.00    -0.039 NA
ENDROOT
BRANCH   2   6
ATOM      6  C   UNL     1       4.781  -0.448  -4.518  0.00  0.00    +0.023 A 
ATOM      7  C   UNL     1       4.641  -0.118  -3.169  0.00  0.00    +0.014 A 
ATOM      8  C   UNL     1       5.484   0.812  -2.595  0.00  0.00    +0.041 A 
ATOM      9  C   UNL     1       6.469   1.420  -3.353  0.00  0.00    +0.144 A 
ATOM     10  C   UNL     1       6.616   1.097  -4.699  0.00  0.00    +0.061 A 
ATOM     11  C   UNL     1       5.777   0.160  -5.281  0.00  0.00    +0.037 A 
ATOM     12  F   UNL     1       7.291   2.330  -2.785  0.00  0.00    -0.204 F 
BRANCH  10  13
ATOM     13  N   UNL     1       7.612   1.714  -5.462  0.00  0.00    -0.356 N 
ATOM     14  H   UNL     1       8.202   2.367  -5.053  0.00  0.00    +0.142 HD
ATOM     15  H   UNL     1       7.714   1.489  -6.400  0.00  0.00    +0.142 HD
ENDBRANCH  10  13
ENDBRANCH   2   6
BRANCH   1  19
ATOM     16  C   UNL     1       0.344   0.204  -1.827  0.00  0.00    -0.047 A 
ATOM     17  C   UNL     1       1.148   0.952  -2.667  0.00  0.00    +0.006 A 
ATOM     18  C   UNL     1       1.890   0.328  -3.651  0.00  0.00    +0.028 A 
ATOM     19  C   UNL     1       1.829  -1.051  -3.796  0.00  0.00    +0.069 A 
ATOM     20  C   UNL     1       1.020  -1.800  -2.951  0.00  0.00    +0.028 A 
ATOM     21  C   UNL     1       0.284  -1.171  -1.965  0.00  0.00    +0.006 A 
BRANCH  16  23
ATOM     22  C   UNL     1       0.362   0.979   0.528  0.00  0.00    +0.009 C 
ATOM     23  C   UNL     1      -0.465   0.888  -0.755  0.00  0.00    +0.032 C 
ENDBRANCH  16  23
ENDBRANCH   1  19
TORSDOF 4
