REMARK  Name = ZINC40011402
REMARK  8 active torsions:
REMARK  status: ('A' for Active; 'I' for Inactive)
REMARK    1  A    between atoms: C_1  and  C_2
REMARK    2  A    between atoms: C_8  and  C_10
REMARK    3  A    between atoms: C_10  and  S_11
REMARK    4  A    between atoms: S_11  and  C_12
REMARK    5  A    between atoms: C_20  and  C_28
REMARK    6  A    between atoms: C_28  and  C_29
REMARK    7  A    between atoms: C_28  and  C_30
REMARK    8  A    between atoms: C_28  and  C_31
REMARK                            x       y       z     vdW  Elec       q    Type
REMARK                         _______ _______ _______ _____ _____    ______ ____
ROOT
ATOM      1  C   UNL     1      -6.268  -5.421   0.001  0.00  0.00    +0.182 C 
ATOM      2  N   UNL     1      -5.573  -6.546  -0.003  0.00  0.00    -0.151 NA
ATOM      3  C   UNL     1      -6.148  -7.748  -0.008  0.00  0.00    +0.272 C 
ATOM      4  O   UNL     1      -5.476  -8.766  -0.010  0.00  0.00    -0.268 OA
ATOM      5  C   UNL     1      -7.646  -7.811  -0.009  0.00  0.00    +0.071 C 
ATOM      6  C   UNL     1      -8.421  -8.908  -0.034  0.00  0.00    -0.042 C 
ATOM      7  C   UNL     1      -7.874 -10.330  -0.130  0.00  0.00    +0.033 C 
ATOM      8  C   UNL     1      -8.959 -11.164  -0.823  0.00  0.00    +0.008 C 
ATOM      9  C   UNL     1      -9.662 -10.323  -1.881  0.00  0.00    -0.004 C 
ATOM     10  C   UNL     1     -10.539  -9.238  -1.273  0.00  0.00    +0.023 C 
ATOM     11  C   UNL     1      -9.928  -8.686   0.011  0.00  0.00    +0.080 C 
ATOM     12  S   UNL     1     -10.045  -6.855   0.002  0.00  0.00    -0.097 S 
ATOM     13  C   UNL     1      -8.308  -6.489  -0.001  0.00  0.00    +0.112 C 
ATOM     14  N   UNL     1      -7.601  -5.388   0.008  0.00  0.00    -0.217 NA
ENDROOT
BRANCH   9  15
ATOM     15  C   UNL     1     -10.535 -11.239  -2.742  0.00  0.00    -0.035 C 
ATOM     16  C   UNL     1     -11.573 -11.932  -1.857  0.00  0.00    +0.011 C 
ATOM     17  C   UNL     1     -11.248 -10.408  -3.810  0.00  0.00    +0.011 C 
ATOM     18  C   UNL     1      -9.656 -12.293  -3.418  0.00  0.00    +0.011 C 
ENDBRANCH   9  15
BRANCH   1  19
ATOM     19  S   UNL     1      -5.390  -3.893   0.006  0.00  0.00    -0.079 S 
BRANCH  19  20
ATOM     20  C   UNL     1      -3.646  -4.389  -0.006  0.00  0.00    +0.173 C 
BRANCH  20  28
ATOM     21  C   UNL     1      -0.018   1.503   0.010  0.00  0.00    +0.089 C 
ATOM     22  C   UNL     1       0.002  -0.004   0.002  0.00  0.00    +0.136 A 
ATOM     23  C   UNL     1      -1.076  -0.808   0.003  0.00  0.00    +0.091 A 
ATOM     24  C   UNL     1      -0.625  -2.147  -0.007  0.00  0.00    +0.168 A 
ATOM     25  N   UNL     1       0.683  -2.130  -0.013  0.00  0.00    -0.063 NA
ATOM     26  O   UNL     1       1.100  -0.776  -0.013  0.00  0.00    -0.358 OA
ATOM     27  N   UNL     1      -1.432  -3.285  -0.010  0.00  0.00    -0.267 N 
ATOM     28  C   UNL     1      -2.774  -3.159  -0.003  0.00  0.00    +0.229 C 
ATOM     29  O   UNL     1      -3.280  -2.057   0.006  0.00  0.00    -0.275 OA
ATOM     30  H   UNL     1      -1.027  -4.166  -0.017  0.00  0.00    +0.156 HD
ENDBRANCH  20  28
ENDBRANCH  19  20
ENDBRANCH   1  19
TORSDOF 4
