REMARK  Name = ZINC12530075
REMARK  9 active torsions:
REMARK  status: ('A' for Active; 'I' for Inactive)
REMARK    1  A    between atoms: C_1  and  C_2
REMARK    2  A    between atoms: C_2  and  C_3
REMARK    3  A    between atoms: C_2  and  C_4
REMARK    4  A    between atoms: C_2  and  C_5
REMARK    5  A    between atoms: C_8  and  C_11
REMARK    6  A    between atoms: N_13  and  C_14
REMARK    7  A    between atoms: C_17  and  C_21
REMARK    8  A    between atoms: C_20  and  N_58
REMARK    9  A    between atoms: C_23  and  C_26
REMARK                            x       y       z     vdW  Elec       q    Type
REMARK                         _______ _______ _______ _____ _____    ______ ____
ROOT
ATOM      1  C   UNL     1      -5.433   5.962   1.150  0.00  0.00    +0.056 C 
ATOM      2  C   UNL     1      -4.091   5.257   1.435  0.00  0.00    +0.014 C 
ATOM      3  C   UNL     1      -3.478   4.983   0.045  0.00  0.00    +0.023 C 
ATOM      4  C   UNL     1      -5.519   6.054  -0.388  0.00  0.00    -0.056 C 
ATOM      5  C   UNL     1      -4.215   5.207  -2.265  0.00  0.00    -0.095 C 
ATOM      6  N   UNL     1      -4.642   4.979  -0.848  0.00  0.00    +0.387 N 
ATOM      7  H   UNL     1      -5.130   4.078  -0.785  0.00  0.00    -0.081 HD
ENDROOT
BRANCH   3   8
ATOM      8  C   UNL     1      -2.772   3.652   0.035  0.00  0.00    +0.214 A 
ATOM      9  N   UNL     1      -1.477   3.458   0.028  0.00  0.00    -0.193 NA
ATOM     10  C   UNL     1      -1.311   2.116   0.020  0.00  0.00    +0.202 A 
ATOM     11  N   UNL     1      -2.503   1.579   0.017  0.00  0.00    -0.056 NA
ATOM     12  O   UNL     1      -3.351   2.447   0.030  0.00  0.00    -0.339 OA
BRANCH  10  13
ATOM     13  C   UNL     1      -0.017   1.389   0.010  0.00  0.00    +0.022 A 
ATOM     14  C   UNL     1       1.183   2.097   0.002  0.00  0.00    +0.012 A 
ATOM     15  C   UNL     1       2.383   1.416  -0.013  0.00  0.00    +0.001 A 
ATOM     16  C   UNL     1       2.396   0.033  -0.021  0.00  0.00    +0.000 A 
ATOM     17  C   UNL     1       1.208  -0.675  -0.013  0.00  0.00    +0.001 A 
ATOM     18  C   UNL     1       0.002  -0.004   0.002  0.00  0.00    +0.012 A 
ENDBRANCH  10  13
ENDBRANCH   3   8
BRANCH   1  21
ATOM     19  C   UNL     1      -7.708   5.769   2.001  0.00  0.00    +0.244 C 
ATOM     20  O   UNL     1      -7.833   6.970   1.855  0.00  0.00    -0.270 OA
ATOM     21  N   UNL     1      -6.546   5.168   1.677  0.00  0.00    -0.310 N 
ATOM     22  H   UNL     1      -6.447   4.210   1.793  0.00  0.00    +0.149 HD
BRANCH  19  26
ATOM     23  C   UNL     1     -10.936   3.469   3.528  0.00  0.00    -0.042 A 
ATOM     24  C   UNL     1     -11.081   4.835   3.364  0.00  0.00    +0.005 A 
ATOM     25  C   UNL     1     -10.037   5.588   2.868  0.00  0.00    +0.013 A 
ATOM     26  C   UNL     1      -8.832   4.969   2.532  0.00  0.00    +0.037 A 
ATOM     27  C   UNL     1      -8.694   3.589   2.695  0.00  0.00    +0.013 A 
ATOM     28  C   UNL     1      -9.744   2.849   3.197  0.00  0.00    +0.005 A 
BRANCH  23  30
ATOM     29  C   UNL     1     -13.289   2.789   3.142  0.00  0.00    +0.015 C 
ATOM     30  C   UNL     1     -12.081   2.653   4.070  0.00  0.00    -0.013 C 
ATOM     31  C   UNL     1     -11.665   1.183   4.153  0.00  0.00    +0.015 C 
ATOM     32  C   UNL     1     -12.451   3.158   5.466  0.00  0.00    +0.015 C 
ENDBRANCH  23  30
ENDBRANCH  19  26
ENDBRANCH   1  21
TORSDOF 5
