REMARK  Name = ZINC03278662
REMARK  5 active torsions:
REMARK  status: ('A' for Active; 'I' for Inactive)
REMARK    1  A    between atoms: C_2  and  C_3
REMARK    2  A    between atoms: C_2  and  N_12
REMARK    3  A    between atoms: N_12  and  N_13
REMARK    4  A    between atoms: C_14  and  C_16
REMARK    5  A    between atoms: C_25  and  O_26
REMARK                            x       y       z     vdW  Elec       q    Type
REMARK                         _______ _______ _______ _____ _____    ______ ____
ROOT
ATOM      1  N   UNL     1      -3.754   3.417   0.058  0.00  0.00    -0.232 N 
ATOM      2  C   UNL     1      -3.721   2.070   0.050  0.00  0.00    +0.264 C 
ATOM      3  O   UNL     1      -4.758   1.436   0.057  0.00  0.00    -0.269 OA
ATOM      4  H   UNL     1      -2.926   3.923   0.052  0.00  0.00    +0.173 HD
ENDROOT
BRANCH   2   5
ATOM      5  C   UNL     1      -2.425   1.364   0.034  0.00  0.00    +0.080 A 
ATOM      6  C   UNL     1      -1.245   2.091   0.031  0.00  0.00    +0.025 A 
ATOM      7  C   UNL     1      -0.017   1.415   0.010  0.00  0.00    -0.017 A 
ATOM      8  C   UNL     1       1.200   2.121   0.002  0.00  0.00    +0.008 A 
ATOM      9  C   UNL     1       2.376   1.436  -0.013  0.00  0.00    +0.001 A 
ATOM     10  C   UNL     1       2.394   0.042  -0.021  0.00  0.00    +0.001 A 
ATOM     11  C   UNL     1       1.238  -0.675  -0.013  0.00  0.00    +0.008 A 
ATOM     12  C   UNL     1       0.002  -0.004   0.002  0.00  0.00    -0.014 A 
ATOM     13  C   UNL     1      -1.208  -0.718   0.010  0.00  0.00    +0.054 A 
ATOM     14  C   UNL     1      -2.395  -0.046   0.026  0.00  0.00    +0.130 A 
BRANCH  14  15
ATOM     15  O   UNL     1      -3.560  -0.743   0.033  0.00  0.00    -0.506 OA
ATOM     16  H   UNL     1      -3.889  -0.949   0.918  0.00  0.00    +0.292 HD
ENDBRANCH  14  15
ENDBRANCH   2   5
BRANCH   1  17
ATOM     17  N   UNL     1      -4.984   4.088   0.073  0.00  0.00    -0.261 N 
ATOM     18  H   UNL     1      -5.812   3.582   0.079  0.00  0.00    +0.170 HD
BRANCH  17  20
ATOM     19  C   UNL     1      -3.878   6.181   0.074  0.00  0.00    +0.038 C 
ATOM     20  C   UNL     1      -5.019   5.484   0.081  0.00  0.00    +0.080 C 
BRANCH  20  21
ATOM     21  C   UNL     1      -6.314   6.189   0.098  0.00  0.00    +0.151 A 
ATOM     22  C   UNL     1      -6.468   7.536   0.107  0.00  0.00    +0.059 A 
ATOM     23  C   UNL     1      -7.912   7.779   0.122  0.00  0.00    +0.021 A 
ATOM     24  C   UNL     1      -8.706   8.928   0.136  0.00  0.00    +0.011 A 
ATOM     25  C   UNL     1     -10.067   8.810   0.149  0.00  0.00    +0.001 A 
ATOM     26  C   UNL     1     -10.665   7.558   0.148  0.00  0.00    +0.004 A 
ATOM     27  C   UNL     1      -9.898   6.412   0.134  0.00  0.00    +0.047 A 
ATOM     28  C   UNL     1      -8.512   6.507   0.122  0.00  0.00    +0.136 A 
ATOM     29  O   UNL     1      -7.522   5.591   0.101  0.00  0.00    -0.454 OA
ENDBRANCH  20  21
ENDBRANCH  17  20
ENDBRANCH   1  17
TORSDOF 5
