REMARK  Name = ZINC35548338
REMARK  13 active torsions:
REMARK  status: ('A' for Active; 'I' for Inactive)
REMARK    1  A    between atoms: C_1  and  C_2
REMARK    2  A    between atoms: C_2  and  C_3
REMARK    3  A    between atoms: C_2  and  C_4
REMARK    4  A    between atoms: C_4  and  C_6
REMARK    5  A    between atoms: C_4  and  O_36
REMARK    6  A    between atoms: C_6  and  N_7
REMARK    7  A    between atoms: N_7  and  C_8
REMARK    8  A    between atoms: N_7  and  C_32
REMARK    9  A    between atoms: C_8  and  C_9
REMARK   10  A    between atoms: N_12  and  C_14
REMARK   11  A    between atoms: N_22  and  C_24
REMARK   12  A    between atoms: C_24  and  C_25
REMARK   13  A    between atoms: C_32  and  C_33
REMARK                            x       y       z     vdW  Elec       q    Type
REMARK                         _______ _______ _______ _____ _____    ______ ____
ROOT
ATOM      1  C   UNL     1      -4.817  -3.584  -0.758  0.00  0.00    +0.052 A 
ATOM      2  C   UNL     1      -5.293  -3.653   0.547  0.00  0.00    +0.009 A 
ATOM      3  C   UNL     1      -6.643  -3.803   0.494  0.00  0.00    +0.051 A 
ATOM      4  N   UNL     1      -7.005  -3.826  -0.799  0.00  0.00    -0.236 N 
ATOM      5  N   UNL     1      -5.842  -3.682  -1.571  0.00  0.00    -0.173 NA
ATOM      6  C   UNL     1      -7.510  -3.920   1.724  0.00  0.00    +0.071 C 
ATOM      7  C   UNL     1      -6.595  -4.235   2.916  0.00  0.00    +0.091 C 
ATOM      8  N   UNL     1      -5.463  -3.299   2.931  0.00  0.00    -0.293 NA
ATOM      9  C   UNL     1      -4.516  -3.579   1.838  0.00  0.00    +0.123 C 
ENDROOT
BRANCH   4  10
ATOM     10  C   UNL     1      -8.311  -3.964  -1.290  0.00  0.00    +0.066 A 
ATOM     11  C   UNL     1      -9.356  -3.274  -0.690  0.00  0.00    +0.028 A 
ATOM     12  C   UNL     1     -10.642  -3.412  -1.175  0.00  0.00    +0.002 A 
ATOM     13  C   UNL     1     -10.889  -4.236  -2.257  0.00  0.00    +0.000 A 
ATOM     14  C   UNL     1      -9.850  -4.925  -2.857  0.00  0.00    +0.002 A 
ATOM     15  C   UNL     1      -8.562  -4.786  -2.380  0.00  0.00    +0.028 A 
ENDBRANCH   4  10
BRANCH   1  16
ATOM     16  C   UNL     1      -3.376  -3.419  -1.167  0.00  0.00    -0.020 C 
BRANCH  16  17
ATOM     17  N   UNL     1      -3.059  -1.989  -1.277  0.00  0.00    +0.385 N 
ATOM     18  H   UNL     1      -3.710  -1.547  -1.909  0.00  0.00    -0.081 HD
BRANCH  17  19
ATOM     19  C   UNL     1      -1.692  -1.828  -1.790  0.00  0.00    -0.046 C 
BRANCH  19  20
ATOM     20  C   UNL     1      -1.627  -2.330  -3.234  0.00  0.00    +0.101 C 
BRANCH  20  22
ATOM     21  C   UNL     1      -0.129  -2.703  -5.199  0.00  0.00    +0.010 C 
ATOM     22  C   UNL     1      -0.194  -2.201  -3.755  0.00  0.00    +0.010 C 
ATOM     23  C   UNL     1       0.236  -0.734  -3.705  0.00  0.00    +0.010 C 
ENDBRANCH  20  22
BRANCH  20  24
ATOM     24  O   UNL     1      -2.502  -1.549  -4.050  0.00  0.00    -0.393 OA
ATOM     25  H   UNL     1      -2.256  -0.616  -4.109  0.00  0.00    +0.210 HD
ENDBRANCH  20  24
ENDBRANCH  19  20
ENDBRANCH  17  19
BRANCH  17  26
ATOM     26  C   UNL     1      -3.162  -1.361   0.048  0.00  0.00    -0.075 C 
BRANCH  26  27
ATOM     27  C   UNL     1      -2.925   0.145  -0.082  0.00  0.00    -0.028 C 
ATOM     28  C   UNL     1      -1.696   0.729   0.617  0.00  0.00    +0.002 C 
ATOM     29  C   UNL     1      -3.094   0.997   1.178  0.00  0.00    +0.002 C 
ENDBRANCH  26  27
ENDBRANCH  17  26
ENDBRANCH  16  17
ENDBRANCH   1  16
BRANCH   8  30
ATOM     30  C   UNL     1      -4.784  -3.315   4.233  0.00  0.00    +0.122 C 
BRANCH  30  31
ATOM     31  C   UNL     1      -5.666  -2.666   5.269  0.00  0.00    +0.002 A 
ATOM     32  C   UNL     1      -6.328  -3.446   6.199  0.00  0.00    +0.008 A 
ATOM     33  C   UNL     1      -7.137  -2.851   7.148  0.00  0.00    +0.000 A 
ATOM     34  C   UNL     1      -7.286  -1.476   7.169  0.00  0.00    +0.003 A 
ATOM     35  C   UNL     1      -6.625  -0.695   6.240  0.00  0.00    +0.038 A 
ATOM     36  C   UNL     1      -5.809  -1.290   5.292  0.00  0.00    +0.128 A 
ATOM     37  F   UNL     1      -5.159  -0.527   4.386  0.00  0.00    -0.205 F 
ENDBRANCH  30  31
ENDBRANCH   8  30
TORSDOF 11
