REMARK  Name = ZINC24108254
REMARK  12 active torsions:
REMARK  status: ('A' for Active; 'I' for Inactive)
REMARK    1  A    between atoms: C_1  and  C_2
REMARK    2  A    between atoms: C_2  and  C_4
REMARK    3  A    between atoms: C_2  and  N_14
REMARK    4  A    between atoms: C_15  and  C_17
REMARK    5  A    between atoms: C_17  and  O_18
REMARK    6  A    between atoms: O_18  and  C_19
REMARK    7  A    between atoms: C_19  and  C_21
REMARK    8  A    between atoms: C_23  and  O_34
REMARK    9  A    between atoms: C_24  and  O_30
REMARK   10  A    between atoms: C_26  and  N_27
REMARK   11  A    between atoms: O_30  and  C_31
REMARK   12  A    between atoms: O_34  and  C_35
REMARK                            x       y       z     vdW  Elec       q    Type
REMARK                         _______ _______ _______ _____ _____    ______ ____
ROOT
ATOM      1  O   UNL     1       0.969   6.280   2.709  0.00  0.00    -0.452 OA
ENDROOT
BRANCH   1   2
ATOM      2  C   UNL     1       1.455   7.525   2.538  0.00  0.00    +0.342 C 
ATOM      3  O   UNL     1       0.788   8.364   1.965  0.00  0.00    -0.245 OA
BRANCH   2   4
ATOM      4  C   UNL     1       2.796   7.870   3.044  0.00  0.00    +0.093 A 
ATOM      5  C   UNL     1       3.111   7.660   4.391  0.00  0.00    +0.066 A 
ATOM      6  C   UNL     1       4.369   7.984   4.860  0.00  0.00    +0.163 A 
ATOM      7  C   UNL     1       5.321   8.518   3.992  0.00  0.00    +0.170 A 
ATOM      8  C   UNL     1       5.008   8.726   2.656  0.00  0.00    +0.083 A 
ATOM      9  C   UNL     1       3.757   8.400   2.179  0.00  0.00    +0.144 A 
BRANCH   9  10
ATOM     10  N   UNL     1       3.428   8.617   0.752  0.00  0.00    +0.057 N 
ATOM     11  O   UNL     1       4.219   9.193   0.027  0.00  0.00    -0.126 OA
ATOM     12  O   UNL     1       2.368   8.220   0.304  0.00  0.00    -0.126 OA
ENDBRANCH   9  10
BRANCH   6  13
ATOM     13  O   UNL     1       4.679   7.783   6.169  0.00  0.00    -0.491 OA
ATOM     14  C   UNL     1       3.656   7.233   7.001  0.00  0.00    +0.277 C 
ENDBRANCH   6  13
BRANCH   7  15
ATOM     15  O   UNL     1       6.557   8.836   4.455  0.00  0.00    -0.430 OA
BRANCH  15  16
ATOM     16  C   UNL     1       7.484   9.379   3.513  0.00  0.00    +0.541 C 
ATOM     17  F   UNL     1       7.694   8.457   2.482  0.00  0.00    -0.166 F 
ATOM     18  F   UNL     1       6.966  10.564   2.979  0.00  0.00    -0.166 F 
ENDBRANCH  15  16
ENDBRANCH   7  15
ENDBRANCH   2   4
ENDBRANCH   1   2
BRANCH   1  19
ATOM     19  C   UNL     1      -0.358   6.012   2.184  0.00  0.00    +0.328 C 
BRANCH  19  21
ATOM     20  N   UNL     1      -1.927   4.103   2.069  0.00  0.00    -0.306 N 
ATOM     21  C   UNL     1      -0.731   4.580   2.467  0.00  0.00    +0.251 C 
ATOM     22  O   UNL     1       0.046   3.856   3.054  0.00  0.00    -0.272 OA
ATOM     23  H   UNL     1      -2.631   4.760   1.538  0.00  0.00    +0.149 HD
BRANCH  20  25
ATOM     24  C   UNL     1      -1.728   1.810   1.242  0.00  0.00    +0.033 C 
ATOM     25  C   UNL     1      -2.289   2.711   2.344  0.00  0.00    +0.100 C 
BRANCH  25  26
ATOM     26  C   UNL     1      -3.790   2.580   2.384  0.00  0.00    -0.027 A 
ATOM     27  C   UNL     1      -4.571   3.273   1.477  0.00  0.00    +0.006 A 
ATOM     28  C   UNL     1      -5.943   3.146   1.518  0.00  0.00    +0.004 A 
ATOM     29  C   UNL     1      -6.550   2.337   2.470  0.00  0.00    -0.044 A 
ATOM     30  C   UNL     1      -5.772   1.649   3.375  0.00  0.00    -0.044 A 
ATOM     31  C   UNL     1      -4.390   1.774   3.328  0.00  0.00    +0.009 A 
ATOM     32  C   UNL     1      -6.360   0.746   4.428  0.00  0.00    +0.035 C 
ATOM     33  C   UNL     1      -7.844   1.047   4.625  0.00  0.00    +0.005 C 
ATOM     34  C   UNL     1      -8.527   1.034   3.253  0.00  0.00    +0.005 C 
ATOM     35  C   UNL     1      -8.054   2.256   2.467  0.00  0.00    +0.035 C 
ENDBRANCH  25  26
ENDBRANCH  20  25
ENDBRANCH  19  21
ENDBRANCH   1  19
TORSDOF 10
