REMARK  Name = ZINC14456468
REMARK  3 active torsions:
REMARK  status: ('A' for Active; 'I' for Inactive)
REMARK    1  A    between atoms: C_1  and  C_2
REMARK    2  A    between atoms: C_5  and  C_7
REMARK    3  A    between atoms: C_20  and  N_23
REMARK                            x       y       z     vdW  Elec       q    Type
REMARK                         _______ _______ _______ _____ _____    ______ ____
ROOT
ATOM      1  C   UNL     1       2.565   1.272  -0.015  0.00  0.00    +0.112 C 
ATOM      2  C   UNL     1       3.166   1.377   1.371  0.00  0.00    +0.029 C 
ATOM      3  C   UNL     1       2.550   0.524   2.487  0.00  0.00    +0.033 C 
ATOM      4  C   UNL     1       3.760   0.292   3.396  0.00  0.00    -0.030 C 
ATOM      5  C   UNL     1       4.881   0.369   2.687  0.00  0.00    -0.023 C 
ATOM      6  C   UNL     1       4.525   0.616   1.268  0.00  0.00    +0.049 C 
ATOM      7  C   UNL     1       5.383   1.395   0.350  0.00  0.00    -0.017 A 
ATOM      8  C   UNL     1       6.753   1.442   0.501  0.00  0.00    +0.006 A 
ATOM      9  C   UNL     1       7.533   2.157  -0.387  0.00  0.00    +0.003 A 
ATOM     10  C   UNL     1       6.932   2.831  -1.436  0.00  0.00    +0.034 A 
ATOM     11  C   UNL     1       5.565   2.795  -1.590  0.00  0.00    +0.147 A 
ATOM     12  C   UNL     1       4.762   2.083  -0.697  0.00  0.00    +0.062 A 
ATOM     13  N   UNL     1       3.386   2.105  -0.908  0.00  0.00    -0.334 N 
ATOM     14  H   UNL     1       3.165   1.924  -1.876  0.00  0.00    +0.147 HD
ENDROOT
BRANCH   1  19
ATOM     15  C   UNL     1      -2.355   4.080   0.046  0.00  0.00    +0.051 C 
ATOM     16  C   UNL     1      -1.196   3.116   0.030  0.00  0.00    -0.013 A 
ATOM     17  C   UNL     1      -1.213   1.761   0.017  0.00  0.00    +0.011 A 
ATOM     18  C   UNL     1      -0.013   1.076   0.008  0.00  0.00    +0.013 A 
ATOM     19  C   UNL     1       1.146   1.780   0.001  0.00  0.00    +0.010 A 
ATOM     20  S   UNL     1       0.555   3.464   0.015  0.00  0.00    -0.097 S 
ENDBRANCH   1  19
BRANCH  11  21
ATOM     21  N   UNL     1       4.937   3.521  -2.717  0.00  0.00    +0.058 N 
ATOM     22  O   UNL     1       5.630   4.145  -3.501  0.00  0.00    -0.126 OA
ATOM     23  O   UNL     1       3.728   3.495  -2.860  0.00  0.00    -0.126 OA
ENDBRANCH  11  21
TORSDOF 2
