REMARK  Name = ZINC36146361
REMARK  10 active torsions:
REMARK  status: ('A' for Active; 'I' for Inactive)
REMARK    1  A    between atoms: C_4  and  C_7
REMARK    2  A    between atoms: C_7  and  C_8
REMARK    3  A    between atoms: C_8  and  C_10
REMARK    4  A    between atoms: C_8  and  O_34
REMARK    5  A    between atoms: C_10  and  N_11
REMARK    6  A    between atoms: N_11  and  C_12
REMARK    7  A    between atoms: N_11  and  C_20
REMARK    8  A    between atoms: C_12  and  C_13
REMARK    9  A    between atoms: C_20  and  C_21
REMARK   10  A    between atoms: C_24  and  C_27
REMARK                            x       y       z     vdW  Elec       q    Type
REMARK                         _______ _______ _______ _____ _____    ______ ____
ROOT
ATOM      1  N   UNL     1       5.862  -1.952   2.945  0.00  0.00    +0.387 N 
ATOM      2  H   UNL     1       5.296  -2.552   3.526  0.00  0.00    -0.081 HD
ENDROOT
BRANCH   1   3
ATOM      3  C   UNL     1       5.373  -2.007   1.561  0.00  0.00    -0.046 C 
BRANCH   3   4
ATOM      4  C   UNL     1       5.283  -3.467   1.111  0.00  0.00    +0.102 C 
BRANCH   4   5
ATOM      5  O   UNL     1       6.599  -4.012   0.997  0.00  0.00    -0.393 OA
ATOM      6  H   UNL     1       7.162  -3.551   0.360  0.00  0.00    +0.210 HD
ENDBRANCH   4   5
BRANCH   4   7
ATOM      7  C   UNL     1       4.581  -3.539  -0.247  0.00  0.00    +0.064 C 
BRANCH   7  11
ATOM      8  C   UNL     1       4.018  -7.628  -1.346  0.00  0.00    +0.000 A 
ATOM      9  C   UNL     1       3.046  -6.968  -0.618  0.00  0.00    +0.000 A 
ATOM     10  C   UNL     1       3.228  -5.645  -0.262  0.00  0.00    +0.004 A 
ATOM     11  C   UNL     1       4.383  -4.982  -0.634  0.00  0.00    -0.045 A 
ATOM     12  C   UNL     1       5.355  -5.643  -1.361  0.00  0.00    +0.004 A 
ATOM     13  C   UNL     1       5.172  -6.965  -1.718  0.00  0.00    +0.000 A 
ENDBRANCH   7  11
ENDBRANCH   4   7
ENDBRANCH   3   4
ENDBRANCH   1   3
BRANCH   1  14
ATOM     14  C   UNL     1       5.777  -0.571   3.439  0.00  0.00    -0.041 C 
BRANCH  14  15
ATOM     15  C   UNL     1       4.331  -0.151   3.510  0.00  0.00    -0.046 A 
ATOM     16  C   UNL     1       3.800   0.667   2.530  0.00  0.00    +0.003 A 
ATOM     17  C   UNL     1       2.474   1.052   2.595  0.00  0.00    +0.000 A 
ATOM     18  C   UNL     1       1.679   0.621   3.640  0.00  0.00    +0.001 A 
ATOM     19  C   UNL     1       2.209  -0.197   4.621  0.00  0.00    +0.020 A 
ATOM     20  C   UNL     1       3.534  -0.587   4.553  0.00  0.00    +0.042 A 
ATOM     21 CL   UNL     1       4.199  -1.619   5.781  0.00  0.00    -0.083 Cl
ENDBRANCH  14  15
ENDBRANCH   1  14
BRANCH   1  22
ATOM     22  C   UNL     1       7.259  -2.402   2.989  0.00  0.00    -0.030 C 
BRANCH  22  23
ATOM     23  C   UNL     1       7.748  -2.406   4.439  0.00  0.00    +0.194 C 
ATOM     24  C   UNL     1       9.234  -2.830   4.521  0.00  0.00    +0.104 C 
ATOM     25  C   UNL     1       9.269  -3.665   5.787  0.00  0.00    +0.092 C 
ATOM     26  N   UNL     1       8.055  -3.967   6.106  0.00  0.00    -0.089 NA
ATOM     27  O   UNL     1       7.102  -3.446   5.199  0.00  0.00    -0.392 OA
BRANCH  25  28
ATOM     28  C   UNL     1      10.482  -4.064   6.527  0.00  0.00    +0.018 A 
ATOM     29  C   UNL     1      11.742  -3.665   6.075  0.00  0.00    +0.011 A 
ATOM     30  C   UNL     1      12.872  -4.041   6.771  0.00  0.00    +0.001 A 
ATOM     31  C   UNL     1      12.760  -4.813   7.915  0.00  0.00    +0.001 A 
ATOM     32  C   UNL     1      11.516  -5.212   8.368  0.00  0.00    +0.020 A 
ATOM     33  C   UNL     1      10.376  -4.838   7.685  0.00  0.00    +0.050 A 
ATOM     34 CL   UNL     1       8.814  -5.333   8.260  0.00  0.00    -0.083 Cl
ENDBRANCH  25  28
ENDBRANCH  22  23
ENDBRANCH   1  22
TORSDOF 10
