REMARK  Name = ZINC09242281
REMARK  3 active torsions:
REMARK  status: ('A' for Active; 'I' for Inactive)
REMARK    1  A    between atoms: C_12  and  C_16
REMARK    2  A    between atoms: N_18  and  C_19
REMARK    3  A    between atoms: C_19  and  C_20
REMARK                            x       y       z     vdW  Elec       q    Type
REMARK                         _______ _______ _______ _____ _____    ______ ____
ROOT
ATOM      1  C   UNL     1      -3.399  -5.480   0.490  0.00  0.00    +0.260 C 
ATOM      2  O   UNL     1      -3.760  -4.770   1.409  0.00  0.00    -0.269 OA
ATOM      3  N   UNL     1      -2.118  -5.444   0.073  0.00  0.00    -0.242 N 
ATOM      4  C   UNL     1      -1.245  -4.506   0.599  0.00  0.00    +0.169 A 
ATOM      5  N   UNL     1      -1.476  -3.581   1.501  0.00  0.00    -0.224 NA
ATOM      6  C   UNL     1      -0.519  -2.725   1.926  0.00  0.00    +0.084 A 
ATOM      7  C   UNL     1      -0.638  -1.692   2.884  0.00  0.00    +0.078 A 
ATOM      8  C   UNL     1       0.439  -0.901   3.210  0.00  0.00    +0.168 A 
ATOM      9  C   UNL     1       1.682  -1.097   2.602  0.00  0.00    +0.167 A 
ATOM     10  C   UNL     1       1.829  -2.099   1.659  0.00  0.00    +0.066 A 
ATOM     11  C   UNL     1       0.753  -2.889   1.335  0.00  0.00    +0.044 A 
ATOM     12  S   UNL     1       0.483  -4.248   0.223  0.00  0.00    -0.052 S 
ATOM     13  O   UNL     1       2.566  -0.187   3.105  0.00  0.00    -0.453 OA
ATOM     14  C   UNL     1       1.965   0.300   4.319  0.00  0.00    +0.466 C 
ATOM     15  O   UNL     1       0.553   0.138   4.093  0.00  0.00    -0.453 OA
ENDROOT
BRANCH   1  27
ATOM     16  C   UNL     1      -4.108 -12.535  -2.102  0.00  0.00    +0.001 A 
ATOM     17  C   UNL     1      -3.140 -11.752  -1.480  0.00  0.00    +0.001 A 
ATOM     18  C   UNL     1      -3.397 -10.453  -1.149  0.00  0.00    +0.009 A 
ATOM     19  C   UNL     1      -4.648  -9.901  -1.436  0.00  0.00    -0.007 A 
ATOM     20  C   UNL     1      -5.635 -10.694  -2.067  0.00  0.00    -0.017 A 
ATOM     21  C   UNL     1      -5.338 -12.026  -2.395  0.00  0.00    +0.008 A 
ATOM     22  C   UNL     1      -6.895 -10.133  -2.356  0.00  0.00    +0.012 A 
ATOM     23  C   UNL     1      -7.178  -8.845  -2.038  0.00  0.00    +0.047 A 
ATOM     24  C   UNL     1      -6.242  -8.014  -1.412  0.00  0.00    +0.140 A 
ATOM     25  C   UNL     1      -4.969  -8.512  -1.099  0.00  0.00    +0.026 A 
ATOM     26  C   UNL     1      -4.013  -7.688  -0.475  0.00  0.00    +0.032 A 
ATOM     27  C   UNL     1      -4.361  -6.378  -0.167  0.00  0.00    +0.122 A 
ATOM     28  C   UNL     1      -5.705  -5.909  -0.517  0.00  0.00    +0.350 A 
ATOM     29  O   UNL     1      -6.035  -4.765  -0.263  0.00  0.00    -0.244 OA
ATOM     30  O   UNL     1      -6.573  -6.740  -1.116  0.00  0.00    -0.422 OA
ENDBRANCH   1  27
BRANCH   3  31
ATOM     31  C   UNL     1      -1.649  -6.396  -0.936  0.00  0.00    +0.152 C 
BRANCH  31  32
ATOM     32  C   UNL     1      -0.450  -7.140  -0.407  0.00  0.00    -0.012 A 
ATOM     33  C   UNL     1       0.832  -6.747  -0.759  0.00  0.00    +0.008 A 
ATOM     34  C   UNL     1       1.905  -7.458  -0.244  0.00  0.00    +0.020 A 
ATOM     35  C   UNL     1       1.663  -8.534   0.590  0.00  0.00    +0.111 A 
ATOM     36  N   UNL     1       0.429  -8.882   0.899  0.00  0.00    -0.263 NA
ATOM     37  C   UNL     1      -0.615  -8.226   0.432  0.00  0.00    +0.116 A 
ENDBRANCH  31  32
ENDBRANCH   3  31
TORSDOF 3
