REMARK  Name = ZINC08431534
REMARK  11 active torsions:
REMARK  status: ('A' for Active; 'I' for Inactive)
REMARK    1  A    between atoms: C_1  and  C_2
REMARK    2  A    between atoms: C_5  and  O_12
REMARK    3  A    between atoms: C_8  and  C_10
REMARK    4  A    between atoms: C_8  and  C_11
REMARK    5  A    between atoms: O_12  and  C_13
REMARK    6  A    between atoms: C_13  and  C_14
REMARK    7  A    between atoms: C_14  and  C_16
REMARK    8  A    between atoms: C_14  and  O_38
REMARK    9  A    between atoms: C_16  and  N_76
REMARK   10  A    between atoms: C_19  and  C_22
REMARK   11  A    between atoms: C_22  and  N_23
REMARK                            x       y       z     vdW  Elec       q    Type
REMARK                         _______ _______ _______ _____ _____    ______ ____
ROOT
ATOM      1  C   UNL     1      -0.724   2.136   0.870  0.00  0.00    -0.078 C 
ATOM      2  C   UNL     1      -0.925   3.610   0.510  0.00  0.00    -0.014 C 
ATOM      3  C   UNL     1       0.434   4.245   0.201  0.00  0.00    +0.003 C 
ATOM      4  C   UNL     1       1.103   3.472  -0.939  0.00  0.00    -0.014 C 
ATOM      5  C   UNL     1       1.245   2.002  -0.537  0.00  0.00    -0.078 C 
ATOM      6  N   UNL     1      -0.099   1.443  -0.277  0.00  0.00    +0.381 N 
ATOM      7  H   UNL     1      -0.683   1.583  -1.109  0.00  0.00    -0.082 HD
ENDROOT
BRANCH   6   8
ATOM      8  C   UNL     1       0.002  -0.004   0.002  0.00  0.00    -0.045 C 
BRANCH   8   9
ATOM      9  C   UNL     1      -1.381  -0.535   0.386  0.00  0.00    +0.124 C 
BRANCH   9  10
ATOM     10  O   UNL     1      -2.304  -0.266  -0.671  0.00  0.00    -0.391 OA
ATOM     11  H   UNL     1      -2.066  -0.674  -1.515  0.00  0.00    +0.210 HD
ENDBRANCH   9  10
BRANCH   9  12
ATOM     12  C   UNL     1      -1.300  -2.045   0.621  0.00  0.00    +0.189 C 
BRANCH  12  13
ATOM     13  O   UNL     1      -2.562  -2.522   1.091  0.00  0.00    -0.374 OA
BRANCH  13  17
ATOM     14  C   UNL     1      -1.632  -6.721   0.385  0.00  0.00    +0.007 C 
ATOM     15  C   UNL     1      -3.051  -6.162   0.300  0.00  0.00    -0.011 C 
ATOM     16  C   UNL     1      -3.026  -4.657   0.069  0.00  0.00    +0.035 C 
ATOM     17  C   UNL     1      -2.595  -3.932   1.344  0.00  0.00    +0.119 C 
ATOM     18  C   UNL     1      -3.618  -4.220   2.441  0.00  0.00    +0.038 C 
ATOM     19  C   UNL     1      -3.682  -5.711   2.748  0.00  0.00    -0.032 C 
ATOM     20  C   UNL     1      -3.887  -6.555   1.502  0.00  0.00    +0.009 C 
ATOM     21  C   UNL     1      -4.886  -5.946   3.686  0.00  0.00    +0.011 C 
ATOM     22  C   UNL     1      -2.422  -6.144   3.505  0.00  0.00    +0.011 C 
ENDBRANCH  13  17
ENDBRANCH  12  13
ENDBRANCH   9  12
ENDBRANCH   8   9
ENDBRANCH   6   8
BRANCH   3  23
ATOM     23  C   UNL     1       0.235   5.703  -0.218  0.00  0.00    +0.120 C 
BRANCH  23  24
ATOM     24  N   UNL     1      -0.294   6.468   0.914  0.00  0.00    -0.234 N 
ATOM     25  C   UNL     1      -1.629   6.562   1.065  0.00  0.00    +0.254 C 
ATOM     26  O   UNL     1      -2.368   6.015   0.269  0.00  0.00    -0.270 OA
ATOM     27  C   UNL     1      -2.198   7.317   2.191  0.00  0.00    +0.046 A 
ATOM     28  C   UNL     1      -3.566   7.435   2.388  0.00  0.00    +0.014 A 
ATOM     29  C   UNL     1      -4.056   8.164   3.465  0.00  0.00    +0.001 A 
ATOM     30  C   UNL     1      -3.220   8.780   4.352  0.00  0.00    +0.008 A 
ATOM     31  C   UNL     1      -1.827   8.685   4.189  0.00  0.00    -0.016 A 
ATOM     32  C   UNL     1      -1.318   7.948   3.099  0.00  0.00    +0.006 A 
ATOM     33  C   UNL     1       0.078   7.833   2.908  0.00  0.00    +0.046 A 
ATOM     34  C   UNL     1       0.934   8.455   3.805  0.00  0.00    +0.014 A 
ATOM     35  C   UNL     1       0.419   9.178   4.874  0.00  0.00    +0.001 A 
ATOM     36  C   UNL     1      -0.926   9.300   5.075  0.00  0.00    +0.008 A 
ATOM     37  C   UNL     1       0.572   7.057   1.761  0.00  0.00    +0.254 C 
ATOM     38  O   UNL     1       1.768   6.945   1.576  0.00  0.00    -0.270 OA
ENDBRANCH  23  24
ENDBRANCH   3  23
TORSDOF 8
