REMARK  Name = ZINC13501128
REMARK  10 active torsions:
REMARK  status: ('A' for Active; 'I' for Inactive)
REMARK    1  A    between atoms: C_1  and  C_2
REMARK    2  A    between atoms: C_2  and  C_3
REMARK    3  A    between atoms: C_3  and  C_5
REMARK    4  A    between atoms: C_3  and  N_66
REMARK    5  A    between atoms: N_9  and  C_10
REMARK    6  A    between atoms: C_10  and  C_11
REMARK    7  A    between atoms: C_16  and  C_17
REMARK    8  A    between atoms: C_16  and  N_66
REMARK    9  A    between atoms: C_23  and  C_29
REMARK   10  A    between atoms: C_30  and  N_66
REMARK                            x       y       z     vdW  Elec       q    Type
REMARK                         _______ _______ _______ _____ _____    ______ ____
ROOT
ATOM      1  N   UNL     1       0.842  -4.005   4.944  0.00  0.00    +0.391 N 
ATOM      2  H   UNL     1       1.533  -4.242   4.224  0.00  0.00    -0.080 HD
ENDROOT
BRANCH   1   3
ATOM      3  C   UNL     1       0.777  -2.534   5.081  0.00  0.00    -0.067 C 
ATOM      4  C   UNL     1       1.264  -1.903   3.775  0.00  0.00    -0.015 C 
ATOM      5  C   UNL     1       1.217  -0.379   3.897  0.00  0.00    -0.002 C 
ATOM      6  C   UNL     1       2.120   0.069   5.048  0.00  0.00    -0.000 C 
ATOM      7  C   UNL     1       1.633  -0.562   6.354  0.00  0.00    -0.002 C 
ATOM      8  C   UNL     1       1.680  -2.086   6.232  0.00  0.00    -0.015 C 
ENDBRANCH   1   3
BRANCH   1   9
ATOM      9  C   UNL     1       1.255  -4.613   6.226  0.00  0.00    +0.003 C 
BRANCH   9  10
ATOM     10  C   UNL     1       0.178  -4.438   7.266  0.00  0.00    +0.139 A 
ATOM     11  N   UNL     1      -1.100  -4.247   7.045  0.00  0.00    -0.115 NA
ATOM     12  N   UNL     1      -1.690  -4.146   8.185  0.00  0.00    -0.023 NA
ATOM     13  N   UNL     1      -0.821  -4.259   9.128  0.00  0.00    -0.044 NA
ATOM     14  N   UNL     1       0.343  -4.440   8.602  0.00  0.00    -0.223 N 
BRANCH  14  15
ATOM     15  C   UNL     1       1.606  -4.614   9.322  0.00  0.00    +0.221 C 
BRANCH  15  16
ATOM     16  C   UNL     1       2.036  -3.294   9.910  0.00  0.00    +0.126 A 
ATOM     17  C   UNL     1       1.677  -2.815  11.114  0.00  0.00    +0.046 A 
ATOM     18  C   UNL     1       2.305  -1.557  11.259  0.00  0.00    +0.041 A 
ATOM     19  C   UNL     1       3.004  -1.339  10.130  0.00  0.00    +0.195 A 
ATOM     20  O   UNL     1       2.837  -2.394   9.317  0.00  0.00    -0.466 OA
ENDBRANCH  15  16
ENDBRANCH  14  15
ENDBRANCH   9  10
BRANCH   9  22
ATOM     21  C   UNL     1       2.659  -6.283   5.009  0.00  0.00    +0.002 C 
ATOM     22  C   UNL     1       1.511  -6.105   6.004  0.00  0.00    -0.011 C 
ENDBRANCH   9  22
ENDBRANCH   1   9
BRANCH   1  23
ATOM     23  C   UNL     1      -0.477  -4.532   4.536  0.00  0.00    -0.036 C 
BRANCH  23  24
ATOM     24  C   UNL     1      -0.656  -4.295   3.059  0.00  0.00    +0.001 A 
ATOM     25  C   UNL     1      -0.331  -5.269   2.174  0.00  0.00    +0.017 A 
ATOM     26  C   UNL     1      -0.517  -5.007   0.746  0.00  0.00    -0.001 A 
ATOM     27  C   UNL     1      -0.200  -5.974  -0.215  0.00  0.00    +0.010 A 
ATOM     28  C   UNL     1      -0.384  -5.698  -1.540  0.00  0.00    +0.001 A 
ATOM     29  C   UNL     1      -0.890  -4.469  -1.942  0.00  0.00    +0.005 A 
ATOM     30  C   UNL     1      -1.203  -3.500  -1.014  0.00  0.00    -0.026 A 
ATOM     31  C   UNL     1      -1.024  -3.758   0.341  0.00  0.00    +0.052 A 
ATOM     32  N   UNL     1      -1.334  -2.809   1.292  0.00  0.00    -0.322 N 
ATOM     33  H   UNL     1      -1.683  -1.948   1.012  0.00  0.00    +0.169 HD
ATOM     34  C   UNL     1      -1.161  -3.059   2.601  0.00  0.00    +0.251 A 
ATOM     35  O   UNL     1      -1.446  -2.196   3.414  0.00  0.00    -0.268 OA
ATOM     36  C   UNL     1      -1.744  -2.168  -1.465  0.00  0.00    +0.046 C 
ENDBRANCH  23  24
ENDBRANCH   1  23
TORSDOF 8
