REMARK  Name = ZINC10355083
REMARK  8 active torsions:
REMARK  status: ('A' for Active; 'I' for Inactive)
REMARK    1  A    between atoms: C_1  and  C_2
REMARK    2  A    between atoms: C_6  and  C_8
REMARK    3  A    between atoms: C_10  and  C_25
REMARK    4  A    between atoms: C_11  and  C_24
REMARK    5  A    between atoms: N_12  and  C_16
REMARK    6  A    between atoms: C_21  and  O_22
REMARK    7  A    between atoms: O_22  and  C_23
REMARK    8  A    between atoms: C_30  and  C_33
REMARK                            x       y       z     vdW  Elec       q    Type
REMARK                         _______ _______ _______ _____ _____    ______ ____
ROOT
ATOM      1  C   UNL     1      -0.771   2.141   3.668  0.00  0.00    +0.139 C 
ATOM      2  C   UNL     1       0.011   1.775   2.422  0.00  0.00    +0.056 C 
ATOM      3  C   UNL     1      -0.678   1.617   1.272  0.00  0.00    +0.025 C 
ATOM      4  N   UNL     1      -2.033   1.787   1.232  0.00  0.00    -0.252 N 
ATOM      5  C   UNL     1      -2.773   2.104   2.302  0.00  0.00    +0.142 C 
ATOM      6  S   UNL     1      -4.466   2.280   2.115  0.00  0.00    -0.018 S 
ATOM      7  N   UNL     1      -2.228   2.295   3.519  0.00  0.00    -0.315 N 
ATOM      8  C   UNL     1       0.061   1.253   0.010  0.00  0.00    +0.062 C 
ATOM      9  H   UNL     1      -2.783   2.529   4.280  0.00  0.00    +0.149 HD
ENDROOT
BRANCH   2  10
ATOM     10  C   UNL     1       1.416   1.605   2.464  0.00  0.00    +0.249 C 
ATOM     11  O   UNL     1       1.890   0.545   2.833  0.00  0.00    -0.270 OA
ATOM     12  N   UNL     1       2.228   2.615   2.096  0.00  0.00    -0.264 N 
ATOM     13  C   UNL     1       3.608   2.490   2.249  0.00  0.00    +0.168 A 
ATOM     14  C   UNL     1       4.311   1.373   2.773  0.00  0.00    +0.091 A 
ATOM     15  C   UNL     1       5.610   1.744   2.709  0.00  0.00    +0.136 A 
ATOM     16  O   UNL     1       5.630   2.980   2.188  0.00  0.00    -0.358 OA
ATOM     17  N   UNL     1       4.516   3.377   1.933  0.00  0.00    -0.063 NA
ATOM     18  C   UNL     1       6.802   0.930   3.140  0.00  0.00    +0.089 C 
ATOM     19  H   UNL     1       1.853   3.429   1.724  0.00  0.00    +0.157 HD
ENDBRANCH   2  10
BRANCH   1  25
ATOM     20  C   UNL     1       2.256   4.603   6.802  0.00  0.00    +0.044 C 
ATOM     21  C   UNL     1       1.229   4.616   5.699  0.00  0.00    -0.050 A 
ATOM     22  C   UNL     1       0.795   5.819   5.173  0.00  0.00    +0.003 A 
ATOM     23  C   UNL     1      -0.146   5.832   4.161  0.00  0.00    +0.001 A 
ATOM     24  C   UNL     1      -0.652   4.641   3.674  0.00  0.00    +0.006 A 
ATOM     25  C   UNL     1      -0.218   3.439   4.199  0.00  0.00    -0.022 A 
ATOM     26  C   UNL     1       0.719   3.426   5.215  0.00  0.00    +0.009 A 
ENDBRANCH   1  25
BRANCH   4  27
ATOM     27  C   UNL     1      -2.686   1.614   0.003  0.00  0.00    +0.082 A 
ATOM     28  C   UNL     1      -3.158   0.362  -0.363  0.00  0.00    +0.027 A 
ATOM     29  C   UNL     1      -3.806   0.195  -1.572  0.00  0.00    +0.002 A 
ATOM     30  C   UNL     1      -3.976   1.271  -2.424  0.00  0.00    +0.004 A 
ATOM     31  C   UNL     1      -3.503   2.520  -2.068  0.00  0.00    +0.047 A 
ATOM     32  C   UNL     1      -2.857   2.697  -0.855  0.00  0.00    +0.142 A 
BRANCH  32  33
ATOM     33  O   UNL     1      -2.391   3.925  -0.504  0.00  0.00    -0.493 OA
ATOM     34  C   UNL     1      -2.603   4.990  -1.434  0.00  0.00    +0.277 C 
ENDBRANCH  32  33
ENDBRANCH   4  27
TORSDOF 4
