REMARK  Name = ZINC19441143
REMARK  5 active torsions:
REMARK  status: ('A' for Active; 'I' for Inactive)
REMARK    1  A    between atoms: C_1  and  C_2
REMARK    2  A    between atoms: C_2  and  C_3
REMARK    3  A    between atoms: C_3  and  C_5
REMARK    4  A    between atoms: C_3  and  N_6
REMARK    5  A    between atoms: C_7  and  C_9
REMARK                            x       y       z     vdW  Elec       q    Type
REMARK                         _______ _______ _______ _____ _____    ______ ____
ROOT
ATOM      1  C   UNL     1       4.726   1.470  -0.465  0.00  0.00    +0.275 C 
ATOM      2  C   UNL     1       4.843   0.120   0.256  0.00  0.00    +0.155 C 
ATOM      3  N   UNL     1       3.625  -0.652  -0.045  0.00  0.00    -0.337 N 
ATOM      4  C   UNL     1       2.398   0.030  -0.022  0.00  0.00    +0.070 A 
ATOM      5  C   UNL     1       1.208  -0.680  -0.014  0.00  0.00    +0.026 A 
ATOM      6  C   UNL     1       0.002  -0.004   0.002  0.00  0.00    +0.002 A 
ATOM      7  C   UNL     1      -0.017   1.378   0.010  0.00  0.00    +0.004 A 
ATOM      8  C   UNL     1       1.167   2.092   0.002  0.00  0.00    +0.047 A 
ATOM      9  C   UNL     1       2.381   1.422  -0.013  0.00  0.00    +0.142 A 
ATOM     10  O   UNL     1       3.541   2.132  -0.015  0.00  0.00    -0.476 OA
ATOM     11  H   UNL     1       3.697  -1.725  -0.276  0.00  0.00    +0.146 HD
ENDROOT
BRANCH   1  13
ATOM     12  N   UNL     1       7.152   1.940  -0.570  0.00  0.00    -0.310 N 
ATOM     13  C   UNL     1       5.930   2.319  -0.146  0.00  0.00    +0.256 C 
ATOM     14  O   UNL     1       5.799   3.342   0.491  0.00  0.00    -0.272 OA
ATOM     15  H   UNL     1       7.271   1.012  -1.148  0.00  0.00    +0.149 HD
BRANCH  12  16
ATOM     16  C   UNL     1       8.323   2.765  -0.260  0.00  0.00    +0.070 C 
ATOM     17  C   UNL     1       8.851   2.399   1.128  0.00  0.00    +0.028 C 
BRANCH  16  19
ATOM     18  C   UNL     1       8.929   2.997  -2.673  0.00  0.00    +0.005 C 
ATOM     19  C   UNL     1       9.413   2.515  -1.304  0.00  0.00    +0.018 C 
ENDBRANCH  16  19
ENDBRANCH  12  16
ENDBRANCH   1  13
TORSDOF 3
