REMARK  Name = ZINC65423542
REMARK  5 active torsions:
REMARK  status: ('A' for Active; 'I' for Inactive)
REMARK    1  A    between atoms: C_4  and  C_7
REMARK    2  A    between atoms: C_7  and  C_8
REMARK    3  A    between atoms: C_8  and  C_9
REMARK    4  A    between atoms: C_12  and  C_22
REMARK    5  A    between atoms: C_27  and  C_28
REMARK                            x       y       z     vdW  Elec       q    Type
REMARK                         _______ _______ _______ _____ _____    ______ ____
ROOT
ATOM      1  C   UNL     1       5.479  -1.773   1.679  0.00  0.00    +0.019 C 
ATOM      2  N   UNL     1       6.109  -2.047   2.999  0.00  0.00    +0.406 N 
ATOM      3  C   UNL     1       7.543  -2.195   2.648  0.00  0.00    +0.069 C 
ATOM      4  N   UNL     1       7.721  -1.508   1.359  0.00  0.00    -0.262 N 
ATOM      5  N   UNL     1       6.513  -0.963   0.987  0.00  0.00    -0.254 NA
ATOM      6  C   UNL     1       8.906  -1.426   0.637  0.00  0.00    +0.134 A 
ATOM      7  C   UNL     1       8.957  -0.655  -0.520  0.00  0.00    +0.045 A 
ATOM      8  C   UNL     1      10.142  -0.582  -1.229  0.00  0.00    +0.005 A 
ATOM      9  C   UNL     1      11.242  -1.286  -0.755  0.00  0.00    +0.020 A 
ATOM     10  C   UNL     1      11.121  -2.031   0.400  0.00  0.00    +0.113 A 
ATOM     11  N   UNL     1       9.978  -2.078   1.059  0.00  0.00    -0.239 NA
ATOM     12  H   UNL     1       5.973  -1.270   3.629  0.00  0.00    -0.080 HD
ATOM     13  H   UNL     1       6.456   0.007   1.260  0.00  0.00    +0.142 HD
ATOM     14  H   UNL     1       5.748  -2.901   3.398  0.00  0.00    -0.080 HD
ENDROOT
BRANCH   3  15
ATOM     15  C   UNL     1       7.896  -3.653   2.514  0.00  0.00    -0.032 A 
ATOM     16  C   UNL     1       7.884  -4.256   1.272  0.00  0.00    +0.004 A 
ATOM     17  C   UNL     1       8.208  -5.595   1.147  0.00  0.00    +0.000 A 
ATOM     18  C   UNL     1       8.546  -6.337   2.264  0.00  0.00    +0.001 A 
ATOM     19  C   UNL     1       8.561  -5.745   3.510  0.00  0.00    +0.012 A 
ATOM     20  C   UNL     1       8.241  -4.395   3.641  0.00  0.00    +0.024 A 
BRANCH  20  21
ATOM     21  C   UNL     1       8.261  -3.751   4.978  0.00  0.00    +0.181 A 
ATOM     22  H   UNL     1       7.868  -1.523   7.126  0.00  0.00    +0.190 HD
ATOM     23  N   UNL     1       8.680  -4.324   6.115  0.00  0.00    -0.215 NA
ATOM     24  C   UNL     1       8.564  -3.479   7.105  0.00  0.00    +0.216 A 
ATOM     25  N   UNL     1       8.061  -2.329   6.622  0.00  0.00    -0.265 N 
ATOM     26  N   UNL     1       7.876  -2.522   5.243  0.00  0.00    -0.152 NA
ENDBRANCH  20  21
ENDBRANCH   3  15
BRANCH   1  27
ATOM     27  C   UNL     1       4.186  -0.972   1.849  0.00  0.00    +0.005 C 
BRANCH  27  28
ATOM     28  C   UNL     1       3.535  -0.758   0.481  0.00  0.00    +0.035 C 
BRANCH  28  32
ATOM     29  C   UNL     1      -0.075   1.476   0.955  0.00  0.00    +0.000 A 
ATOM     30  C   UNL     1       1.123   2.134   0.746  0.00  0.00    +0.000 A 
ATOM     31  C   UNL     1       2.291   1.411   0.593  0.00  0.00    +0.003 A 
ATOM     32  C   UNL     1       2.261   0.030   0.649  0.00  0.00    -0.047 A 
ATOM     33  C   UNL     1       1.063  -0.628   0.858  0.00  0.00    +0.003 A 
ATOM     34  C   UNL     1      -0.105   0.095   1.010  0.00  0.00    +0.000 A 
ENDBRANCH  28  32
ENDBRANCH  27  28
ENDBRANCH   1  27
TORSDOF 5
