REMARK  Name = ZINC41584608
REMARK  5 active torsions:
REMARK  status: ('A' for Active; 'I' for Inactive)
REMARK    1  A    between atoms: C_3  and  C_7
REMARK    2  A    between atoms: N_13  and  C_14
REMARK    3  A    between atoms: C_14  and  C_15
REMARK    4  A    between atoms: C_16  and  O_34
REMARK    5  A    between atoms: C_23  and  C_24
REMARK                            x       y       z     vdW  Elec       q    Type
REMARK                         _______ _______ _______ _____ _____    ______ ____
ROOT
ATOM      1  C   UNL     1       5.695   0.277   2.403  0.00  0.00    +0.020 A 
ATOM      2  C   UNL     1       5.646  -1.108   2.373  0.00  0.00    +0.122 A 
ATOM      3  C   UNL     1       6.404  -1.862   3.265  0.00  0.00    +0.046 A 
ATOM      4  C   UNL     1       7.206  -1.242   4.180  0.00  0.00    +0.019 A 
ATOM      5  C   UNL     1       7.265   0.152   4.222  0.00  0.00    +0.068 A 
ATOM      6  C   UNL     1       6.509   0.923   3.324  0.00  0.00    +0.144 A 
ATOM      7  O   UNL     1       6.735   2.236   3.550  0.00  0.00    -0.451 OA
ATOM      8  C   UNL     1       7.617   2.429   4.559  0.00  0.00    +0.176 C 
ATOM      9  C   UNL     1       8.050   3.627   5.027  0.00  0.00    +0.059 C 
ATOM     10  C   UNL     1       8.009   1.105   5.065  0.00  0.00    +0.231 C 
ATOM     11  O   UNL     1       8.786   0.852   5.969  0.00  0.00    -0.283 OA
ENDROOT
BRANCH   9  12
ATOM     12  C   UNL     1       7.652   4.868   4.349  0.00  0.00    -0.003 A 
ATOM     13  C   UNL     1       6.564   4.870   3.468  0.00  0.00    +0.011 A 
ATOM     14  C   UNL     1       6.196   6.038   2.836  0.00  0.00    +0.020 A 
ATOM     15  C   UNL     1       6.899   7.209   3.071  0.00  0.00    +0.042 A 
ATOM     16  C   UNL     1       7.977   7.216   3.941  0.00  0.00    +0.040 A 
ATOM     17  C   UNL     1       8.354   6.056   4.586  0.00  0.00    +0.050 A 
ATOM     18 CL   UNL     1       9.701   6.068   5.682  0.00  0.00    -0.083 Cl
ATOM     19 CL   UNL     1       6.428   8.675   2.269  0.00  0.00    -0.083 Cl
ENDBRANCH   9  12
BRANCH   2  20
ATOM     20  O   UNL     1       4.852  -1.734   1.468  0.00  0.00    -0.506 OA
ATOM     21  H   UNL     1       5.290  -1.926   0.627  0.00  0.00    +0.292 HD
ENDBRANCH   2  20
BRANCH   1  22
ATOM     22  C   UNL     1       4.868   1.081   1.433  0.00  0.00    -0.035 C 
BRANCH  22  28
ATOM     23  C   UNL     1       4.800   1.998  -0.781  0.00  0.00    -0.036 C 
ATOM     24  C   UNL     1       5.579   2.176  -2.086  0.00  0.00    -0.011 C 
ATOM     25  C   UNL     1       6.829   3.018  -1.816  0.00  0.00    -0.003 C 
ATOM     26  C   UNL     1       7.666   2.339  -0.729  0.00  0.00    -0.019 C 
ATOM     27  C   UNL     1       6.809   2.155   0.526  0.00  0.00    -0.078 C 
ATOM     28  N   UNL     1       5.645   1.319   0.209  0.00  0.00    +0.387 N 
ATOM     29  H   UNL     1       5.958   0.436  -0.166  0.00  0.00    -0.080 HD
BRANCH  23  32
ATOM     30  C   UNL     1       1.226   0.977  -1.432  0.00  0.00    +0.020 A 
ATOM     31  C   UNL     1       2.332   1.778  -1.194  0.00  0.00    +0.005 A 
ATOM     32  C   UNL     1       3.568   1.170  -1.041  0.00  0.00    -0.043 A 
ATOM     33  C   UNL     1       3.656  -0.207  -1.130  0.00  0.00    +0.112 A 
ATOM     34  N   UNL     1       2.583  -0.938  -1.358  0.00  0.00    -0.263 NA
ATOM     35  C   UNL     1       1.392  -0.393  -1.508  0.00  0.00    +0.111 A 
ENDBRANCH  23  32
ENDBRANCH  22  28
ENDBRANCH   1  22
TORSDOF 5
