REMARK  Name = ZINC16679793
REMARK  11 active torsions:
REMARK  status: ('A' for Active; 'I' for Inactive)
REMARK    1  A    between atoms: C_1  and  C_2
REMARK    2  A    between atoms: C_2  and  N_3
REMARK    3  A    between atoms: N_3  and  C_4
REMARK    4  A    between atoms: N_3  and  C_6
REMARK    5  A    between atoms: C_4  and  C_5
REMARK    6  A    between atoms: C_9  and  N_12
REMARK    7  A    between atoms: N_12  and  S_13
REMARK    8  A    between atoms: S_13  and  C_16
REMARK    9  A    between atoms: C_19  and  N_22
REMARK   10  A    between atoms: C_25  and  C_30
REMARK   11  A    between atoms: C_25  and  C_31
REMARK                            x       y       z     vdW  Elec       q    Type
REMARK                         _______ _______ _______ _____ _____    ______ ____
ROOT
ATOM      1  S   UNL     1      -0.046  -0.139  -0.029  0.00  0.00    +0.072 S 
ATOM      2  O   UNL     1      -1.230  -0.805  -0.446  0.00  0.00    -0.150 OA
ATOM      3  O   UNL     1       1.210  -0.351  -0.659  0.00  0.00    -0.150 OA
ENDROOT
BRANCH   1   4
ATOM      4  C   UNL     1      -0.376   1.589  -0.135  0.00  0.00    +0.109 A 
ATOM      5  C   UNL     1      -1.683   2.039  -0.191  0.00  0.00    +0.030 A 
ATOM      6  C   UNL     1      -1.945   3.393  -0.269  0.00  0.00    +0.027 A 
ATOM      7  C   UNL     1      -0.895   4.301  -0.303  0.00  0.00    +0.059 A 
ATOM      8  C   UNL     1       0.415   3.845  -0.252  0.00  0.00    +0.027 A 
ATOM      9  C   UNL     1       0.671   2.491  -0.168  0.00  0.00    +0.030 A 
BRANCH   7  10
ATOM     10  N   UNL     1      -1.158   5.673  -0.387  0.00  0.00    -0.143 N 
ATOM     11  C   UNL     1      -0.351   6.659   0.035  0.00  0.00    +0.246 C 
ATOM     12  O   UNL     1       0.733   6.409   0.518  0.00  0.00    -0.273 OA
ATOM     13  C   UNL     1      -0.818   8.075  -0.109  0.00  0.00    +0.064 C 
ATOM     14  C   UNL     1      -1.965   8.118  -1.153  0.00  0.00    +0.205 C 
ATOM     15  S   UNL     1      -2.537   6.375  -1.027  0.00  0.00    +0.053 S 
ATOM     16  O   UNL     1      -2.699   5.799  -2.316  0.00  0.00    -0.155 OA
ATOM     17  O   UNL     1      -3.537   6.240  -0.026  0.00  0.00    -0.155 OA
ATOM     18  C   UNL     1       0.340   8.958  -0.579  0.00  0.00    +0.022 C 
ATOM     19  C   UNL     1      -1.333   8.579   1.242  0.00  0.00    +0.022 C 
ENDBRANCH   7  10
ENDBRANCH   1   4
BRANCH   1  20
ATOM     20  N   UNL     1       0.162  -0.500   1.574  0.00  0.00    -0.216 N 
ATOM     21  H   UNL     1       1.018  -0.830   1.890  0.00  0.00    +0.174 HD
BRANCH  20  25
ATOM     22  C   UNL     1      -2.995   0.006   4.250  0.00  0.00    +0.030 A 
ATOM     23  C   UNL     1      -3.005  -1.059   3.359  0.00  0.00    +0.025 A 
ATOM     24  C   UNL     1      -1.959  -1.226   2.473  0.00  0.00    +0.026 A 
ATOM     25  C   UNL     1      -0.898  -0.330   2.473  0.00  0.00    +0.048 A 
ATOM     26  C   UNL     1      -0.886   0.731   3.368  0.00  0.00    +0.026 A 
ATOM     27  C   UNL     1      -1.935   0.902   4.250  0.00  0.00    +0.025 A 
BRANCH  22  28
ATOM     28  N   UNL     1      -4.056   0.176   5.148  0.00  0.00    -0.330 N 
BRANCH  28  30
ATOM     29  C   UNL     1      -4.732   2.508   5.447  0.00  0.00    +0.024 C 
ATOM     30  C   UNL     1      -4.046   1.300   6.088  0.00  0.00    +0.102 C 
ENDBRANCH  28  30
BRANCH  28  31
ATOM     31  C   UNL     1      -5.175  -0.768   5.147  0.00  0.00    +0.102 C 
ATOM     32  C   UNL     1      -4.876  -1.915   6.116  0.00  0.00    +0.024 C 
ENDBRANCH  28  31
ENDBRANCH  22  28
ENDBRANCH  20  25
ENDBRANCH   1  20
TORSDOF 7
