REMARK  Name = ZINC59293623
REMARK  6 active torsions:
REMARK  status: ('A' for Active; 'I' for Inactive)
REMARK    1  A    between atoms: C_1  and  O_2
REMARK    2  A    between atoms: O_2  and  C_3
REMARK    3  A    between atoms: C_3  and  C_5
REMARK    4  A    between atoms: C_6  and  N_28
REMARK    5  A    between atoms: C_18  and  C_26
REMARK    6  A    between atoms: C_19  and  C_21
REMARK                            x       y       z     vdW  Elec       q    Type
REMARK                         _______ _______ _______ _____ _____    ______ ____
ROOT
ATOM      1  C   UNL     1      -1.242  -2.037   0.101  0.00  0.00    +0.085 C 
ATOM      2  C   UNL     1      -2.450  -2.666   0.109  0.00  0.00    +0.106 C 
ATOM      3  N   UNL     1      -2.520  -4.046   0.041  0.00  0.00    -0.216 N 
ATOM      4  C   UNL     1      -3.638  -4.622  -0.420  0.00  0.00    +0.258 C 
ATOM      5  O   UNL     1      -4.618  -3.914  -0.556  0.00  0.00    -0.269 OA
ATOM      6  C   UNL     1      -3.773  -6.035  -0.773  0.00  0.00    +0.051 A 
ATOM      7  C   UNL     1      -4.784  -6.447  -1.651  0.00  0.00    +0.014 A 
ATOM      8  C   UNL     1      -4.900  -7.775  -1.994  0.00  0.00    +0.001 A 
ATOM      9  C   UNL     1      -4.021  -8.718  -1.482  0.00  0.00    +0.001 A 
ATOM     10  C   UNL     1      -3.021  -8.334  -0.611  0.00  0.00    +0.016 A 
ATOM     11  C   UNL     1      -2.898  -7.003  -0.249  0.00  0.00    +0.026 A 
ATOM     12  S   UNL     1      -1.652  -6.484   0.890  0.00  0.00    -0.072 S 
ATOM     13  C   UNL     1      -1.427  -4.788   0.449  0.00  0.00    +0.095 C 
ATOM     14  C   UNL     1      -0.186  -4.233   0.481  0.00  0.00    +0.070 C 
ATOM     15  C   UNL     1       0.031  -2.830  -0.028  0.00  0.00    +0.108 C 
ENDROOT
BRANCH  15  16
ATOM     16  C   UNL     1       0.447  -2.877  -1.476  0.00  0.00    +0.003 A 
ATOM     17  C   UNL     1       1.593  -2.434  -2.050  0.00  0.00    +0.012 A 
ATOM     18  C   UNL     1       1.761  -2.584  -3.414  0.00  0.00    +0.008 A 
ATOM     19  C   UNL     1       0.775  -3.170  -4.137  0.00  0.00    +0.045 A 
ATOM     20  S   UNL     1      -0.437  -3.537  -2.879  0.00  0.00    -0.101 S 
ENDBRANCH  15  16
BRANCH   2  21
ATOM     21  N   UNL     1      -3.602  -1.927   0.184  0.00  0.00    -0.345 N 
ATOM     22  H   UNL     1      -3.679  -1.096  -0.309  0.00  0.00    +0.143 HD
ATOM     23  H   UNL     1      -4.342  -2.237   0.731  0.00  0.00    +0.143 HD
ENDBRANCH   2  21
BRANCH   1  24
ATOM     24  C   UNL     1      -1.184  -0.639   0.208  0.00  0.00    +0.339 C 
ATOM     25  O   UNL     1      -2.200  -0.002   0.422  0.00  0.00    -0.245 OA
BRANCH  24  27
ATOM     26  C   UNL     1      -0.016   1.423   0.194  0.00  0.00    +0.280 C 
ATOM     27  O   UNL     1      -0.001  -0.000   0.073  0.00  0.00    -0.465 OA
ENDBRANCH  24  27
ENDBRANCH   1  24
BRANCH  14  28
ATOM     28  C   UNL     1       0.918  -4.986   0.996  0.00  0.00    +0.098 C 
ATOM     29  N   UNL     1       1.794  -5.582   1.404  0.00  0.00    -0.191 NA
ENDBRANCH  14  28
TORSDOF 5
