REMARK  Name = ZINC08834838
REMARK  13 active torsions:
REMARK  status: ('A' for Active; 'I' for Inactive)
REMARK    1  A    between atoms: C_1  and  C_2
REMARK    2  A    between atoms: C_2  and  C_3
REMARK    3  A    between atoms: C_3  and  C_5
REMARK    4  A    between atoms: C_3  and  N_6
REMARK    5  A    between atoms: N_6  and  C_7
REMARK    6  A    between atoms: C_8  and  C_18
REMARK    7  A    between atoms: N_22  and  C_26
REMARK    8  A    between atoms: C_26  and  C_27
REMARK    9  A    between atoms: C_27  and  C_28
REMARK   10  A    between atoms: C_31  and  O_36
REMARK   11  A    between atoms: C_32  and  O_34
REMARK   12  A    between atoms: O_34  and  C_35
REMARK   13  A    between atoms: O_36  and  C_37
REMARK                            x       y       z     vdW  Elec       q    Type
REMARK                         _______ _______ _______ _____ _____    ______ ____
ROOT
ATOM      1  C   UNL     1      -0.013   1.076   0.008  0.00  0.00    +0.037 C 
ATOM      2  C   UNL     1      -1.233   1.685   0.044  0.00  0.00    +0.077 C 
ATOM      3  C   UNL     1      -2.531   1.108   0.146  0.00  0.00    +0.258 C 
ATOM      4  O   UNL     1      -2.676  -0.099   0.218  0.00  0.00    -0.269 OA
ATOM      5  N   UNL     1      -3.574   1.920   0.167  0.00  0.00    -0.255 N 
ATOM      6  C   UNL     1      -3.413   3.260   0.080  0.00  0.00    +0.121 C 
ATOM      7  S   UNL     1      -4.608   4.486   0.079  0.00  0.00    -0.027 S 
ATOM      8  S   UNL     1      -1.638   3.425  -0.033  0.00  0.00    -0.061 S 
ENDROOT
BRANCH   1  10
ATOM      9  C   UNL     1       1.266   2.629  -1.408  0.00  0.00    +0.134 A 
ATOM     10  C   UNL     1       1.152   1.839  -0.240  0.00  0.00    +0.081 A 
ATOM     11  C   UNL     1       2.235   1.827   0.671  0.00  0.00    +0.267 A 
ATOM     12  O   UNL     1       2.182   1.157   1.688  0.00  0.00    -0.267 OA
ATOM     13  N   UNL     1       3.328   2.570   0.395  0.00  0.00    -0.268 N 
ATOM     14  C   UNL     1       4.376   2.565   1.267  0.00  0.00    +0.096 A 
ATOM     15  C   UNL     1       5.485   3.297   1.021  0.00  0.00    +0.018 A 
ATOM     16  C   UNL     1       5.570   4.075  -0.141  0.00  0.00    +0.005 A 
ATOM     17  C   UNL     1       4.528   4.088  -1.020  0.00  0.00    +0.047 A 
ATOM     18  C   UNL     1       3.382   3.319  -0.747  0.00  0.00    +0.142 A 
ATOM     19  N   UNL     1       2.368   3.337  -1.613  0.00  0.00    -0.214 NA
BRANCH   9  20
ATOM     20  N   UNL     1       0.238   2.666  -2.324  0.00  0.00    -0.326 N 
ATOM     21  H   UNL     1      -0.568   2.148  -2.170  0.00  0.00    +0.148 HD
BRANCH  20  22
ATOM     22  C   UNL     1       0.361   3.486  -3.532  0.00  0.00    +0.068 C 
ATOM     23  C   UNL     1      -0.062   4.922  -3.219  0.00  0.00    +0.028 C 
BRANCH  22  25
ATOM     24  C   UNL     1      -0.038   1.527  -5.030  0.00  0.00    +0.005 C 
ATOM     25  C   UNL     1      -0.539   2.916  -4.630  0.00  0.00    +0.018 C 
ENDBRANCH  22  25
ENDBRANCH  20  22
ENDBRANCH   9  20
ENDBRANCH   1  10
BRANCH   5  26
ATOM     26  C   UNL     1      -4.923   1.360   0.278  0.00  0.00    +0.119 C 
BRANCH  26  27
ATOM     27  C   UNL     1      -5.476   1.082  -1.122  0.00  0.00    +0.054 C 
BRANCH  27  28
ATOM     28  C   UNL     1      -6.864   0.506  -1.008  0.00  0.00    -0.042 A 
ATOM     29  C   UNL     1      -7.961   1.347  -0.993  0.00  0.00    +0.007 A 
ATOM     30  C   UNL     1      -9.236   0.824  -0.888  0.00  0.00    +0.049 A 
ATOM     31  C   UNL     1      -9.417  -0.547  -0.799  0.00  0.00    +0.161 A 
ATOM     32  C   UNL     1      -8.313  -1.394  -0.814  0.00  0.00    +0.162 A 
ATOM     33  C   UNL     1      -7.038  -0.863  -0.924  0.00  0.00    +0.053 A 
BRANCH  32  34
ATOM     34  O   UNL     1      -8.486  -2.740  -0.727  0.00  0.00    -0.491 OA
ATOM     35  C   UNL     1      -7.307  -3.548  -0.749  0.00  0.00    +0.277 C 
ENDBRANCH  32  34
BRANCH  31  36
ATOM     36  O   UNL     1     -10.671  -1.064  -0.697  0.00  0.00    -0.491 OA
ATOM     37  C   UNL     1     -11.757  -0.135  -0.687  0.00  0.00    +0.277 C 
ENDBRANCH  31  36
ENDBRANCH  27  28
ENDBRANCH  26  27
ENDBRANCH   5  26
TORSDOF 9
