REMARK  Name = ZINC00687134
REMARK  4 active torsions:
REMARK  status: ('A' for Active; 'I' for Inactive)
REMARK    1  A    between atoms: C_1  and  C_2
REMARK    2  A    between atoms: C_2  and  C_26
REMARK    3  A    between atoms: C_20  and  C_24
REMARK    4  A    between atoms: C_21  and  N_23
REMARK                            x       y       z     vdW  Elec       q    Type
REMARK                         _______ _______ _______ _____ _____    ______ ____
ROOT
ATOM      1  C   UNL     1      -0.751   3.122  -1.243  0.00  0.00    +0.012 C 
ATOM      2  C   UNL     1      -0.751   1.592  -1.233  0.00  0.00    -0.021 C 
ATOM      3  C   UNL     1      -0.013   1.086   0.008  0.00  0.00    +0.081 C 
ATOM      4  C   UNL     1      -0.718   1.572   1.252  0.00  0.00    +0.116 C 
ATOM      5  C   UNL     1      -2.051   1.759   1.257  0.00  0.00    +0.058 C 
ATOM      6  C   UNL     1      -2.827   1.526   0.106  0.00  0.00    +0.165 C 
ATOM      7  O   UNL     1      -4.029   1.689   0.154  0.00  0.00    -0.292 OA
ATOM      8  C   UNL     1      -2.194   1.078  -1.183  0.00  0.00    +0.086 C 
ATOM      9  C   UNL     1      -2.750   2.221   2.510  0.00  0.00    +0.144 C 
ATOM     10  C   UNL     1      -3.163   3.655   2.390  0.00  0.00    -0.001 A 
ATOM     11  C   UNL     1      -2.424   4.806   2.221  0.00  0.00    +0.008 A 
ATOM     12  C   UNL     1      -3.128   6.003   2.146  0.00  0.00    +0.020 A 
ATOM     13  C   UNL     1      -4.506   6.033   2.236  0.00  0.00    +0.043 A 
ATOM     14  C   UNL     1      -5.256   4.878   2.406  0.00  0.00    +0.043 A 
ATOM     15  C   UNL     1      -4.560   3.671   2.483  0.00  0.00    +0.040 A 
ATOM     16  N   UNL     1      -5.046   2.386   2.647  0.00  0.00    -0.284 N 
ATOM     17  C   UNL     1      -4.055   1.470   2.674  0.00  0.00    +0.238 C 
ATOM     18  O   UNL     1      -4.186   0.271   2.805  0.00  0.00    -0.274 OA
ATOM     19 CL   UNL     1      -5.324   7.561   2.134  0.00  0.00    -0.083 Cl
ATOM     20  C   UNL     1      -1.879   2.009   3.713  0.00  0.00    +0.110 C 
ATOM     21  C   UNL     1      -0.544   1.817   3.562  0.00  0.00    +0.199 C 
ATOM     22  O   UNL     1       0.027   1.815   2.348  0.00  0.00    -0.445 OA
ATOM     23  C   UNL     1      -0.060   1.065  -2.492  0.00  0.00    +0.012 C 
ATOM     24  H   UNL     1      -5.987   2.169   2.733  0.00  0.00    +0.155 HD
ENDROOT
BRANCH  21  25
ATOM     25  N   UNL     1       0.237   1.619   4.673  0.00  0.00    -0.328 N 
ATOM     26  H   UNL     1      -0.166   1.618   5.555  0.00  0.00    +0.145 HD
ATOM     27  H   UNL     1       1.192   1.480   4.576  0.00  0.00    +0.145 HD
ENDBRANCH  21  25
BRANCH  20  28
ATOM     28  C   UNL     1      -2.457   2.011   5.023  0.00  0.00    +0.102 C 
ATOM     29  N   UNL     1      -2.915   2.013   6.062  0.00  0.00    -0.191 NA
ENDBRANCH  20  28
TORSDOF 2
