REMARK  Name = ZINC34788406
REMARK  8 active torsions:
REMARK  status: ('A' for Active; 'I' for Inactive)
REMARK    1  A    between atoms: C_1  and  C_2
REMARK    2  A    between atoms: C_2  and  C_3
REMARK    3  A    between atoms: C_3  and  C_4
REMARK    4  A    between atoms: C_13  and  C_16
REMARK    5  A    between atoms: C_13  and  C_17
REMARK    6  A    between atoms: N_18  and  C_19
REMARK    7  A    between atoms: C_19  and  N_21
REMARK    8  A    between atoms: C_22  and  C_24
REMARK                            x       y       z     vdW  Elec       q    Type
REMARK                         _______ _______ _______ _____ _____    ______ ____
ROOT
ATOM      1  C   UNL     1      -1.581  -2.045   0.005  0.00  0.00    +0.171 C 
ATOM      2  O   UNL     1      -1.403  -2.683  -1.171  0.00  0.00    -0.291 OA
ATOM      3  C   UNL     1      -1.464  -2.726   1.171  0.00  0.00    +0.074 C 
ATOM      4  C   UNL     1      -1.487  -2.044   2.394  0.00  0.00    +0.054 C 
ATOM      5  C   UNL     1      -1.464  -2.738   3.707  0.00  0.00    +0.088 C 
ATOM      6  C   UNL     1      -0.679  -4.018   3.752  0.00  0.00    -0.029 C 
ATOM      7  C   UNL     1      -0.553  -4.835   2.733  0.00  0.00    -0.005 C 
ATOM      8  S   UNL     1      -1.290  -4.477   1.164  0.00  0.00    -0.089 S 
ATOM      9  C   UNL     1       0.213  -6.137   2.839  0.00  0.00    +0.077 C 
ATOM     10  C   UNL     1       1.136  -6.122   4.054  0.00  0.00    +0.069 C 
ATOM     11  O   UNL     1       0.362  -5.685   5.179  0.00  0.00    -0.369 OA
ATOM     12  C   UNL     1      -0.007  -4.315   5.080  0.00  0.00    +0.192 C 
ATOM     13  C   UNL     1       1.678  -7.529   4.312  0.00  0.00    +0.041 C 
ATOM     14  C   UNL     1       2.296  -5.154   3.813  0.00  0.00    +0.041 C 
ATOM     15  N   UNL     1      -1.529  -0.726   2.380  0.00  0.00    -0.196 NA
ENDROOT
BRANCH  15  16
ATOM     16  C   UNL     1      -1.532  -0.042   3.534  0.00  0.00    +0.161 C 
ATOM     17  S   UNL     1      -2.799  -0.270   4.662  0.00  0.00    -0.016 S 
BRANCH  16  18
ATOM     18  N   UNL     1      -0.536   0.825   3.806  0.00  0.00    -0.262 N 
ATOM     19  C   UNL     1      -0.538   1.512   4.965  0.00  0.00    +0.250 C 
ATOM     20  O   UNL     1      -1.438   1.350   5.766  0.00  0.00    -0.270 OA
ATOM     21  H   UNL     1       0.183   0.954   3.167  0.00  0.00    +0.157 HD
BRANCH  19  22
ATOM     22  C   UNL     1       0.554   2.462   5.263  0.00  0.00    +0.037 A 
ATOM     23  C   UNL     1       1.586   2.655   4.343  0.00  0.00    +0.013 A 
ATOM     24  C   UNL     1       2.602   3.543   4.628  0.00  0.00    +0.001 A 
ATOM     25  C   UNL     1       2.600   4.242   5.822  0.00  0.00    +0.000 A 
ATOM     26  C   UNL     1       1.580   4.056   6.738  0.00  0.00    +0.001 A 
ATOM     27  C   UNL     1       0.554   3.175   6.463  0.00  0.00    +0.013 A 
ENDBRANCH  19  22
ENDBRANCH  16  18
ENDBRANCH  15  16
BRANCH   1  28
ATOM     28  C   UNL     1      -1.909  -0.574   0.021  0.00  0.00    +0.080 C 
BRANCH  28  30
ATOM     29  C   UNL     1      -0.951   1.729   0.171  0.00  0.00    +0.004 C 
ATOM     30  C   UNL     1      -0.618   0.235   0.155  0.00  0.00    +0.004 C 
ENDBRANCH  28  30
ENDBRANCH   1  28
TORSDOF 5
