REMARK  Name = ZINC40939826
REMARK  11 active torsions:
REMARK  status: ('A' for Active; 'I' for Inactive)
REMARK    1  A    between atoms: C_1  and  C_2
REMARK    2  A    between atoms: C_4  and  C_36
REMARK    3  A    between atoms: C_5  and  C_9
REMARK    4  A    between atoms: C_7  and  C_8
REMARK    5  A    between atoms: C_9  and  O_10
REMARK    6  A    between atoms: O_10  and  C_11
REMARK    7  A    between atoms: C_14  and  C_19
REMARK    8  A    between atoms: C_16  and  O_17
REMARK    9  A    between atoms: O_17  and  C_18
REMARK   10  A    between atoms: N_23  and  N_27
REMARK   11  A    between atoms: C_28  and  C_30
REMARK                            x       y       z     vdW  Elec       q    Type
REMARK                         _______ _______ _______ _____ _____    ______ ____
ROOT
ATOM      1  C   UNL     1      -0.107  -6.126   1.407  0.00  0.00    +0.162 A 
ATOM      2  C   UNL     1      -0.381  -6.998   0.362  0.00  0.00    +0.050 A 
ATOM      3  C   UNL     1      -0.299  -8.359   0.556  0.00  0.00    +0.012 A 
ATOM      4  C   UNL     1       0.062  -8.866   1.811  0.00  0.00    -0.020 A 
ATOM      5  C   UNL     1       0.338  -7.986   2.864  0.00  0.00    +0.057 A 
ATOM      6  C   UNL     1       0.258  -6.622   2.658  0.00  0.00    +0.162 A 
ENDROOT
BRANCH   4   7
ATOM      7  C   UNL     1       0.150 -10.317   2.022  0.00  0.00    +0.028 C 
ATOM      8  C   UNL     1       0.656 -11.114   1.047  0.00  0.00    +0.079 C 
ATOM      9  C   UNL     1       1.329 -10.747  -0.215  0.00  0.00    +0.275 C 
ATOM     10  O   UNL     1       1.509  -9.585  -0.529  0.00  0.00    -0.267 OA
ATOM     11  N   UNL     1       1.727 -11.745  -0.986  0.00  0.00    -0.169 N 
ATOM     12  C   UNL     1       1.526 -13.031  -0.634  0.00  0.00    +0.138 C 
ATOM     13  S   UNL     1       1.963 -14.448  -1.490  0.00  0.00    -0.026 S 
ATOM     14  S   UNL     1       0.699 -12.899   0.943  0.00  0.00    -0.059 S 
BRANCH  11  15
ATOM     15  N   UNL     1       2.371 -11.459  -2.197  0.00  0.00    -0.222 N 
ATOM     16  C   UNL     1       3.704 -11.629  -2.308  0.00  0.00    +0.261 C 
ATOM     17  O   UNL     1       4.346 -12.029  -1.357  0.00  0.00    -0.269 OA
ATOM     18  H   UNL     1       1.858 -11.140  -2.956  0.00  0.00    +0.174 HD
BRANCH  16  19
ATOM     19  C   UNL     1       4.384 -11.327  -3.586  0.00  0.00    +0.038 A 
ATOM     20  C   UNL     1       3.650 -10.861  -4.677  0.00  0.00    +0.013 A 
ATOM     21  C   UNL     1       4.290 -10.582  -5.867  0.00  0.00    +0.001 A 
ATOM     22  C   UNL     1       5.657 -10.762  -5.979  0.00  0.00    +0.000 A 
ATOM     23  C   UNL     1       6.391 -11.224  -4.900  0.00  0.00    +0.001 A 
ATOM     24  C   UNL     1       5.763 -11.501  -3.703  0.00  0.00    +0.013 A 
ENDBRANCH  16  19
ENDBRANCH  11  15
ENDBRANCH   4   7
BRANCH   6  25
ATOM     25  O   UNL     1       0.530  -5.764   3.677  0.00  0.00    -0.491 OA
ATOM     26  C   UNL     1       0.898  -6.342   4.931  0.00  0.00    +0.277 C 
ENDBRANCH   6  25
BRANCH   1  27
ATOM     27  O   UNL     1      -0.189  -4.784   1.209  0.00  0.00    -0.484 OA
BRANCH  27  28
ATOM     28  C   UNL     1      -0.569  -4.343  -0.096  0.00  0.00    +0.265 C 
BRANCH  28  33
ATOM     29  C   UNL     1      -0.717   1.432  -0.211  0.00  0.00    +0.044 C 
ATOM     30  C   UNL     1      -0.678  -0.074  -0.181  0.00  0.00    -0.047 A 
ATOM     31  C   UNL     1      -0.986  -0.796  -1.319  0.00  0.00    +0.007 A 
ATOM     32  C   UNL     1      -0.950  -2.178  -1.292  0.00  0.00    -0.044 A 
ATOM     33  C   UNL     1      -0.606  -2.837  -0.126  0.00  0.00    -0.007 A 
ATOM     34  C   UNL     1      -0.298  -2.115   1.011  0.00  0.00    +0.010 A 
ATOM     35  C   UNL     1      -0.329  -0.733   0.982  0.00  0.00    -0.047 A 
ATOM     36  C   UNL     1       0.012   0.054   2.221  0.00  0.00    +0.044 C 
ATOM     37  C   UNL     1      -1.286  -2.965  -2.532  0.00  0.00    +0.044 C 
ENDBRANCH  28  33
ENDBRANCH  27  28
ENDBRANCH   1  27
TORSDOF 7
