REMARK  Name = ZINC45696004
REMARK  11 active torsions:
REMARK  status: ('A' for Active; 'I' for Inactive)
REMARK    1  A    between atoms: C_1  and  C_2
REMARK    2  A    between atoms: C_2  and  C_3
REMARK    3  A    between atoms: C_6  and  C_9
REMARK    4  A    between atoms: C_9  and  C_11
REMARK    5  A    between atoms: C_9  and  N_14
REMARK    6  A    between atoms: C_11  and  C_12
REMARK    7  A    between atoms: C_11  and  C_13
REMARK    8  A    between atoms: N_17  and  C_18
REMARK    9  A    between atoms: C_23  and  S_24
REMARK   10  A    between atoms: S_24  and  C_25
REMARK   11  A    between atoms: C_25  and  C_26
REMARK                            x       y       z     vdW  Elec       q    Type
REMARK                         _______ _______ _______ _____ _____    ______ ____
ROOT
ATOM      1  N   UNL     1       3.706  -2.871  -4.375  0.00  0.00    -0.292 N 
ATOM      2  C   UNL     1       4.113  -3.788  -5.275  0.00  0.00    +0.304 C 
ATOM      3  O   UNL     1       3.638  -3.794  -6.394  0.00  0.00    -0.252 OA
ATOM      4  N   UNL     1       5.047  -4.698  -4.935  0.00  0.00    -0.268 N 
ATOM      5  H   UNL     1       4.086  -2.866  -3.482  0.00  0.00    +0.151 HD
ATOM      6  H   UNL     1       5.485  -4.644  -4.071  0.00  0.00    +0.156 HD
ENDROOT
BRANCH   4   7
ATOM      7  C   UNL     1       5.384  -5.724  -5.829  0.00  0.00    +0.048 A 
ATOM      8  C   UNL     1       4.475  -6.135  -6.791  0.00  0.00    +0.024 A 
ATOM      9  C   UNL     1       4.809  -7.147  -7.672  0.00  0.00    +0.002 A 
ATOM     10  C   UNL     1       6.051  -7.752  -7.597  0.00  0.00    +0.001 A 
ATOM     11  C   UNL     1       6.964  -7.349  -6.641  0.00  0.00    +0.016 A 
ATOM     12  C   UNL     1       6.639  -6.330  -5.757  0.00  0.00    +0.030 A 
BRANCH  12  13
ATOM     13  S   UNL     1       7.804  -5.808  -4.542  0.00  0.00    -0.114 S 
BRANCH  13  14
ATOM     14  C   UNL     1       9.249  -6.864  -4.838  0.00  0.00    +0.169 C 
BRANCH  14  15
ATOM     15  C   UNL     1      10.335  -6.517  -3.853  0.00  0.00    +0.221 C 
ATOM     16  O   UNL     1      10.152  -5.643  -3.032  0.00  0.00    -0.275 OA
ATOM     17  N   UNL     1      11.509  -7.178  -3.884  0.00  0.00    -0.329 N 
ATOM     18  H   UNL     1      11.656  -7.877  -4.541  0.00  0.00    +0.145 HD
ATOM     19  H   UNL     1      12.209  -6.954  -3.250  0.00  0.00    +0.145 HD
ENDBRANCH  14  15
ENDBRANCH  13  14
ENDBRANCH  12  13
ENDBRANCH   4   7
BRANCH   1  20
ATOM     20  C   UNL     1       2.691  -1.881  -4.744  0.00  0.00    +0.107 C 
BRANCH  20  24
ATOM     21  C   UNL     1       0.668  -0.537  -1.230  0.00  0.00    -0.048 A 
ATOM     22  C   UNL     1      -0.043  -0.762  -2.394  0.00  0.00    +0.004 A 
ATOM     23  C   UNL     1       0.612  -1.196  -3.531  0.00  0.00    +0.006 A 
ATOM     24  C   UNL     1       1.978  -1.407  -3.505  0.00  0.00    -0.027 A 
ATOM     25  C   UNL     1       2.689  -1.181  -2.341  0.00  0.00    +0.006 A 
ATOM     26  C   UNL     1       2.035  -0.743  -1.205  0.00  0.00    +0.004 A 
BRANCH  21  28
ATOM     27  C   UNL     1      -0.074   1.466   0.028  0.00  0.00    +0.009 C 
ATOM     28  C   UNL     1      -0.045  -0.063   0.009  0.00  0.00    +0.032 C 
ENDBRANCH  21  28
ENDBRANCH  20  24
BRANCH  20  29
ATOM     29  C   UNL     1       3.365  -0.693  -5.432  0.00  0.00    +0.008 C 
ATOM     30  C   UNL     1       4.090  -1.175  -6.691  0.00  0.00    +0.009 C 
ATOM     31  C   UNL     1       2.305   0.341  -5.818  0.00  0.00    +0.009 C 
ENDBRANCH  20  29
ENDBRANCH   1  20
TORSDOF 8
