REMARK  Name = ZINC36539084
REMARK  12 active torsions:
REMARK  status: ('A' for Active; 'I' for Inactive)
REMARK    1  A    between atoms: C_1  and  C_2
REMARK    2  A    between atoms: C_2  and  C_3
REMARK    3  A    between atoms: C_3  and  C_4
REMARK    4  A    between atoms: C_4  and  N_5
REMARK    5  A    between atoms: C_6  and  C_8
REMARK    6  A    between atoms: C_8  and  C_10
REMARK    7  A    between atoms: C_8  and  N_19
REMARK    8  A    between atoms: C_11  and  O_18
REMARK    9  A    between atoms: C_13  and  O_17
REMARK   10  A    between atoms: C_15  and  O_16
REMARK   11  A    between atoms: N_19  and  C_20
REMARK   12  A    between atoms: C_21  and  C_23
REMARK                            x       y       z     vdW  Elec       q    Type
REMARK                         _______ _______ _______ _____ _____    ______ ____
ROOT
ATOM      1  C   UNL     1       2.268  -4.374  -3.950  0.00  0.00    +0.199 C 
ENDROOT
BRANCH   1   2
ATOM      2  C   UNL     1       1.708  -3.798  -5.225  0.00  0.00    +0.065 A 
ATOM      3  C   UNL     1       0.640  -4.418  -5.856  0.00  0.00    +0.129 A 
ATOM      4  C   UNL     1       0.126  -3.888  -7.029  0.00  0.00    +0.091 A 
ATOM      5  C   UNL     1       0.679  -2.737  -7.572  0.00  0.00    +0.124 A 
ATOM      6  C   UNL     1       1.746  -2.117  -6.940  0.00  0.00    +0.091 A 
ATOM      7  C   UNL     1       2.258  -2.645  -5.764  0.00  0.00    +0.129 A 
BRANCH   7   8
ATOM      8  O   UNL     1       3.301  -2.034  -5.143  0.00  0.00    -0.506 OA
ATOM      9  H   UNL     1       4.169  -2.347  -5.433  0.00  0.00    +0.292 HD
ENDBRANCH   7   8
BRANCH   5  10
ATOM     10  O   UNL     1       0.175  -2.218  -8.722  0.00  0.00    -0.507 OA
ATOM     11  H   UNL     1      -0.535  -1.576  -8.586  0.00  0.00    +0.292 HD
ENDBRANCH   5  10
BRANCH   3  12
ATOM     12  O   UNL     1       0.098  -5.545  -5.325  0.00  0.00    -0.506 OA
ATOM     13  H   UNL     1      -0.674  -5.384  -4.765  0.00  0.00    +0.292 HD
ENDBRANCH   3  12
ENDBRANCH   1   2
BRANCH   1  15
ATOM     14  N   UNL     1       0.386  -3.578  -2.556  0.00  0.00    -0.313 N 
ATOM     15  C   UNL     1       1.146  -4.611  -2.971  0.00  0.00    +0.238 C 
ATOM     16  O   UNL     1       0.928  -5.729  -2.557  0.00  0.00    -0.273 OA
ATOM     17  H   UNL     1       0.560  -2.683  -2.887  0.00  0.00    +0.149 HD
BRANCH  14  18
ATOM     18  C   UNL     1      -0.705  -3.808  -1.604  0.00  0.00    +0.104 C 
BRANCH  18  19
ATOM     19  C   UNL     1      -1.404  -2.482  -1.301  0.00  0.00    +0.018 C 
BRANCH  19  21
ATOM     20  C   UNL     1      -3.243  -1.395  -0.004  0.00  0.00    +0.004 C 
ATOM     21  C   UNL     1      -2.543  -2.721  -0.307  0.00  0.00    -0.002 C 
ENDBRANCH  19  21
ENDBRANCH  18  19
ENDBRANCH  14  18
ENDBRANCH   1  15
BRANCH   1  22
ATOM     22  N   UNL     1       2.938  -5.644  -4.240  0.00  0.00    -0.285 N 
ATOM     23  C   UNL     1       2.157  -6.796  -4.698  0.00  0.00    +0.133 C 
ATOM     24  C   UNL     1       4.272  -5.753  -4.087  0.00  0.00    +0.247 C 
ATOM     25  O   UNL     1       4.906  -4.832  -3.607  0.00  0.00    -0.270 OA
BRANCH  24  26
ATOM     26  C   UNL     1       4.965  -6.990  -4.500  0.00  0.00    +0.037 A 
ATOM     27  C   UNL     1       4.523  -7.701  -5.618  0.00  0.00    +0.016 A 
ATOM     28  C   UNL     1       5.173  -8.854  -6.000  0.00  0.00    +0.039 A 
ATOM     29  C   UNL     1       6.265  -9.309  -5.276  0.00  0.00    +0.123 A 
ATOM     30  C   UNL     1       6.709  -8.607  -4.166  0.00  0.00    +0.039 A 
ATOM     31  C   UNL     1       6.069  -7.449  -3.779  0.00  0.00    +0.016 A 
ATOM     32  F   UNL     1       6.898 -10.441  -5.654  0.00  0.00    -0.205 F 
ENDBRANCH  24  26
ENDBRANCH   1  22
TORSDOF 10
