REMARK  Name = ZINC28053096
REMARK  3 active torsions:
REMARK  status: ('A' for Active; 'I' for Inactive)
REMARK    1  A    between atoms: C_1  and  C_2
REMARK    2  A    between atoms: C_10  and  C_18
REMARK    3  A    between atoms: C_24  and  C_27
REMARK                            x       y       z     vdW  Elec       q    Type
REMARK                         _______ _______ _______ _____ _____    ______ ____
ROOT
ATOM      1  C   UNL     1      -1.755   0.242   0.121  0.00  0.00    +0.044 C 
ATOM      2  C   UNL     1      -0.609   1.221   0.089  0.00  0.00    -0.050 A 
ATOM      3  C   UNL     1       0.693   0.755   0.039  0.00  0.00    +0.007 A 
ATOM      4  C   UNL     1       1.755   1.641   0.003  0.00  0.00    +0.046 A 
ATOM      5  C   UNL     1       1.515   3.002   0.023  0.00  0.00    +0.131 A 
ATOM      6  C   UNL     1       0.197   3.475   0.080  0.00  0.00    +0.038 A 
ATOM      7  C   UNL     1      -0.864   2.579   0.116  0.00  0.00    +0.016 A 
ATOM      8  C   UNL     1      -0.025   4.941   0.102  0.00  0.00    +0.050 C 
ATOM      9  C   UNL     1       0.980   5.741  -0.259  0.00  0.00    +0.025 C 
ATOM     10  C   UNL     1       0.862   7.245  -0.236  0.00  0.00    +0.174 C 
ATOM     11  N   UNL     1      -0.532   7.636  -0.086  0.00  0.00    -0.201 N 
ATOM     12  C   UNL     1      -1.524   6.779   0.272  0.00  0.00    +0.240 A 
ATOM     13  N   UNL     1      -2.631   7.464   0.318  0.00  0.00    -0.092 NA
ATOM     14  N   UNL     1      -2.407   8.695   0.008  0.00  0.00    -0.021 NA
ATOM     15  N   UNL     1      -1.152   8.874  -0.251  0.00  0.00    -0.042 NA
ATOM     16  N   UNL     1      -1.269   5.439   0.508  0.00  0.00    -0.282 N 
ATOM     17  C   UNL     1       2.287   5.127  -0.706  0.00  0.00    +0.234 C 
ATOM     18  O   UNL     1       2.529   3.903  -0.012  0.00  0.00    -0.479 OA
ATOM     19  H   UNL     1      -1.997   4.772   0.993  0.00  0.00    +0.155 HD
ENDROOT
BRANCH  10  20
ATOM     20  C   UNL     1       1.661   7.791   0.919  0.00  0.00    -0.019 A 
ATOM     21  C   UNL     1       1.352   7.415   2.213  0.00  0.00    +0.006 A 
ATOM     22  C   UNL     1       2.088   7.911   3.272  0.00  0.00    +0.000 A 
ATOM     23  C   UNL     1       3.127   8.792   3.039  0.00  0.00    +0.000 A 
ATOM     24  C   UNL     1       3.433   9.173   1.745  0.00  0.00    +0.000 A 
ATOM     25  C   UNL     1       2.701   8.672   0.686  0.00  0.00    +0.006 A 
ENDBRANCH  10  20
BRANCH  17  26
ATOM     26  C   UNL     1       2.229   4.856  -2.187  0.00  0.00    -0.003 A 
ATOM     27  C   UNL     1       1.523   3.767  -2.663  0.00  0.00    +0.007 A 
ATOM     28  C   UNL     1       1.466   3.520  -4.022  0.00  0.00    +0.000 A 
ATOM     29  C   UNL     1       2.123   4.357  -4.904  0.00  0.00    +0.000 A 
ATOM     30  C   UNL     1       2.833   5.444  -4.428  0.00  0.00    +0.000 A 
ATOM     31  C   UNL     1       2.886   5.692  -3.069  0.00  0.00    +0.007 A 
ENDBRANCH  17  26
TORSDOF 2
