REMARK  Name = ZINC44821582
REMARK  5 active torsions:
REMARK  status: ('A' for Active; 'I' for Inactive)
REMARK    1  A    between atoms: C_10  and  N_12
REMARK    2  A    between atoms: C_13  and  C_15
REMARK    3  A    between atoms: N_20  and  C_22
REMARK    4  A    between atoms: C_22  and  C_23
REMARK    5  A    between atoms: C_25  and  C_28
REMARK                            x       y       z     vdW  Elec       q    Type
REMARK                         _______ _______ _______ _____ _____    ______ ____
ROOT
ATOM      1  C   UNL     1       6.269   1.814   1.377  0.00  0.00    +0.058 C 
ATOM      2  C   UNL     1       7.363   0.848   1.839  0.00  0.00    +0.009 C 
ATOM      3  C   UNL     1       8.354   1.602   2.730  0.00  0.00    -0.018 C 
ATOM      4  C   UNL     1       8.922   2.794   1.956  0.00  0.00    -0.078 C 
ATOM      5  N   UNL     1       7.830   3.694   1.567  0.00  0.00    +0.386 N 
ATOM      6  C   UNL     1       6.913   2.999   0.655  0.00  0.00    -0.065 C 
ATOM      7  H   UNL     1       7.326   3.985   2.390  0.00  0.00    -0.081 HD
ENDROOT
BRANCH   1   9
ATOM      8  N   UNL     1       4.649   0.018   0.860  0.00  0.00    -0.308 N 
ATOM      9  C   UNL     1       5.330   1.101   0.438  0.00  0.00    +0.215 C 
ATOM     10  O   UNL     1       5.189   1.502  -0.698  0.00  0.00    -0.276 OA
ATOM     11  H   UNL     1       4.762  -0.302   1.769  0.00  0.00    +0.149 HD
BRANCH   8  21
ATOM     12  C   UNL     1      -0.017   1.375   0.010  0.00  0.00    +0.000 A 
ATOM     13  C   UNL     1       1.174   2.078   0.002  0.00  0.00    +0.000 A 
ATOM     14  C   UNL     1       2.372   1.395  -0.016  0.00  0.00    +0.006 A 
ATOM     15  C   UNL     1       2.393   0.006  -0.025  0.00  0.00    -0.024 A 
ATOM     16  C   UNL     1       1.208  -0.694  -0.013  0.00  0.00    -0.042 A 
ATOM     17  C   UNL     1       0.002  -0.004   0.002  0.00  0.00    +0.004 A 
ATOM     18  C   UNL     1       1.155  -2.199  -0.005  0.00  0.00    +0.035 C 
ATOM     19  C   UNL     1       2.493  -2.786  -0.452  0.00  0.00    +0.007 C 
ATOM     20  C   UNL     1       3.607  -2.135   0.376  0.00  0.00    +0.027 C 
ATOM     21  C   UNL     1       3.736  -0.675  -0.053  0.00  0.00    +0.103 C 
ENDBRANCH   8  21
ENDBRANCH   1   9
BRANCH   5  22
ATOM     22  C   UNL     1       8.387   4.874   0.893  0.00  0.00    +0.022 C 
BRANCH  22  23
ATOM     23  C   UNL     1       9.224   5.661   1.869  0.00  0.00    +0.211 A 
ATOM     24  N   UNL     1      10.499   5.501   2.079  0.00  0.00    -0.193 NA
ATOM     25  C   UNL     1      10.924   6.370   3.014  0.00  0.00    +0.202 A 
ATOM     26  N   UNL     1       9.905   7.095   3.406  0.00  0.00    -0.056 NA
ATOM     27  O   UNL     1       8.782   6.646   2.661  0.00  0.00    -0.340 OA
BRANCH  25  28
ATOM     28  C   UNL     1      12.314   6.488   3.518  0.00  0.00    +0.023 A 
ATOM     29  C   UNL     1      13.313   5.657   3.014  0.00  0.00    +0.013 A 
ATOM     30  C   UNL     1      14.605   5.771   3.486  0.00  0.00    +0.021 A 
ATOM     31  C   UNL     1      14.909   6.707   4.460  0.00  0.00    +0.041 A 
ATOM     32  C   UNL     1      13.920   7.534   4.964  0.00  0.00    +0.021 A 
ATOM     33  C   UNL     1      12.627   7.433   4.494  0.00  0.00    +0.013 A 
ATOM     34 CL   UNL     1      16.536   6.845   5.050  0.00  0.00    -0.084 Cl
ENDBRANCH  25  28
ENDBRANCH  22  23
ENDBRANCH   5  22
TORSDOF 5
