REMARK  Name = ZINC03446695
REMARK  14 active torsions:
REMARK  status: ('A' for Active; 'I' for Inactive)
REMARK    1  A    between atoms: C_1  and  C_2
REMARK    2  A    between atoms: C_2  and  C_3
REMARK    3  A    between atoms: C_3  and  C_5
REMARK    4  A    between atoms: C_3  and  C_6
REMARK    5  A    between atoms: C_11  and  N_12
REMARK    6  A    between atoms: C_13  and  C_15
REMARK    7  A    between atoms: C_15  and  C_17
REMARK    8  A    between atoms: C_15  and  S_18
REMARK    9  A    between atoms: S_18  and  C_19
REMARK   10  A    between atoms: C_22  and  C_33
REMARK   11  A    between atoms: N_23  and  C_24
REMARK   12  A    between atoms: C_26  and  C_32
REMARK   13  A    between atoms: C_29  and  O_30
REMARK   14  A    between atoms: O_30  and  C_31
REMARK                            x       y       z     vdW  Elec       q    Type
REMARK                         _______ _______ _______ _____ _____    ______ ____
ROOT
ATOM      1  C   UNL     1      -4.030  -0.895  -7.106  0.00  0.00    +0.197 A 
ATOM      2  N   UNL     1      -3.421   0.248  -7.322  0.00  0.00    -0.122 NA
ATOM      3  N   UNL     1      -4.064   0.935  -8.197  0.00  0.00    -0.127 NA
ATOM      4  C   UNL     1      -5.132   0.276  -8.590  0.00  0.00    +0.176 A 
ATOM      5  N   UNL     1      -5.144  -0.919  -7.903  0.00  0.00    -0.266 N 
ENDROOT
BRANCH   5   6
ATOM      6  C   UNL     1      -6.096  -1.945  -7.999  0.00  0.00    +0.092 A 
ATOM      7  C   UNL     1      -7.205  -1.945  -7.165  0.00  0.00    +0.033 A 
ATOM      8  C   UNL     1      -8.144  -2.953  -7.265  0.00  0.00    -0.048 A 
ATOM      9  C   UNL     1      -7.977  -3.970  -8.188  0.00  0.00    +0.007 A 
ATOM     10  C   UNL     1      -6.873  -3.979  -9.019  0.00  0.00    +0.048 A 
ATOM     11  C   UNL     1      -5.929  -2.969  -8.928  0.00  0.00    +0.144 A 
ATOM     12  C   UNL     1      -9.351  -2.949  -6.362  0.00  0.00    +0.044 C 
BRANCH  11  13
ATOM     13  O   UNL     1      -4.841  -2.977  -9.744  0.00  0.00    -0.493 OA
ATOM     14  C   UNL     1      -4.735  -4.058 -10.672  0.00  0.00    +0.277 C 
ENDBRANCH  11  13
ENDBRANCH   5   6
BRANCH   4  15
ATOM     15  C   UNL     1      -6.126   0.728  -9.577  0.00  0.00    +0.057 A 
ATOM     16  C   UNL     1      -6.335   1.988 -10.078  0.00  0.00    +0.019 A 
ATOM     17  C   UNL     1      -7.335   2.171 -11.007  0.00  0.00    +0.008 A 
ATOM     18  C   UNL     1      -8.087   1.107 -11.390  0.00  0.00    +0.046 A 
ATOM     19  S   UNL     1      -7.378  -0.219 -10.427  0.00  0.00    -0.094 S 
ENDBRANCH   4  15
BRANCH   1  20
ATOM     20  S   UNL     1      -3.515  -2.160  -5.993  0.00  0.00    -0.073 S 
BRANCH  20  21
ATOM     21  C   UNL     1      -2.007  -1.405  -5.335  0.00  0.00    +0.137 C 
ATOM     22  C   UNL     1      -0.978  -1.260  -6.458  0.00  0.00    +0.029 C 
BRANCH  21  24
ATOM     23  N   UNL     1      -0.662  -1.740  -3.286  0.00  0.00    -0.284 N 
ATOM     24  C   UNL     1      -1.442  -2.278  -4.245  0.00  0.00    +0.230 C 
ATOM     25  O   UNL     1      -1.688  -3.466  -4.231  0.00  0.00    -0.274 OA
ATOM     26  H   UNL     1      -0.512  -0.781  -3.265  0.00  0.00    +0.155 HD
BRANCH  23  32
ATOM     27  C   UNL     1       1.102  -2.165  -1.693  0.00  0.00    -0.023 A 
ATOM     28  C   UNL     1       1.681  -2.977  -0.737  0.00  0.00    +0.006 A 
ATOM     29  C   UNL     1       1.098  -4.187  -0.410  0.00  0.00    +0.000 A 
ATOM     30  C   UNL     1      -0.067  -4.588  -1.039  0.00  0.00    +0.002 A 
ATOM     31  C   UNL     1      -0.651  -3.781  -1.996  0.00  0.00    +0.023 A 
ATOM     32  C   UNL     1      -0.070  -2.562  -2.322  0.00  0.00    +0.037 A 
BRANCH  27  33
ATOM     33  C   UNL     1       1.738  -0.845  -2.048  0.00  0.00    +0.017 C 
ATOM     34  C   UNL     1       3.194  -1.075  -2.458  0.00  0.00    +0.012 C 
BRANCH  33  36
ATOM     35  C   UNL     1       2.223   1.465  -1.230  0.00  0.00    +0.004 C 
ATOM     36  C   UNL     1       1.691   0.086  -0.835  0.00  0.00    +0.004 C 
ENDBRANCH  33  36
ENDBRANCH  27  33
ENDBRANCH  23  32
ENDBRANCH  21  24
ENDBRANCH  20  21
ENDBRANCH   1  20
TORSDOF 9
