REMARK  Name = ZINC12981660
REMARK  6 active torsions:
REMARK  status: ('A' for Active; 'I' for Inactive)
REMARK    1  A    between atoms: C_4  and  C_7
REMARK    2  A    between atoms: C_9  and  C_12
REMARK    3  A    between atoms: C_12  and  O_13
REMARK    4  A    between atoms: O_13  and  C_14
REMARK    5  A    between atoms: C_14  and  C_16
REMARK    6  A    between atoms: C_21  and  N_22
REMARK                            x       y       z     vdW  Elec       q    Type
REMARK                         _______ _______ _______ _____ _____    ______ ____
ROOT
ATOM      1  O   UNL     1      -2.630  -4.872  -0.959  0.00  0.00    -0.455 OA
ENDROOT
BRANCH   1   2
ATOM      2  C   UNL     1      -3.090  -6.056  -0.508  0.00  0.00    +0.341 C 
ATOM      3  O   UNL     1      -4.278  -6.209  -0.303  0.00  0.00    -0.245 OA
BRANCH   2   4
ATOM      4  C   UNL     1      -2.152  -7.165  -0.264  0.00  0.00    +0.080 A 
ATOM      5  C   UNL     1      -0.774  -6.959  -0.378  0.00  0.00    +0.018 A 
ATOM      6  C   UNL     1       0.098  -7.999  -0.148  0.00  0.00    +0.021 A 
ATOM      7  C   UNL     1      -0.384  -9.254   0.197  0.00  0.00    +0.043 A 
ATOM      8  C   UNL     1      -1.742  -9.474   0.314  0.00  0.00    +0.043 A 
ATOM      9  C   UNL     1      -2.636  -8.434   0.091  0.00  0.00    +0.040 A 
ATOM     10 CL   UNL     1       0.728 -10.556   0.483  0.00  0.00    -0.083 Cl
BRANCH   9  11
ATOM     11  N   UNL     1      -4.002  -8.651   0.214  0.00  0.00    -0.357 N 
ATOM     12  H   UNL     1      -4.628  -8.073  -0.248  0.00  0.00    +0.142 HD
ATOM     13  H   UNL     1      -4.330  -9.380   0.763  0.00  0.00    +0.142 HD
ENDBRANCH   9  11
ENDBRANCH   2   4
ENDBRANCH   1   2
BRANCH   1  14
ATOM     14  C   UNL     1      -3.611  -3.825  -1.178  0.00  0.00    +0.291 C 
BRANCH  14  17
ATOM     15  C   UNL     1      -1.423  -1.136  -2.353  0.00  0.00    +0.168 A 
ATOM     16  C   UNL     1      -1.537  -2.428  -1.916  0.00  0.00    +0.079 A 
ATOM     17  C   UNL     1      -2.918  -2.584  -1.678  0.00  0.00    +0.121 A 
ATOM     18  N   UNL     1      -3.478  -1.447  -1.982  0.00  0.00    -0.079 NA
ATOM     19  O   UNL     1      -2.669  -0.631  -2.357  0.00  0.00    -0.354 OA
BRANCH  15  23
ATOM     20  C   UNL     1       2.147   0.870  -3.483  0.00  0.00    +0.000 A 
ATOM     21  C   UNL     1       0.935   1.534  -3.544  0.00  0.00    +0.001 A 
ATOM     22  C   UNL     1      -0.228   0.888  -3.179  0.00  0.00    +0.011 A 
ATOM     23  C   UNL     1      -0.180  -0.438  -2.746  0.00  0.00    +0.020 A 
ATOM     24  C   UNL     1       1.046  -1.102  -2.686  0.00  0.00    +0.011 A 
ATOM     25  C   UNL     1       2.201  -0.445  -3.054  0.00  0.00    +0.001 A 
ENDBRANCH  15  23
ENDBRANCH  14  17
ENDBRANCH   1  14
TORSDOF 6
