REMARK  Name = ZINC38779523
REMARK  7 active torsions:
REMARK  status: ('A' for Active; 'I' for Inactive)
REMARK    1  A    between atoms: C_1  and  C_2
REMARK    2  A    between atoms: C_2  and  C_3
REMARK    3  A    between atoms: C_2  and  C_4
REMARK    4  A    between atoms: C_2  and  C_5
REMARK    5  A    between atoms: C_8  and  C_11
REMARK    6  A    between atoms: N_15  and  N_16
REMARK    7  A    between atoms: N_16  and  C_17
REMARK                            x       y       z     vdW  Elec       q    Type
REMARK                         _______ _______ _______ _____ _____    ______ ____
ROOT
ATOM      1  C   UNL     1       2.707  -1.868  -4.752  0.00  0.00    +0.209 C 
ATOM      2  C   UNL     1       3.487  -3.151  -4.427  0.00  0.00    +0.107 C 
ATOM      3  C   UNL     1       4.199  -3.575  -5.699  0.00  0.00    +0.073 C 
ATOM      4  N   UNL     1       4.283  -4.821  -6.052  0.00  0.00    -0.188 NA
ATOM      5  C   UNL     1       4.792  -2.493  -6.516  0.00  0.00    +0.041 A 
ATOM      6  C   UNL     1       5.669  -2.787  -7.558  0.00  0.00    +0.033 A 
ATOM      7  C   UNL     1       6.206  -1.760  -8.309  0.00  0.00    +0.042 A 
ATOM      8  C   UNL     1       5.873  -0.445  -8.026  0.00  0.00    +0.023 A 
ATOM      9  C   UNL     1       5.006  -0.145  -6.993  0.00  0.00    +0.048 A 
ATOM     10  C   UNL     1       4.458  -1.163  -6.228  0.00  0.00    +0.130 A 
ATOM     11  O   UNL     1       3.614  -0.865  -5.208  0.00  0.00    -0.483 OA
ATOM     12 CL   UNL     1       7.300  -2.116  -9.609  0.00  0.00    -0.084 Cl
ENDROOT
BRANCH   1  16
ATOM     13  C   UNL     1       0.707  -0.490  -1.238  0.00  0.00    -0.042 A 
ATOM     14  C   UNL     1       0.036  -1.284  -2.148  0.00  0.00    +0.004 A 
ATOM     15  C   UNL     1       0.683  -1.730  -3.286  0.00  0.00    +0.007 A 
ATOM     16  C   UNL     1       2.001  -1.381  -3.513  0.00  0.00    -0.007 A 
ATOM     17  C   UNL     1       2.672  -0.586  -2.603  0.00  0.00    +0.007 A 
ATOM     18  C   UNL     1       2.024  -0.137  -1.467  0.00  0.00    +0.004 A 
BRANCH  13  20
ATOM     19  C   UNL     1      -0.019   1.526   0.010  0.00  0.00    +0.015 C 
ATOM     20  C   UNL     1       0.002  -0.004   0.002  0.00  0.00    -0.013 C 
ATOM     21  C   UNL     1       0.742  -0.511   1.242  0.00  0.00    +0.015 C 
ATOM     22  C   UNL     1      -1.433  -0.534   0.013  0.00  0.00    +0.015 C 
ENDBRANCH  13  20
ENDBRANCH   1  16
BRANCH   4  23
ATOM     23  N   UNL     1       3.708  -5.816  -5.251  0.00  0.00    -0.229 N 
ATOM     24  H   UNL     1       3.246  -5.574  -4.433  0.00  0.00    +0.172 HD
BRANCH  23  25
ATOM     25  C   UNL     1       3.803  -7.223  -5.649  0.00  0.00    +0.283 C 
ATOM     26  N   UNL     1       2.618  -7.608  -6.426  0.00  0.00    -0.347 N 
ATOM     27  C   UNL     1       2.019  -8.565  -5.777  0.00  0.00    +0.061 A 
ATOM     28  C   UNL     1       0.804  -9.346  -6.046  0.00  0.00    +0.027 A 
ATOM     29  C   UNL     1       0.417 -10.296  -5.172  0.00  0.00    +0.002 A 
ATOM     30  C   UNL     1       1.133 -10.581  -3.995  0.00  0.00    +0.002 A 
ATOM     31  C   UNL     1       2.259  -9.924  -3.653  0.00  0.00    +0.027 A 
ATOM     32  C   UNL     1       2.777  -8.866  -4.532  0.00  0.00    +0.061 A 
ATOM     33  N   UNL     1       3.815  -8.084  -4.459  0.00  0.00    -0.347 N 
ATOM     34  H   UNL     1       2.333  -7.220  -7.268  0.00  0.00    +0.163 HD
ATOM     35  H   UNL     1       4.476  -8.072  -3.749  0.00  0.00    +0.163 HD
ENDBRANCH  23  25
ENDBRANCH   4  23
TORSDOF 4
