REMARK  Name = ZINC05445211
REMARK  13 active torsions:
REMARK  status: ('A' for Active; 'I' for Inactive)
REMARK    1  A    between atoms: C_1  and  N_60
REMARK    2  A    between atoms: C_2  and  N_60
REMARK    3  A    between atoms: C_3  and  C_4
REMARK    4  A    between atoms: C_3  and  N_60
REMARK    5  A    between atoms: C_4  and  N_5
REMARK    6  A    between atoms: C_6  and  C_23
REMARK    7  A    between atoms: C_9  and  C_10
REMARK    8  A    between atoms: C_9  and  O_18
REMARK    9  A    between atoms: C_13  and  O_16
REMARK   10  A    between atoms: O_16  and  C_17
REMARK   11  A    between atoms: C_26  and  N_29
REMARK   12  A    between atoms: N_29  and  C_30
REMARK   13  A    between atoms: N_29  and  C_31
REMARK                            x       y       z     vdW  Elec       q    Type
REMARK                         _______ _______ _______ _____ _____    ______ ____
ROOT
ATOM      1  N   UNL     1       4.160   3.211   0.986  0.00  0.00    -0.285 N 
ATOM      2  C   UNL     1       3.795   2.158   0.033  0.00  0.00    +0.144 C 
ATOM      3  C   UNL     1       4.264   2.624  -1.326  0.00  0.00    +0.071 C 
ATOM      4  C   UNL     1       4.132   1.950  -2.526  0.00  0.00    +0.133 C 
ATOM      5  C   UNL     1       4.860   3.878  -1.125  0.00  0.00    +0.249 C 
ATOM      6  O   UNL     1       5.361   4.577  -1.988  0.00  0.00    -0.282 OA
ATOM      7  C   UNL     1       4.774   4.205   0.324  0.00  0.00    +0.288 C 
ATOM      8  O   UNL     1       5.198   5.222   0.833  0.00  0.00    -0.266 OA
ENDROOT
BRANCH   4   9
ATOM      9  C   UNL     1       4.511   2.609  -3.785  0.00  0.00    +0.017 A 
ATOM     10  C   UNL     1       4.011   3.881  -4.090  0.00  0.00    +0.015 A 
ATOM     11  C   UNL     1       4.373   4.495  -5.268  0.00  0.00    +0.046 A 
ATOM     12  C   UNL     1       5.225   3.851  -6.158  0.00  0.00    +0.120 A 
ATOM     13  C   UNL     1       5.721   2.585  -5.861  0.00  0.00    +0.046 A 
ATOM     14  C   UNL     1       5.369   1.965  -4.684  0.00  0.00    +0.015 A 
BRANCH  12  15
ATOM     15  O   UNL     1       5.574   4.458  -7.319  0.00  0.00    -0.495 OA
ATOM     16  C   UNL     1       5.030   5.757  -7.561  0.00  0.00    +0.277 C 
ENDBRANCH  12  15
ENDBRANCH   4   9
BRANCH   2  17
ATOM     17  C   UNL     1       2.301   1.965   0.025  0.00  0.00    -0.022 A 
ATOM     18  C   UNL     1       1.462   3.062   0.097  0.00  0.00    +0.007 A 
ATOM     19  C   UNL     1       0.092   2.888   0.090  0.00  0.00    +0.023 A 
ATOM     20  C   UNL     1      -0.444   1.609   0.010  0.00  0.00    +0.029 A 
ATOM     21  C   UNL     1       0.401   0.509  -0.062  0.00  0.00    +0.023 A 
ATOM     22  C   UNL     1       1.770   0.690  -0.055  0.00  0.00    +0.007 A 
BRANCH  20  23
ATOM     23  N   UNL     1      -1.829   1.430   0.003  0.00  0.00    -0.336 N 
ATOM     24  C   UNL     1      -2.717   2.576   0.209  0.00  0.00    +0.129 C 
ATOM     25  C   UNL     1      -2.393   0.095  -0.210  0.00  0.00    +0.129 C 
ENDBRANCH  20  23
ENDBRANCH   2  17
BRANCH   4  26
ATOM     26  O   UNL     1       3.655   0.687  -2.541  0.00  0.00    -0.506 OA
ATOM     27  H   UNL     1       3.626   0.354  -3.484  0.00  0.00    +0.292 HD
ENDBRANCH   4  26
BRANCH   1  28
ATOM     28  C   UNL     1       3.897   3.182   2.427  0.00  0.00    +0.090 C 
BRANCH  28  29
ATOM     29  C   UNL     1       5.080   2.532   3.147  0.00  0.00    -0.060 C 
BRANCH  29  32
ATOM     30  C   UNL     1       5.813   1.681   5.293  0.00  0.00    -0.097 C 
ATOM     31  C   UNL     1       4.774   3.863   5.147  0.00  0.00    -0.097 C 
ATOM     32  N   UNL     1       4.792   2.492   4.597  0.00  0.00    +0.377 N 
ATOM     33  H   UNL     1       3.870   2.063   4.741  0.00  0.00    -0.083 HD
ENDBRANCH  29  32
ENDBRANCH  28  29
ENDBRANCH   1  28
TORSDOF 8
