REMARK  Name = ZINC43630093
REMARK  8 active torsions:
REMARK  status: ('A' for Active; 'I' for Inactive)
REMARK    1  A    between atoms: C_4  and  C_7
REMARK    2  A    between atoms: C_7  and  O_8
REMARK    3  A    between atoms: O_8  and  C_9
REMARK    4  A    between atoms: C_12  and  C_15
REMARK    5  A    between atoms: C_15  and  N_16
REMARK    6  A    between atoms: N_28  and  C_29
REMARK    7  A    between atoms: C_29  and  C_30
REMARK    8  A    between atoms: C_34  and  C_36
REMARK                            x       y       z     vdW  Elec       q    Type
REMARK                         _______ _______ _______ _____ _____    ______ ____
ROOT
ATOM      1  N   UNL     1      10.141  -2.003   1.887  0.00  0.00    +0.383 N 
ATOM      2  C   UNL     1      10.046  -1.302   3.174  0.00  0.00    -0.077 C 
ATOM      3  C   UNL     1      11.258  -0.382   3.340  0.00  0.00    +0.004 C 
ATOM      4  C   UNL     1      12.540  -1.212   3.299  0.00  0.00    +0.076 C 
ATOM      5  C   UNL     1      12.591  -2.033   2.011  0.00  0.00    -0.007 C 
ATOM      6  C   UNL     1      11.320  -2.876   1.887  0.00  0.00    -0.073 C 
ATOM      7  C   UNL     1      13.803  -2.972   2.080  0.00  0.00    +0.013 C 
ATOM      8  C   UNL     1      13.548  -4.009   3.176  0.00  0.00    +0.096 C 
ATOM      9  C   UNL     1      13.097  -3.325   4.435  0.00  0.00    +0.216 C 
ATOM     10  O   UNL     1      13.163  -3.940   5.479  0.00  0.00    -0.276 OA
ATOM     11  N   UNL     1      12.617  -2.092   4.455  0.00  0.00    -0.294 N 
ATOM     12  H   UNL     1      10.222  -1.328   1.142  0.00  0.00    -0.081 HD
ENDROOT
BRANCH   1  13
ATOM     13  C   UNL     1       8.933  -2.814   1.682  0.00  0.00    -0.043 C 
BRANCH  13  17
ATOM     14  C   UNL     1       5.535  -0.245   1.335  0.00  0.00    +0.121 A 
ATOM     15  C   UNL     1       6.252  -0.607   0.203  0.00  0.00    +0.046 A 
ATOM     16  C   UNL     1       7.350  -1.437   0.318  0.00  0.00    +0.005 A 
ATOM     17  C   UNL     1       7.735  -1.908   1.560  0.00  0.00    -0.064 A 
ATOM     18  C   UNL     1       7.022  -1.549   2.689  0.00  0.00    +0.005 A 
ATOM     19  C   UNL     1       5.927  -0.714   2.580  0.00  0.00    +0.046 A 
BRANCH  14  20
ATOM     20  O   UNL     1       4.455   0.572   1.224  0.00  0.00    -0.487 OA
BRANCH  20  21
ATOM     21  C   UNL     1       4.109   1.016  -0.089  0.00  0.00    +0.264 C 
BRANCH  21  25
ATOM     22  C   UNL     1       0.668   3.538   0.119  0.00  0.00    +0.000 A 
ATOM     23  C   UNL     1       1.933   4.086   0.223  0.00  0.00    +0.000 A 
ATOM     24  C   UNL     1       3.047   3.269   0.156  0.00  0.00    +0.007 A 
ATOM     25  C   UNL     1       2.895   1.906  -0.015  0.00  0.00    -0.010 A 
ATOM     26  C   UNL     1       1.630   1.359  -0.118  0.00  0.00    +0.007 A 
ATOM     27  C   UNL     1       0.516   2.175  -0.053  0.00  0.00    +0.000 A 
ENDBRANCH  21  25
ENDBRANCH  20  21
ENDBRANCH  14  20
ENDBRANCH  13  17
ENDBRANCH   1  13
BRANCH  11  28
ATOM     28  C   UNL     1      12.152  -1.576   5.745  0.00  0.00    +0.143 C 
BRANCH  28  29
ATOM     29  C   UNL     1      13.262  -0.800   6.405  0.00  0.00    -0.030 A 
ATOM     30  C   UNL     1      14.162  -1.447   7.231  0.00  0.00    +0.005 A 
ATOM     31  C   UNL     1      15.181  -0.735   7.837  0.00  0.00    +0.001 A 
ATOM     32  C   UNL     1      15.299   0.625   7.615  0.00  0.00    +0.012 A 
ATOM     33  C   UNL     1      14.400   1.272   6.789  0.00  0.00    +0.055 A 
ATOM     34  C   UNL     1      13.384   0.558   6.180  0.00  0.00    +0.017 A 
BRANCH  33  35
ATOM     35  C   UNL     1      14.529   2.754   6.548  0.00  0.00    +0.417 C 
ATOM     36  F   UNL     1      15.625   3.248   7.263  0.00  0.00    -0.166 F 
ATOM     37  F   UNL     1      14.719   2.990   5.183  0.00  0.00    -0.166 F 
ATOM     38  F   UNL     1      13.364   3.399   6.976  0.00  0.00    -0.166 F 
ENDBRANCH  33  35
ENDBRANCH  28  29
ENDBRANCH  11  28
TORSDOF 8
