REMARK  Name = ZINC06409138
REMARK  13 active torsions:
REMARK  status: ('A' for Active; 'I' for Inactive)
REMARK    1  A    between atoms: C_1  and  C_2
REMARK    2  A    between atoms: C_9  and  C_14
REMARK    3  A    between atoms: C_14  and  C_16
REMARK    4  A    between atoms: C_14  and  N_67
REMARK    5  A    between atoms: N_20  and  C_21
REMARK    6  A    between atoms: C_21  and  C_22
REMARK    7  A    between atoms: C_22  and  O_23
REMARK    8  A    between atoms: O_23  and  C_24
REMARK    9  A    between atoms: C_25  and  C_26
REMARK   10  A    between atoms: C_25  and  N_67
REMARK   11  A    between atoms: C_26  and  C_27
REMARK   12  A    between atoms: C_33  and  C_34
REMARK   13  A    between atoms: C_33  and  N_67
REMARK                            x       y       z     vdW  Elec       q    Type
REMARK                         _______ _______ _______ _____ _____    ______ ____
ROOT
ATOM      1  C   UNL     1      -0.034   0.151  -0.122  0.00  0.00    +0.039 C 
ENDROOT
BRANCH   1  10
ATOM      2  C   UNL     1      -5.522  -4.554  -1.960  0.00  0.00    +0.044 C 
ATOM      3  C   UNL     1      -4.936  -3.511  -1.042  0.00  0.00    -0.050 A 
ATOM      4  C   UNL     1      -5.647  -3.104   0.079  0.00  0.00    +0.005 A 
ATOM      5  C   UNL     1      -5.132  -2.152   0.931  0.00  0.00    +0.026 A 
ATOM      6  C   UNL     1      -3.885  -1.593   0.668  0.00  0.00    +0.049 A 
ATOM      7  C   UNL     1      -3.167  -2.008  -0.468  0.00  0.00    -0.001 A 
ATOM      8  C   UNL     1      -3.711  -2.976  -1.320  0.00  0.00    +0.013 A 
ATOM      9  C   UNL     1      -1.856  -1.414  -0.736  0.00  0.00    +0.017 A 
ATOM     10  C   UNL     1      -1.380  -0.481   0.124  0.00  0.00    +0.011 A 
ATOM     11  C   UNL     1      -2.138  -0.103   1.254  0.00  0.00    +0.251 A 
ATOM     12  O   UNL     1      -1.689   0.734   2.017  0.00  0.00    -0.268 OA
ATOM     13  N   UNL     1      -3.345  -0.639   1.505  0.00  0.00    -0.322 N 
ATOM     14  H   UNL     1      -3.841  -0.354   2.288  0.00  0.00    +0.169 HD
ENDBRANCH   1  10
BRANCH   1  15
ATOM     15  C   UNL     1       0.945  -0.331   0.918  0.00  0.00    +0.143 A 
ATOM     16  N   UNL     1       1.002   0.046   2.172  0.00  0.00    -0.115 NA
ATOM     17  N   UNL     1       1.972  -0.590   2.734  0.00  0.00    -0.023 NA
ATOM     18  N   UNL     1       2.534  -1.363   1.871  0.00  0.00    -0.044 NA
ATOM     19  N   UNL     1       1.926  -1.235   0.740  0.00  0.00    -0.228 N 
BRANCH  19  20
ATOM     20  C   UNL     1       2.245  -1.939  -0.504  0.00  0.00    +0.175 C 
BRANCH  20  21
ATOM     21  C   UNL     1       3.266  -1.126  -1.302  0.00  0.00    +0.183 C 
BRANCH  21  22
ATOM     22  O   UNL     1       3.578  -1.813  -2.516  0.00  0.00    -0.381 OA
ATOM     23  C   UNL     1       4.528  -1.135  -3.340  0.00  0.00    +0.194 C 
ENDBRANCH  21  22
ENDBRANCH  20  21
ENDBRANCH  19  20
ENDBRANCH   1  15
BRANCH   1  24
ATOM     24  N   UNL     1      -0.172   1.618  -0.017  0.00  0.00    +0.392 N 
ATOM     25  H   UNL     1      -0.728   1.842   0.817  0.00  0.00    -0.080 HD
BRANCH  24  26
ATOM     26  C   UNL     1       1.161   2.243   0.113  0.00  0.00    -0.072 C 
BRANCH  26  27
ATOM     27  C   UNL     1       0.981   3.726   0.443  0.00  0.00    +0.016 C 
BRANCH  27  28
ATOM     28  C   UNL     1       2.333   4.373   0.600  0.00  0.00    -0.049 A 
ATOM     29  C   UNL     1       2.941   4.413   1.841  0.00  0.00    +0.003 A 
ATOM     30  C   UNL     1       4.183   5.003   1.984  0.00  0.00    +0.000 A 
ATOM     31  C   UNL     1       4.813   5.561   0.888  0.00  0.00    +0.000 A 
ATOM     32  C   UNL     1       4.203   5.526  -0.352  0.00  0.00    +0.000 A 
ATOM     33  C   UNL     1       2.963   4.932  -0.496  0.00  0.00    +0.003 A 
ENDBRANCH  27  28
ENDBRANCH  26  27
ENDBRANCH  24  26
BRANCH  24  34
ATOM     34  C   UNL     1      -0.864   2.148  -1.211  0.00  0.00    -0.034 C 
BRANCH  34  35
ATOM     35  C   UNL     1      -2.347   1.946  -1.037  0.00  0.00    -0.027 A 
ATOM     36  C   UNL     1      -3.235   2.694  -0.337  0.00  0.00    +0.009 A 
ATOM     37  C   UNL     1      -4.564   2.315  -0.318  0.00  0.00    +0.008 A 
ATOM     38  C   UNL     1      -4.941   1.206  -1.000  0.00  0.00    +0.045 A 
ATOM     39  S   UNL     1      -3.393   0.663  -1.706  0.00  0.00    -0.103 S 
ENDBRANCH  34  35
ENDBRANCH  24  34
ENDBRANCH   1  24
TORSDOF 11
