REMARK  Name = ZINC19927453
REMARK  7 active torsions:
REMARK  status: ('A' for Active; 'I' for Inactive)
REMARK    1  A    between atoms: C_4  and  C_7
REMARK    2  A    between atoms: C_8  and  C_18
REMARK    3  A    between atoms: N_20  and  N_21
REMARK    4  A    between atoms: C_22  and  C_23
REMARK    5  A    between atoms: C_27  and  O_29
REMARK    6  A    between atoms: O_29  and  C_30
REMARK    7  A    between atoms: C_30  and  C_31
REMARK                            x       y       z     vdW  Elec       q    Type
REMARK                         _______ _______ _______ _____ _____    ______ ____
ROOT
ATOM      1  C   UNL     1      -1.629   6.383   0.062  0.00  0.00    +0.284 C 
ATOM      2  O   UNL     1      -1.496   7.583  -0.098  0.00  0.00    -0.267 OA
ATOM      3  N   UNL     1      -2.857   5.861   0.250  0.00  0.00    -0.202 N 
ATOM      4  H   UNL     1      -2.987   4.771   0.313  0.00  0.00    +0.178 HD
ENDROOT
BRANCH   1   6
ATOM      5  C   UNL     1       0.225   5.015  -1.063  0.00  0.00    +0.125 A 
ATOM      6  C   UNL     1      -0.453   5.506   0.051  0.00  0.00    +0.160 A 
ATOM      7  N   UNL     1       0.216   4.993   1.136  0.00  0.00    -0.183 N 
ATOM      8  N   UNL     1       1.193   4.277   0.703  0.00  0.00    -0.058 NA
ATOM      9  N   UNL     1       1.226   4.262  -0.581  0.00  0.00    -0.128 NA
ATOM     10  C   UNL     1      -0.106   5.216   2.478  0.00  0.00    +0.241 A 
ATOM     11  C   UNL     1       0.539   4.582   3.631  0.00  0.00    +0.206 A 
ATOM     12  N   UNL     1      -0.021   5.039   4.717  0.00  0.00    -0.032 NA
ATOM     13  O   UNL     1      -1.029   5.957   4.332  0.00  0.00    -0.239 OA
ATOM     14  N   UNL     1      -1.033   6.020   2.917  0.00  0.00    -0.027 NA
ATOM     15  N   UNL     1       1.576   3.657   3.578  0.00  0.00    -0.337 N 
ATOM     16  H   UNL     1       1.990   3.241   4.508  0.00  0.00    +0.144 HD
ATOM     17  H   UNL     1       1.982   3.341   2.606  0.00  0.00    +0.144 HD
BRANCH   5  21
ATOM     18  C   UNL     1      -0.690   5.748  -5.149  0.00  0.00    +0.000 A 
ATOM     19  C   UNL     1       0.628   5.743  -4.728  0.00  0.00    +0.001 A 
ATOM     20  C   UNL     1       0.931   5.505  -3.403  0.00  0.00    +0.010 A 
ATOM     21  C   UNL     1      -0.094   5.271  -2.487  0.00  0.00    +0.004 A 
ATOM     22  C   UNL     1      -1.420   5.272  -2.918  0.00  0.00    +0.010 A 
ATOM     23  C   UNL     1      -1.711   5.516  -4.245  0.00  0.00    +0.001 A 
ENDBRANCH   5  21
ENDBRANCH   1   6
BRANCH   3  24
ATOM     24  N   UNL     1      -3.968   6.707   0.364  0.00  0.00    -0.187 NA
ATOM     25  C   UNL     1      -5.151   6.204   0.544  0.00  0.00    +0.138 C 
BRANCH  25  26
ATOM     26  C   UNL     1      -6.320   7.095   0.664  0.00  0.00    -0.002 A 
ATOM     27  C   UNL     1      -6.157   8.481   0.590  0.00  0.00    +0.010 A 
ATOM     28  C   UNL     1      -7.254   9.310   0.698  0.00  0.00    +0.004 A 
ATOM     29  C   UNL     1      -8.515   8.775   0.890  0.00  0.00    +0.046 A 
ATOM     30  C   UNL     1      -8.687   7.400   0.971  0.00  0.00    +0.122 A 
ATOM     31  C   UNL     1      -7.594   6.557   0.859  0.00  0.00    +0.055 A 
BRANCH  30  32
ATOM     32  O   UNL     1      -9.928   6.880   1.161  0.00  0.00    -0.487 OA
BRANCH  32  33
ATOM     33  C   UNL     1     -11.010   7.808   1.268  0.00  0.00    +0.264 C 
BRANCH  33  34
ATOM     34  C   UNL     1     -12.299   7.054   1.474  0.00  0.00    -0.010 A 
ATOM     35  C   UNL     1     -13.053   6.664   0.383  0.00  0.00    +0.010 A 
ATOM     36  C   UNL     1     -14.232   5.969   0.571  0.00  0.00    +0.039 A 
ATOM     37  C   UNL     1     -14.664   5.673   1.853  0.00  0.00    +0.123 A 
ATOM     38  C   UNL     1     -13.911   6.069   2.945  0.00  0.00    +0.039 A 
ATOM     39  C   UNL     1     -12.729   6.759   2.755  0.00  0.00    +0.010 A 
ATOM     40  F   UNL     1     -15.820   4.998   2.037  0.00  0.00    -0.205 F 
ENDBRANCH  33  34
ENDBRANCH  32  33
ENDBRANCH  30  32
ENDBRANCH  25  26
ENDBRANCH   3  24
TORSDOF 7
