REMARK  Name = ZINC63809625
REMARK  10 active torsions:
REMARK  status: ('A' for Active; 'I' for Inactive)
REMARK    1  A    between atoms: C_1  and  C_2
REMARK    2  A    between atoms: C_2  and  C_3
REMARK    3  A    between atoms: C_3  and  C_5
REMARK    4  A    between atoms: C_8  and  O_11
REMARK    5  A    between atoms: O_11  and  C_12
REMARK    6  A    between atoms: C_12  and  C_13
REMARK    7  A    between atoms: N_15  and  C_16
REMARK    8  A    between atoms: C_16  and  C_17
REMARK    9  A    between atoms: C_17  and  C_19
REMARK   10  A    between atoms: C_17  and  C_25
REMARK                            x       y       z     vdW  Elec       q    Type
REMARK                         _______ _______ _______ _____ _____    ______ ____
ROOT
ATOM      1  C   UNL     1       2.687  -9.929  -4.550  0.00  0.00    +0.116 C 
ENDROOT
BRANCH   1   4
ATOM      2  C   UNL     1       2.027  -7.869  -3.428  0.00  0.00    +0.251 C 
ATOM      3  O   UNL     1       1.531  -8.541  -2.549  0.00  0.00    -0.272 OA
ATOM      4  N   UNL     1       2.630  -8.467  -4.474  0.00  0.00    -0.312 N 
ATOM      5  H   UNL     1       3.027  -7.929  -5.178  0.00  0.00    +0.149 HD
BRANCH   2   6
ATOM      6  C   UNL     1       1.968  -6.365  -3.350  0.00  0.00    +0.324 C 
BRANCH   6   7
ATOM      7  O   UNL     1       1.284  -5.976  -2.158  0.00  0.00    -0.483 OA
BRANCH   7  11
ATOM      8  C   UNL     1       0.859  -1.931  -1.480  0.00  0.00    +0.018 A 
ATOM      9  C   UNL     1       0.344  -2.855  -0.562  0.00  0.00    +0.015 A 
ATOM     10  C   UNL     1       0.487  -4.199  -0.793  0.00  0.00    +0.046 A 
ATOM     11  C   UNL     1       1.144  -4.645  -1.935  0.00  0.00    +0.121 A 
ATOM     12  C   UNL     1       1.658  -3.731  -2.849  0.00  0.00    +0.046 A 
ATOM     13  C   UNL     1       1.514  -2.385  -2.631  0.00  0.00    +0.015 A 
BRANCH   8  14
ATOM     14  C   UNL     1       0.707  -0.490  -1.238  0.00  0.00    +0.163 C 
ATOM     15  O   UNL     1       1.150   0.309  -2.036  0.00  0.00    -0.292 OA
BRANCH  14  17
ATOM     16  C   UNL     1      -0.019   1.526   0.010  0.00  0.00    +0.012 C 
ATOM     17  C   UNL     1       0.002  -0.004   0.002  0.00  0.00    +0.076 C 
ENDBRANCH  14  17
ENDBRANCH   8  14
ENDBRANCH   7  11
ENDBRANCH   6   7
ENDBRANCH   2   6
ENDBRANCH   1   4
BRANCH   1  18
ATOM     18  C   UNL     1       3.420 -10.346  -5.826  0.00  0.00    +0.064 C 
BRANCH  18  19
ATOM     19  C   UNL     1       3.371 -11.845  -5.966  0.00  0.00    -0.033 C 
ATOM     20  C   UNL     1       2.831 -12.550  -6.987  0.00  0.00    -0.000 A 
ATOM     21  C   UNL     1       2.153 -12.146  -8.224  0.00  0.00    +0.010 A 
ATOM     22  C   UNL     1       1.711 -13.102  -9.072  0.00  0.00    +0.001 A 
ATOM     23  C   UNL     1       1.883 -14.466  -8.799  0.00  0.00    +0.002 A 
ATOM     24  C   UNL     1       2.497 -14.915  -7.684  0.00  0.00    +0.026 A 
ATOM     25  C   UNL     1       3.002 -13.996  -6.723  0.00  0.00    +0.043 A 
ATOM     26  N   UNL     1       3.623 -14.179  -5.582  0.00  0.00    -0.380 N 
ATOM     27  C   UNL     1       3.922 -12.867  -4.997  0.00  0.00    +0.145 C 
ATOM     28  H   UNL     1       3.850 -15.038  -5.193  0.00  0.00    +0.160 HD
ENDBRANCH  18  19
BRANCH  18  29
ATOM     29  C   UNL     1       4.856  -9.894  -5.751  0.00  0.00    -0.039 A 
ATOM     30  C   UNL     1       5.673 -10.356  -4.737  0.00  0.00    +0.004 A 
ATOM     31  C   UNL     1       6.990  -9.942  -4.668  0.00  0.00    +0.000 A 
ATOM     32  C   UNL     1       7.490  -9.067  -5.614  0.00  0.00    +0.000 A 
ATOM     33  C   UNL     1       6.673  -8.606  -6.629  0.00  0.00    +0.000 A 
ATOM     34  C   UNL     1       5.357  -9.023  -6.700  0.00  0.00    +0.004 A 
ENDBRANCH  18  29
ENDBRANCH   1  18
TORSDOF 9
