REMARK  Name = ZINC39703900
REMARK  14 active torsions:
REMARK  status: ('A' for Active; 'I' for Inactive)
REMARK    1  A    between atoms: C_1  and  C_2
REMARK    2  A    between atoms: C_2  and  C_3
REMARK    3  A    between atoms: C_4  and  C_32
REMARK    4  A    between atoms: C_6  and  N_15
REMARK    5  A    between atoms: C_8  and  C_10
REMARK    6  A    between atoms: C_10  and  O_12
REMARK    7  A    between atoms: O_12  and  C_13
REMARK    8  A    between atoms: C_13  and  C_14
REMARK    9  A    between atoms: C_16  and  C_18
REMARK   10  A    between atoms: C_18  and  S_19
REMARK   11  A    between atoms: S_19  and  C_20
REMARK   12  A    between atoms: C_24  and  C_27
REMARK   13  A    between atoms: C_27  and  C_28
REMARK   14  A    between atoms: C_28  and  C_29
REMARK                            x       y       z     vdW  Elec       q    Type
REMARK                         _______ _______ _______ _____ _____    ______ ____
ROOT
ATOM      1  N   UNL     1       2.488  -2.357  -0.343  0.00  0.00    -0.301 N 
ATOM      2  C   UNL     1       3.049  -2.602  -1.544  0.00  0.00    +0.224 C 
ATOM      3  O   UNL     1       4.096  -2.069  -1.844  0.00  0.00    -0.275 OA
ATOM      4  H   UNL     1       1.650  -2.783  -0.104  0.00  0.00    +0.150 HD
ENDROOT
BRANCH   1   8
ATOM      5  C   UNL     1       1.784  -1.285   2.700  0.00  0.00    -0.044 C 
ATOM      6  C   UNL     1       2.592  -2.208   3.184  0.00  0.00    -0.016 C 
ATOM      7  S   UNL     1       3.915  -2.368   1.998  0.00  0.00    -0.106 S 
ATOM      8  C   UNL     1       3.144  -1.449   0.600  0.00  0.00    +0.153 C 
ATOM      9  C   UNL     1       2.106  -0.621   1.400  0.00  0.00    +0.155 C 
ATOM     10  C   UNL     1       2.430  -2.971   4.473  0.00  0.00    +0.051 C 
BRANCH   5  12
ATOM     11  C   UNL     1      -0.648  -1.714   2.922  0.00  0.00    +0.008 C 
ATOM     12  C   UNL     1       0.536  -0.904   3.454  0.00  0.00    +0.029 C 
ENDBRANCH   5  12
BRANCH   9  13
ATOM     13  C   UNL     1       2.674   0.749   1.670  0.00  0.00    +0.317 C 
ATOM     14  O   UNL     1       3.353   0.940   2.651  0.00  0.00    -0.250 OA
BRANCH  13  15
ATOM     15  O   UNL     1       2.424   1.758   0.820  0.00  0.00    -0.464 OA
BRANCH  15  16
ATOM     16  C   UNL     1       2.994   3.029   1.137  0.00  0.00    +0.229 C 
ATOM     17  C   UNL     1       2.603   4.046   0.062  0.00  0.00    +0.048 C 
ENDBRANCH  15  16
ENDBRANCH  13  15
ENDBRANCH   9  13
ENDBRANCH   1   8
BRANCH   2  18
ATOM     18  C   UNL     1       2.374  -3.536  -2.515  0.00  0.00    +0.173 C 
BRANCH  18  19
ATOM     19  S   UNL     1       3.367  -3.657  -4.028  0.00  0.00    -0.075 S 
BRANCH  19  20
ATOM     20  C   UNL     1       2.457  -4.770  -5.047  0.00  0.00    +0.213 A 
ATOM     21  N   UNL     1       2.918  -5.081  -6.253  0.00  0.00    -0.180 NA
ATOM     22  C   UNL     1       2.228  -5.921  -7.017  0.00  0.00    +0.296 A 
ATOM     23  O   UNL     1       2.674  -6.258  -8.251  0.00  0.00    -0.264 OA
ATOM     24  C   UNL     1       1.034  -6.449  -6.523  0.00  0.00    +0.130 A 
ATOM     25  N   UNL     1       0.627  -6.103  -5.317  0.00  0.00    -0.146 NA
ATOM     26  N   UNL     1       1.321  -5.291  -4.599  0.00  0.00    -0.122 NA
BRANCH  24  27
ATOM     27  C   UNL     1       0.221  -7.405  -7.357  0.00  0.00    +0.074 C 
BRANCH  27  28
ATOM     28  C   UNL     1       0.671  -8.839  -7.075  0.00  0.00    +0.131 C 
BRANCH  28  29
ATOM     29  C   UNL     1      -0.142  -9.795  -7.910  0.00  0.00    +0.356 C 
ATOM     30  O   UNL     1      -1.003  -9.368  -8.661  0.00  0.00    -0.246 OA
ATOM     31  O   UNL     1       0.060 -10.995  -7.834  0.00  0.00    -0.246 OA
ENDBRANCH  28  29
ENDBRANCH  27  28
ENDBRANCH  24  27
ENDBRANCH  19  20
ENDBRANCH  18  19
ENDBRANCH   2  18
TORSDOF 11
