REMARK  Name = ZINC57596136
REMARK  16 active torsions:
REMARK  status: ('A' for Active; 'I' for Inactive)
REMARK    1  A    between atoms: C_1  and  C_2
REMARK    2  A    between atoms: C_2  and  C_3
REMARK    3  A    between atoms: C_3  and  C_4
REMARK    4  A    between atoms: C_4  and  N_5
REMARK    5  A    between atoms: C_6  and  C_25
REMARK    6  A    between atoms: C_9  and  S_10
REMARK    7  A    between atoms: S_10  and  C_11
REMARK    8  A    between atoms: C_11  and  C_12
REMARK    9  A    between atoms: C_15  and  C_17
REMARK   10  A    between atoms: C_20  and  C_23
REMARK   11  A    between atoms: C_23  and  C_24
REMARK   12  A    between atoms: C_25  and  C_27
REMARK   13  A    between atoms: C_25  and  N_29
REMARK   14  A    between atoms: C_27  and  C_28
REMARK   15  A    between atoms: N_29  and  C_30
REMARK   16  A    between atoms: N_29  and  C_31
REMARK                            x       y       z     vdW  Elec       q    Type
REMARK                         _______ _______ _______ _____ _____    ______ ____
ROOT
ATOM      1  N   UNL     1       1.509  -2.485   2.467  0.00  0.00    -0.307 N 
ATOM      2  C   UNL     1       2.851  -2.747   2.493  0.00  0.00    +0.120 A 
ATOM      3  N   UNL     1       3.134  -3.203   3.681  0.00  0.00    -0.135 NA
ATOM      4  N   UNL     1       2.070  -3.247   4.401  0.00  0.00    -0.123 NA
ATOM      5  C   UNL     1       1.044  -2.813   3.708  0.00  0.00    +0.192 A 
ENDROOT
BRANCH   1   6
ATOM      6  C   UNL     1       0.733  -1.956   1.342  0.00  0.00    +0.125 C 
BRANCH   6   7
ATOM      7  C   UNL     1       0.722  -0.427   1.404  0.00  0.00    +0.021 C 
BRANCH   7   9
ATOM      8  C   UNL     1      -0.099   1.653   0.291  0.00  0.00    +0.004 C 
ATOM      9  C   UNL     1      -0.088   0.125   0.229  0.00  0.00    -0.002 C 
ENDBRANCH   7   9
ENDBRANCH   6   7
ENDBRANCH   1   6
BRANCH   5  10
ATOM     10  S   UNL     1      -0.621  -2.681   4.271  0.00  0.00    -0.080 S 
BRANCH  10  11
ATOM     11  C   UNL     1      -0.552  -3.272   5.985  0.00  0.00    +0.133 C 
BRANCH  11  12
ATOM     12  C   UNL     1      -1.930  -3.211   6.593  0.00  0.00    +0.059 A 
ATOM     13  C   UNL     1      -2.342  -2.084   7.232  0.00  0.00    +0.071 A 
ATOM     14  S   UNL     1      -3.990  -2.571   7.728  0.00  0.00    -0.075 S 
ATOM     15  C   UNL     1      -3.949  -4.217   7.031  0.00  0.00    +0.109 A 
ATOM     16  N   UNL     1      -2.735  -4.243   6.501  0.00  0.00    -0.243 NA
BRANCH  15  17
ATOM     17  C   UNL     1      -4.992  -5.266   7.040  0.00  0.00    +0.007 A 
ATOM     18  C   UNL     1      -4.749  -6.500   6.435  0.00  0.00    +0.011 A 
ATOM     19  C   UNL     1      -5.726  -7.474   6.446  0.00  0.00    +0.004 A 
ATOM     20  C   UNL     1      -6.944  -7.230   7.055  0.00  0.00    -0.048 A 
ATOM     21  C   UNL     1      -7.191  -6.008   7.656  0.00  0.00    +0.004 A 
ATOM     22  C   UNL     1      -6.220  -5.028   7.658  0.00  0.00    +0.011 A 
BRANCH  20  23
ATOM     23  C   UNL     1      -8.007  -8.298   7.064  0.00  0.00    +0.032 C 
ATOM     24  C   UNL     1      -7.846  -9.168   8.312  0.00  0.00    +0.009 C 
ENDBRANCH  20  23
ENDBRANCH  15  17
ENDBRANCH  11  12
ENDBRANCH  10  11
ENDBRANCH   5  10
BRANCH   2  25
ATOM     25  C   UNL     1       3.823  -2.545   1.359  0.00  0.00    +0.000 C 
BRANCH  25  26
ATOM     26  N   UNL     1       5.039  -1.896   1.866  0.00  0.00    +0.383 N 
ATOM     27  C   UNL     1       5.954  -1.627   0.748  0.00  0.00    -0.096 C 
ATOM     28  C   UNL     1       4.682  -0.630   2.521  0.00  0.00    -0.096 C 
ATOM     29  H   UNL     1       5.492  -2.503   2.533  0.00  0.00    -0.082 HD
ENDBRANCH  25  26
BRANCH  25  30
ATOM     30  C   UNL     1       4.185  -3.902   0.751  0.00  0.00    -0.011 C 
ATOM     31  C   UNL     1       2.943  -4.519   0.105  0.00  0.00    +0.002 C 
ENDBRANCH  25  30
ENDBRANCH   2  25
TORSDOF 11
