REMARK  Name = ZINC01229546
REMARK  14 active torsions:
REMARK  status: ('A' for Active; 'I' for Inactive)
REMARK    1  A    between atoms: C_1  and  C_2
REMARK    2  A    between atoms: C_2  and  N_17
REMARK    3  A    between atoms: C_3  and  C_4
REMARK    4  A    between atoms: C_4  and  O_6
REMARK    5  A    between atoms: O_6  and  C_7
REMARK    6  A    between atoms: C_9  and  C_15
REMARK    7  A    between atoms: C_9  and  C_16
REMARK    8  A    between atoms: C_11  and  C_13
REMARK    9  A    between atoms: C_11  and  C_14
REMARK   10  A    between atoms: N_17  and  C_18
REMARK   11  A    between atoms: C_20  and  C_26
REMARK   12  A    between atoms: C_20  and  C_27
REMARK   13  A    between atoms: C_22  and  C_24
REMARK   14  A    between atoms: C_22  and  C_25
REMARK                            x       y       z     vdW  Elec       q    Type
REMARK                         _______ _______ _______ _____ _____    ______ ____
ROOT
ATOM      1  C   UNL     1      -1.597   3.952   0.109  0.00  0.00    +0.060 C 
ATOM      2  C   UNL     1      -1.388   3.293  -1.230  0.00  0.00    +0.008 C 
ATOM      3  C   UNL     1      -1.984   3.799  -2.332  0.00  0.00    +0.109 C 
ENDROOT
BRANCH   3   4
ATOM      4  C   UNL     1      -2.676   5.027  -2.259  0.00  0.00    +0.334 C 
ATOM      5  O   UNL     1      -2.642   5.685  -1.235  0.00  0.00    -0.246 OA
BRANCH   4   6
ATOM      6  O   UNL     1      -3.376   5.472  -3.324  0.00  0.00    -0.458 OA
BRANCH   6   7
ATOM      7  C   UNL     1      -4.053   6.726  -3.180  0.00  0.00    +0.174 C 
ATOM      8  C   UNL     1      -5.476   6.474  -2.681  0.00  0.00    +0.032 C 
ATOM      9  C   UNL     1      -6.231   7.794  -2.540  0.00  0.00    -0.070 C 
ATOM     10  N   UNL     1      -6.126   8.634  -3.715  0.00  0.00    +0.386 N 
ATOM     11  C   UNL     1      -4.867   8.747  -4.421  0.00  0.00    -0.070 C 
ATOM     12  C   UNL     1      -4.130   7.415  -4.542  0.00  0.00    +0.032 C 
ATOM     13  C   UNL     1      -3.951   9.782  -3.759  0.00  0.00    -0.010 C 
ATOM     14  C   UNL     1      -5.161   9.247  -5.854  0.00  0.00    -0.010 C 
ATOM     15  C   UNL     1      -5.744   8.531  -1.287  0.00  0.00    -0.010 C 
ATOM     16  C   UNL     1      -7.722   7.455  -2.321  0.00  0.00    -0.010 C 
ATOM     17  H   UNL     1      -6.828   8.278  -4.483  0.00  0.00    -0.084 HD
ATOM     18  H   UNL     1      -6.371   9.672  -3.446  0.00  0.00    -0.084 HD
ENDBRANCH   6   7
ENDBRANCH   4   6
ENDBRANCH   3   4
BRANCH   2  19
ATOM     19  N   UNL     1      -0.595   2.186  -1.331  0.00  0.00    -0.344 N 
ATOM     20  H   UNL     1      -0.442   1.706  -2.308  0.00  0.00    +0.146 HD
BRANCH  19  21
ATOM     21  C   UNL     1       0.054   1.637  -0.134  0.00  0.00    +0.067 C 
ATOM     22  C   UNL     1       1.388   2.350   0.088  0.00  0.00    +0.009 C 
ATOM     23  C   UNL     1       2.105   1.777   1.308  0.00  0.00    -0.072 C 
ATOM     24  N   UNL     1       2.160   0.330   1.309  0.00  0.00    +0.386 N 
ATOM     25  C   UNL     1       1.007  -0.441   0.887  0.00  0.00    -0.072 C 
ATOM     26  C   UNL     1       0.334   0.149  -0.352  0.00  0.00    +0.009 C 
ATOM     27  C   UNL     1      -0.018  -0.579   2.016  0.00  0.00    -0.010 C 
ATOM     28  C   UNL     1       1.485  -1.864   0.523  0.00  0.00    -0.010 C 
ATOM     29  C   UNL     1       1.443   2.307   2.586  0.00  0.00    -0.010 C 
ATOM     30  C   UNL     1       3.554   2.313   1.289  0.00  0.00    -0.010 C 
ATOM     31  H   UNL     1       2.964  -0.007   0.638  0.00  0.00    -0.084 HD
ATOM     32  H   UNL     1       2.360  -0.029   2.330  0.00  0.00    -0.084 HD
ENDBRANCH  19  21
ENDBRANCH   2  19
TORSDOF 5
