REMARK  Name = ZINC22328009
REMARK  10 active torsions:
REMARK  status: ('A' for Active; 'I' for Inactive)
REMARK    1  A    between atoms: C_1  and  C_2
REMARK    2  A    between atoms: C_5  and  N_8
REMARK    3  A    between atoms: N_8  and  C_9
REMARK    4  A    between atoms: N_8  and  S_27
REMARK    5  A    between atoms: C_9  and  C_10
REMARK    6  A    between atoms: N_12  and  C_13
REMARK    7  A    between atoms: C_16  and  C_25
REMARK    8  A    between atoms: C_16  and  C_26
REMARK    9  A    between atoms: C_21  and  C_24
REMARK   10  A    between atoms: S_27  and  C_30
REMARK                            x       y       z     vdW  Elec       q    Type
REMARK                         _______ _______ _______ _____ _____    ______ ____
ROOT
ATOM      1  C   UNL     1       4.866  -0.184  -1.189  0.00  0.00    +0.233 C 
ATOM      2  O   UNL     1       5.591  -0.282  -0.222  0.00  0.00    -0.274 OA
ATOM      3  N   UNL     1       3.560   0.106  -1.026  0.00  0.00    -0.307 N 
ATOM      4  H   UNL     1       2.903   0.196  -1.904  0.00  0.00    +0.149 HD
ENDROOT
BRANCH   3   5
ATOM      5  C   UNL     1       3.016   0.304   0.319  0.00  0.00    +0.111 C 
ATOM      6  C   UNL     1       1.515   0.001   0.311  0.00  0.00    +0.074 C 
ATOM      7  C   UNL     1       0.918   0.493   1.636  0.00  0.00    +0.107 C 
ATOM      8  O   UNL     1       1.047   1.914   1.688  0.00  0.00    -0.486 OA
ATOM      9  C   UNL     1       2.261   2.453   1.405  0.00  0.00    +0.126 A 
ATOM     10  C   UNL     1       3.243   1.731   0.748  0.00  0.00    +0.015 A 
ATOM     11  C   UNL     1       4.465   2.322   0.474  0.00  0.00    +0.012 A 
ATOM     12  C   UNL     1       4.709   3.628   0.855  0.00  0.00    -0.050 A 
ATOM     13  C   UNL     1       3.731   4.350   1.514  0.00  0.00    +0.007 A 
ATOM     14  C   UNL     1       2.511   3.766   1.789  0.00  0.00    +0.046 A 
ATOM     15  C   UNL     1       6.041   4.265   0.553  0.00  0.00    +0.044 C 
ATOM     16  C   UNL     1       1.675  -0.137   2.808  0.00  0.00    +0.055 C 
ATOM     17  C   UNL     1      -0.561   0.106   1.710  0.00  0.00    +0.055 C 
ENDBRANCH   3   5
BRANCH   1  18
ATOM     18  C   UNL     1       5.426  -0.388  -2.573  0.00  0.00    +0.226 C 
BRANCH  18  19
ATOM     19  N   UNL     1       6.856  -0.690  -2.482  0.00  0.00    -0.199 N 
BRANCH  19  24
ATOM     20  C   UNL     1       8.577  -6.020  -1.594  0.00  0.00    +0.044 C 
ATOM     21  C   UNL     1       8.120  -4.604  -1.830  0.00  0.00    -0.050 A 
ATOM     22  C   UNL     1       7.340  -4.305  -2.932  0.00  0.00    +0.005 A 
ATOM     23  C   UNL     1       6.919  -3.008  -3.151  0.00  0.00    +0.025 A 
ATOM     24  C   UNL     1       7.280  -2.003  -2.263  0.00  0.00    +0.051 A 
ATOM     25  C   UNL     1       8.068  -2.305  -1.160  0.00  0.00    +0.025 A 
ATOM     26  C   UNL     1       8.481  -3.605  -0.944  0.00  0.00    +0.005 A 
ENDBRANCH  19  24
BRANCH  19  27
ATOM     27  S   UNL     1       7.971   0.525  -2.638  0.00  0.00    +0.043 S 
ATOM     28  O   UNL     1       9.172  -0.132  -3.018  0.00  0.00    -0.155 OA
ATOM     29  O   UNL     1       7.358   1.471  -3.503  0.00  0.00    -0.155 OA
ATOM     30  C   UNL     1       8.140   1.220  -0.971  0.00  0.00    +0.218 C 
ENDBRANCH  19  27
ENDBRANCH  18  19
ENDBRANCH   1  18
TORSDOF 5
