REMARK  Name = ZINC01511228
REMARK  13 active torsions:
REMARK  status: ('A' for Active; 'I' for Inactive)
REMARK    1  A    between atoms: C_1  and  C_2
REMARK    2  A    between atoms: C_2  and  C_3
REMARK    3  A    between atoms: C_2  and  C_4
REMARK    4  A    between atoms: C_2  and  C_5
REMARK    5  A    between atoms: C_5  and  C_7
REMARK    6  A    between atoms: C_5  and  N_22
REMARK    7  A    between atoms: C_7  and  N_9
REMARK    8  A    between atoms: C_7  and  O_14
REMARK    9  A    between atoms: O_14  and  C_15
REMARK   10  A    between atoms: C_23  and  C_27
REMARK   11  A    between atoms: C_27  and  N_66
REMARK   12  A    between atoms: C_33  and  N_66
REMARK   13  A    between atoms: C_34  and  N_66
REMARK                            x       y       z     vdW  Elec       q    Type
REMARK                         _______ _______ _______ _____ _____    ______ ____
ROOT
ATOM      1  C   UNL     1      -0.980  -2.733   0.110  0.00  0.00    +0.179 C 
ENDROOT
BRANCH   1   2
ATOM      2  N   UNL     1      -0.545  -3.055   1.471  0.00  0.00    -0.221 N 
ATOM      3  C   UNL     1       0.651  -3.557   1.830  0.00  0.00    +0.142 A 
ATOM      4  N   UNL     1       0.625  -3.696   3.133  0.00  0.00    -0.115 NA
ATOM      5  N   UNL     1      -0.527  -3.300   3.553  0.00  0.00    -0.023 NA
ATOM      6  N   UNL     1      -1.235  -2.908   2.551  0.00  0.00    -0.043 NA
BRANCH   3   7
ATOM      7  C   UNL     1       1.798  -3.894   0.913  0.00  0.00    -0.003 C 
ATOM      8  C   UNL     1       2.284  -2.622   0.215  0.00  0.00    -0.004 C 
ATOM      9  C   UNL     1       3.448  -2.963  -0.717  0.00  0.00    -0.001 C 
ATOM     10  C   UNL     1       2.982  -3.974  -1.766  0.00  0.00    -0.000 C 
ATOM     11  C   UNL     1       2.496  -5.247  -1.069  0.00  0.00    -0.001 C 
ATOM     12  C   UNL     1       1.332  -4.904  -0.137  0.00  0.00    -0.004 C 
BRANCH   7  15
ATOM     13  C   UNL     1       3.422  -3.502   2.666  0.00  0.00    -0.095 C 
ATOM     14  C   UNL     1       2.473  -5.710   2.365  0.00  0.00    -0.095 C 
ATOM     15  N   UNL     1       2.919  -4.480   1.677  0.00  0.00    +0.385 N 
ATOM     16  H   UNL     1       3.678  -4.717   1.028  0.00  0.00    -0.081 HD
ENDBRANCH   7  15
ENDBRANCH   3   7
ENDBRANCH   1   2
BRANCH   1  18
ATOM     17  C   UNL     1      -2.545  -3.376  -1.729  0.00  0.00    +0.013 C 
ATOM     18  C   UNL     1      -2.193  -3.591  -0.255  0.00  0.00    -0.010 C 
ATOM     19  C   UNL     1      -1.863  -5.066  -0.020  0.00  0.00    +0.013 C 
ATOM     20  C   UNL     1      -3.383  -3.188   0.617  0.00  0.00    +0.013 C 
ENDBRANCH   1  18
BRANCH   1  21
ATOM     21  C   UNL     1      -1.360  -1.253   0.033  0.00  0.00    +0.319 C 
BRANCH  21  22
ATOM     22  N   UNL     1      -0.166  -0.430   0.243  0.00  0.00    -0.211 N 
ATOM     23  C   UNL     1       0.349   0.474  -0.609  0.00  0.00    +0.223 A 
ATOM     24  N   UNL     1       1.413   0.994  -0.054  0.00  0.00    -0.223 NA
ATOM     25  C   UNL     1       1.609   0.450   1.147  0.00  0.00    +0.245 A 
ATOM     26  N   UNL     1       0.664  -0.424   1.375  0.00  0.00    -0.155 NA
ENDBRANCH  21  22
BRANCH  21  27
ATOM     27  O   UNL     1      -2.326  -0.957   1.044  0.00  0.00    -0.465 OA
BRANCH  27  28
ATOM     28  C   UNL     1      -3.134   0.116   0.831  0.00  0.00    +0.124 A 
ATOM     29  C   UNL     1      -4.162   0.398   1.718  0.00  0.00    +0.047 A 
ATOM     30  C   UNL     1      -4.979   1.491   1.502  0.00  0.00    +0.023 A 
ATOM     31  C   UNL     1      -4.778   2.298   0.396  0.00  0.00    +0.041 A 
ATOM     32  C   UNL     1      -3.756   2.015  -0.493  0.00  0.00    +0.023 A 
ATOM     33  C   UNL     1      -2.934   0.926  -0.277  0.00  0.00    +0.047 A 
ATOM     34 CL   UNL     1      -5.809   3.668   0.124  0.00  0.00    -0.084 Cl
ENDBRANCH  27  28
ENDBRANCH  21  27
ENDBRANCH   1  21
TORSDOF 8
