REMARK  Name = ZINC03671592
REMARK  3 active torsions:
REMARK  status: ('A' for Active; 'I' for Inactive)
REMARK    1  A    between atoms: C_6  and  O_7
REMARK    2  A    between atoms: O_7  and  C_8
REMARK    3  A    between atoms: C_19  and  C_22
REMARK                            x       y       z     vdW  Elec       q    Type
REMARK                         _______ _______ _______ _____ _____    ______ ____
ROOT
ATOM      1  C   UNL     1       2.258   2.588   0.207  0.00  0.00    +0.048 A 
ATOM      2  C   UNL     1       3.258   1.637   0.148  0.00  0.00    +0.027 A 
ATOM      3  C   UNL     1       2.934   0.289   0.086  0.00  0.00    +0.032 A 
ATOM      4  C   UNL     1       1.609  -0.118   0.080  0.00  0.00    -0.016 A 
ATOM      5  C   UNL     1       0.609   0.843   0.141  0.00  0.00    +0.052 A 
ATOM      6  C   UNL     1       0.930   2.188   0.204  0.00  0.00    +0.130 A 
ATOM      7  C   UNL     1       1.214  -1.559   0.007  0.00  0.00    +0.049 C 
ATOM      8  C   UNL     1       0.732  -2.070   1.344  0.00  0.00    -0.023 C 
ATOM      9  C   UNL     1       1.085  -3.307   1.523  0.00  0.00    -0.030 C 
ATOM     10  C   UNL     1       1.885  -3.803   0.334  0.00  0.00    +0.033 C 
ATOM     11  C   UNL     1       2.395  -2.490  -0.330  0.00  0.00    +0.029 C 
ATOM     12  C   UNL     1       3.650  -2.035   0.422  0.00  0.00    +0.106 C 
ATOM     13  N   UNL     1       3.960  -0.655   0.035  0.00  0.00    -0.336 N 
ATOM     14  H   UNL     1       4.857  -0.405  -0.238  0.00  0.00    +0.147 HD
ENDROOT
BRANCH  12  15
ATOM     15  C   UNL     1       3.398  -2.099   1.907  0.00  0.00    -0.009 A 
ATOM     16  C   UNL     1       2.801  -1.033   2.553  0.00  0.00    +0.008 A 
ATOM     17  C   UNL     1       2.570  -1.091   3.914  0.00  0.00    +0.020 A 
ATOM     18  C   UNL     1       2.937  -2.216   4.631  0.00  0.00    +0.042 A 
ATOM     19  C   UNL     1       3.535  -3.283   3.985  0.00  0.00    +0.040 A 
ATOM     20  C   UNL     1       3.761  -3.227   2.621  0.00  0.00    +0.047 A 
ATOM     21 CL   UNL     1       4.505  -4.568   1.808  0.00  0.00    -0.083 Cl
ATOM     22 CL   UNL     1       2.647  -2.289   6.341  0.00  0.00    -0.083 Cl
ENDBRANCH  12  15
BRANCH   6  23
ATOM     23  O   UNL     1      -0.059   3.119   0.259  0.00  0.00    -0.406 OA
BRANCH  23  24
ATOM     24  C   UNL     1       0.342   4.489   0.323  0.00  0.00    +0.575 C 
ATOM     25  F   UNL     1       1.096   4.808  -0.812  0.00  0.00    -0.133 F 
ATOM     26  F   UNL     1      -0.792   5.306   0.373  0.00  0.00    -0.133 F 
ATOM     27  F   UNL     1       1.116   4.695   1.470  0.00  0.00    -0.133 F 
ENDBRANCH  23  24
ENDBRANCH   6  23
TORSDOF 3
