REMARK  Name = ZINC16533883
REMARK  12 active torsions:
REMARK  status: ('A' for Active; 'I' for Inactive)
REMARK    1  A    between atoms: C_1  and  C_2
REMARK    2  A    between atoms: C_2  and  C_3
REMARK    3  A    between atoms: C_3  and  N_4
REMARK    4  A    between atoms: N_4  and  C_5
REMARK    5  A    between atoms: C_5  and  C_6
REMARK    6  A    between atoms: N_10  and  C_11
REMARK    7  A    between atoms: C_11  and  C_12
REMARK    8  A    between atoms: C_15  and  C_17
REMARK    9  A    between atoms: N_19  and  C_20
REMARK   10  A    between atoms: C_25  and  C_26
REMARK   11  A    between atoms: C_25  and  N_81
REMARK   12  A    between atoms: C_32  and  C_34
REMARK                            x       y       z     vdW  Elec       q    Type
REMARK                         _______ _______ _______ _____ _____    ______ ____
ROOT
ATOM      1  C   UNL     1       0.132   4.062  -1.397  0.00  0.00    +0.126 A 
ATOM      2  C   UNL     1      -1.212   4.204  -1.394  0.00  0.00    +0.047 A 
ATOM      3  C   UNL     1      -1.747   3.086  -2.052  0.00  0.00    +0.055 A 
ATOM      4  C   UNL     1      -0.690   2.304  -2.420  0.00  0.00    +0.190 A 
ATOM      5  O   UNL     1       0.443   2.916  -2.017  0.00  0.00    -0.453 OA
ENDROOT
BRANCH   4   6
ATOM      6  C   UNL     1      -0.771   1.026  -3.135  0.00  0.00    +0.280 C 
ATOM      7  O   UNL     1      -1.857   0.528  -3.371  0.00  0.00    -0.267 OA
ATOM      8  N   UNL     1       0.356   0.402  -3.530  0.00  0.00    -0.306 N 
ATOM      9  H   UNL     1       1.222   0.760  -3.279  0.00  0.00    +0.149 HD
BRANCH   8  10
ATOM     10  C   UNL     1       0.274  -0.817  -4.338  0.00  0.00    +0.070 C 
ATOM     11  C   UNL     1       0.058  -2.025  -3.422  0.00  0.00    +0.004 C 
ATOM     12  C   UNL     1       0.033  -3.301  -4.266  0.00  0.00    -0.077 C 
ATOM     13  C   UNL     1       1.511  -2.310  -5.911  0.00  0.00    -0.077 C 
ATOM     14  C   UNL     1       1.579  -1.004  -5.117  0.00  0.00    +0.004 C 
ATOM     15  N   UNL     1       1.326  -3.435  -4.971  0.00  0.00    +0.382 N 
ATOM     16  H   UNL     1       2.085  -3.419  -4.279  0.00  0.00    -0.081 HD
BRANCH  15  17
ATOM     17  C   UNL     1       1.371  -4.718  -5.703  0.00  0.00    -0.043 C 
BRANCH  17  18
ATOM     18  C   UNL     1       1.401  -5.846  -4.704  0.00  0.00    -0.064 A 
ATOM     19  C   UNL     1       2.611  -6.316  -4.229  0.00  0.00    +0.002 A 
ATOM     20  C   UNL     1       2.638  -7.348  -3.308  0.00  0.00    +0.000 A 
ATOM     21  C   UNL     1       1.456  -7.916  -2.872  0.00  0.00    +0.000 A 
ATOM     22  C   UNL     1       0.247  -7.449  -3.351  0.00  0.00    +0.000 A 
ATOM     23  C   UNL     1       0.219  -6.414  -4.267  0.00  0.00    +0.002 A 
ENDBRANCH  17  18
ENDBRANCH  15  17
ENDBRANCH   8  10
ENDBRANCH   4   6
BRANCH   1  24
ATOM     24  C   UNL     1       1.119   5.034  -0.803  0.00  0.00    +0.195 C 
BRANCH  24  29
ATOM     25  C   UNL     1       2.018   5.490   1.503  0.00  0.00    +0.036 A 
ATOM     26  C   UNL     1       1.937   4.907   2.716  0.00  0.00    +0.024 A 
ATOM     27  C   UNL     1       1.132   3.760   2.580  0.00  0.00    +0.019 A 
ATOM     28  C   UNL     1       0.745   3.688   1.290  0.00  0.00    +0.086 A 
ATOM     29  N   UNL     1       1.291   4.745   0.623  0.00  0.00    -0.342 N 
BRANCH  25  30
ATOM     30  C   UNL     1       2.779   6.749   1.176  0.00  0.00    +0.161 C 
BRANCH  30  31
ATOM     31  N   UNL     1       4.100   6.397   0.648  0.00  0.00    -0.296 N 
ATOM     32  C   UNL     1       4.299   6.337  -0.684  0.00  0.00    +0.219 C 
ATOM     33  O   UNL     1       3.413   6.665  -1.445  0.00  0.00    -0.275 OA
BRANCH  32  34
ATOM     34  C   UNL     1       5.621   5.861  -1.227  0.00  0.00    +0.075 C 
ATOM     35  C   UNL     1       6.613   7.039  -1.310  0.00  0.00    +0.013 C 
ATOM     36  C   UNL     1       7.414   6.772  -2.608  0.00  0.00    +0.001 C 
ATOM     37  C   UNL     1       6.333   6.213  -3.567  0.00  0.00    +0.001 C 
ATOM     38  C   UNL     1       5.443   5.335  -2.663  0.00  0.00    +0.013 C 
ENDBRANCH  32  34
BRANCH  31  39
ATOM     39  C   UNL     1       5.204   6.111   1.567  0.00  0.00    +0.108 C 
BRANCH  39  41
ATOM     40  C   UNL     1       6.351   4.324   2.884  0.00  0.00    +0.005 C 
ATOM     41  C   UNL     1       5.198   4.623   1.924  0.00  0.00    +0.016 C 
ENDBRANCH  39  41
ENDBRANCH  31  39
ENDBRANCH  30  31
ENDBRANCH  25  30
ENDBRANCH  24  29
ENDBRANCH   1  24
TORSDOF 11
