REMARK  Name = ZINC21989434
REMARK  7 active torsions:
REMARK  status: ('A' for Active; 'I' for Inactive)
REMARK    1  A    between atoms: C_1  and  C_2
REMARK    2  A    between atoms: C_2  and  C_4
REMARK    3  A    between atoms: C_4  and  C_27
REMARK    4  A    between atoms: C_9  and  C_26
REMARK    5  A    between atoms: C_24  and  C_25
REMARK    6  A    between atoms: C_27  and  C_29
REMARK    7  A    between atoms: C_29  and  O_30
REMARK                            x       y       z     vdW  Elec       q    Type
REMARK                         _______ _______ _______ _____ _____    ______ ____
ROOT
ATOM      1  C   UNL     1      -1.148   2.129   0.256  0.00  0.00    +0.094 C 
ATOM      2  C   UNL     1      -0.988   2.911   1.586  0.00  0.00    +0.023 C 
ATOM      3  C   UNL     1      -2.159   2.470   2.504  0.00  0.00    +0.006 C 
ATOM      4  C   UNL     1      -2.592   1.131   1.889  0.00  0.00    -0.000 C 
ATOM      5  C   UNL     1      -2.506   1.431   0.375  0.00  0.00    -0.010 C 
ATOM      6  C   UNL     1      -2.701   0.149  -0.393  0.00  0.00    +0.008 C 
ATOM      7  C   UNL     1      -4.018  -0.526  -0.011  0.00  0.00    +0.005 C 
ATOM      8  C   UNL     1      -4.309  -0.621   1.480  0.00  0.00    +0.002 C 
ATOM      9  C   UNL     1      -3.982   0.662   2.228  0.00  0.00    -0.003 C 
ATOM     10  C   UNL     1      -4.185   0.532   3.735  0.00  0.00    +0.008 C 
ATOM     11  C   UNL     1      -3.318  -0.603   4.280  0.00  0.00    +0.032 C 
ATOM     12  C   UNL     1      -3.761  -1.876   3.582  0.00  0.00    -0.060 C 
ATOM     13  C   UNL     1      -4.119  -2.905   4.347  0.00  0.00    +0.046 C 
ATOM     14  C   UNL     1      -4.592  -4.154   3.743  0.00  0.00    +0.156 C 
ATOM     15  O   UNL     1      -5.211  -4.977   4.387  0.00  0.00    -0.293 OA
ATOM     16  C   UNL     1      -4.264  -4.375   2.280  0.00  0.00    +0.080 C 
ATOM     17  C   UNL     1      -4.572  -3.079   1.535  0.00  0.00    +0.019 C 
ATOM     18  C   UNL     1      -3.759  -1.904   2.083  0.00  0.00    -0.007 C 
ATOM     19  C   UNL     1      -2.313  -2.139   1.647  0.00  0.00    +0.016 C 
ATOM     20  C   UNL     1      -3.576   2.444  -0.053  0.00  0.00    +0.013 C 
ENDROOT
BRANCH   1  22
ATOM     21  C   UNL     1       0.058   0.283  -1.135  0.00  0.00    +0.087 C 
ATOM     22  C   UNL     1      -0.024   1.145   0.100  0.00  0.00    +0.144 C 
ATOM     23  O   UNL     1       0.812   1.040   0.965  0.00  0.00    -0.297 OA
ENDBRANCH   1  22
BRANCH   1  24
ATOM     24  C   UNL     1      -1.167   3.088  -0.907  0.00  0.00    +0.172 C 
ATOM     25  O   UNL     1      -0.722   2.748  -1.977  0.00  0.00    -0.294 OA
BRANCH  24  26
ATOM     26  C   UNL     1      -1.743   4.470  -0.735  0.00  0.00    +0.231 C 
BRANCH  26  27
ATOM     27  O   UNL     1      -1.647   5.183  -1.970  0.00  0.00    -0.387 OA
ATOM     28  H   UNL     1      -2.019   6.216  -2.039  0.00  0.00    +0.210 HD
ENDBRANCH  26  27
ENDBRANCH  24  26
ENDBRANCH   1  24
TORSDOF 4
