REMARK  Name = ZINC17271660
REMARK  7 active torsions:
REMARK  status: ('A' for Active; 'I' for Inactive)
REMARK    1  A    between atoms: C_1  and  C_2
REMARK    2  A    between atoms: C_15  and  C_17
REMARK    3  A    between atoms: C_17  and  C_19
REMARK    4  A    between atoms: C_17  and  S_20
REMARK    5  A    between atoms: S_20  and  C_21
REMARK    6  A    between atoms: C_24  and  C_29
REMARK    7  A    between atoms: N_25  and  C_26
REMARK                            x       y       z     vdW  Elec       q    Type
REMARK                         _______ _______ _______ _____ _____    ______ ____
ROOT
ATOM      1  C   UNL     1      -2.745   1.456   1.464  0.00  0.00    +0.008 C 
ATOM      2  C   UNL     1      -2.422  -0.029   1.291  0.00  0.00    -0.009 C 
ATOM      3  C   UNL     1      -3.723  -0.838   1.266  0.00  0.00    +0.008 C 
ATOM      4  C   UNL     1      -3.429  -2.279   0.847  0.00  0.00    +0.037 C 
ATOM      5  C   UNL     1      -2.328  -2.840   1.743  0.00  0.00    -0.023 A 
ATOM      6  C   UNL     1      -1.524  -2.008   2.446  0.00  0.00    -0.004 A 
ATOM      7  S   UNL     1      -0.413  -3.074   3.330  0.00  0.00    -0.073 S 
ATOM      8  C   UNL     1      -1.027  -4.626   2.757  0.00  0.00    +0.116 A 
ATOM      9  C   UNL     1      -2.082  -4.263   1.891  0.00  0.00    +0.075 A 
ATOM     10  C   UNL     1      -2.798  -5.330   1.252  0.00  0.00    +0.260 A 
ATOM     11  O   UNL     1      -3.725  -5.124   0.488  0.00  0.00    -0.267 OA
ATOM     12  N   UNL     1      -2.377  -6.582   1.554  0.00  0.00    -0.309 N 
ATOM     13  H   UNL     1      -2.833  -7.334   1.144  0.00  0.00    +0.170 HD
ATOM     14  C   UNL     1      -1.350  -6.833   2.401  0.00  0.00    +0.124 A 
ATOM     15  N   UNL     1      -0.671  -5.883   3.004  0.00  0.00    -0.225 NA
ATOM     16  C   UNL     1      -1.563  -0.510   2.469  0.00  0.00    +0.046 C 
ENDROOT
BRANCH  14  17
ATOM     17  C   UNL     1      -0.968  -8.267   2.663  0.00  0.00    +0.117 C 
ATOM     18  C   UNL     1      -1.668  -8.757   3.932  0.00  0.00    +0.027 C 
BRANCH  17  19
ATOM     19  S   UNL     1      -1.477  -9.295   1.257  0.00  0.00    -0.075 S 
BRANCH  19  20
ATOM     20  C   UNL     1      -0.838 -10.891   1.643  0.00  0.00    +0.193 A 
ATOM     21  N   UNL     1      -0.159 -11.219   2.718  0.00  0.00    -0.122 NA
ATOM     22  N   UNL     1       0.154 -12.465   2.681  0.00  0.00    -0.128 NA
ATOM     23  C   UNL     1      -0.306 -13.011   1.577  0.00  0.00    +0.172 A 
ATOM     24  N   UNL     1      -0.962 -12.019   0.881  0.00  0.00    -0.299 N 
BRANCH  23  25
ATOM     25  C   UNL     1      -0.156 -14.416   1.167  0.00  0.00    +0.056 A 
ATOM     26  C   UNL     1       0.218 -15.501   1.919  0.00  0.00    +0.019 A 
ATOM     27  C   UNL     1       0.289 -16.734   1.310  0.00  0.00    +0.008 A 
ATOM     28  C   UNL     1      -0.011 -16.839  -0.011  0.00  0.00    +0.046 A 
ATOM     29  S   UNL     1      -0.419 -15.154  -0.438  0.00  0.00    -0.094 S 
ENDBRANCH  23  25
BRANCH  24  30
ATOM     30  C   UNL     1      -1.646 -12.147  -0.409  0.00  0.00    +0.091 C 
ATOM     31  C   UNL     1      -1.957 -10.859  -1.174  0.00  0.00    +0.027 C 
ATOM     32  C   UNL     1      -3.086 -11.639  -0.497  0.00  0.00    +0.027 C 
ENDBRANCH  24  30
ENDBRANCH  19  20
ENDBRANCH  17  19
ENDBRANCH  14  17
TORSDOF 5
