REMARK  Name = ZINC08751113
REMARK  8 active torsions:
REMARK  status: ('A' for Active; 'I' for Inactive)
REMARK    1  A    between atoms: C_1  and  C_2
REMARK    2  A    between atoms: C_5  and  N_8
REMARK    3  A    between atoms: C_12  and  C_13
REMARK    4  A    between atoms: C_23  and  S_24
REMARK    5  A    between atoms: S_24  and  C_25
REMARK    6  A    between atoms: C_25  and  C_26
REMARK    7  A    between atoms: N_28  and  C_29
REMARK    8  A    between atoms: C_35  and  C_37
REMARK                            x       y       z     vdW  Elec       q    Type
REMARK                         _______ _______ _______ _____ _____    ______ ____
ROOT
ATOM      1  N   UNL     1      -0.077   5.674  -0.019  0.00  0.00    -0.214 N 
ATOM      2  C   UNL     1       1.001   6.476   0.118  0.00  0.00    +0.275 C 
ATOM      3  O   UNL     1       2.161   6.135   0.261  0.00  0.00    -0.268 OA
ATOM      4  C   UNL     1       0.477   7.853   0.058  0.00  0.00    +0.129 C 
ATOM      5  C   UNL     1       1.200   9.020   0.152  0.00  0.00    +0.041 C 
ATOM      6  N   UNL     1      -0.874   7.734  -0.110  0.00  0.00    -0.220 NA
ATOM      7  C   UNL     1      -1.191   6.466  -0.160  0.00  0.00    +0.169 C 
ENDROOT
BRANCH   5   8
ATOM      8  C   UNL     1       0.506  10.309   0.217  0.00  0.00    -0.019 A 
ATOM      9  C   UNL     1       1.237  11.505   0.176  0.00  0.00    +0.012 A 
ATOM     10  C   UNL     1       0.582  12.714   0.237  0.00  0.00    +0.050 A 
ATOM     11  C   UNL     1      -0.803  12.755   0.340  0.00  0.00    +0.166 A 
ATOM     12  C   UNL     1      -1.539  11.569   0.382  0.00  0.00    +0.167 A 
ATOM     13  C   UNL     1      -0.891  10.352   0.315  0.00  0.00    +0.057 A 
ATOM     14  O   UNL     1      -2.864  11.882   0.483  0.00  0.00    -0.453 OA
ATOM     15  C   UNL     1      -2.963  13.264   0.091  0.00  0.00    +0.466 C 
ATOM     16  O   UNL     1      -1.669  13.806   0.416  0.00  0.00    -0.453 OA
ENDBRANCH   5   8
BRANCH   1  21
ATOM     17  C   UNL     1      -0.015  -0.001  -0.036  0.00  0.00    +0.044 C 
ATOM     18  C   UNL     1      -0.032   1.506  -0.032  0.00  0.00    -0.050 A 
ATOM     19  C   UNL     1       0.591   2.206  -1.048  0.00  0.00    +0.005 A 
ATOM     20  C   UNL     1       0.574   3.587  -1.050  0.00  0.00    +0.024 A 
ATOM     21  C   UNL     1      -0.062   4.272  -0.023  0.00  0.00    +0.044 A 
ATOM     22  C   UNL     1      -0.682   3.567   0.999  0.00  0.00    +0.024 A 
ATOM     23  C   UNL     1      -0.665   2.186   0.992  0.00  0.00    +0.005 A 
ENDBRANCH   1  21
BRANCH   7  24
ATOM     24  S   UNL     1      -2.830   5.855  -0.374  0.00  0.00    -0.080 S 
BRANCH  24  25
ATOM     25  C   UNL     1      -3.736   7.418  -0.484  0.00  0.00    +0.172 C 
BRANCH  25  26
ATOM     26  C   UNL     1      -5.204   7.135  -0.675  0.00  0.00    +0.224 C 
ATOM     27  O   UNL     1      -5.598   5.989  -0.731  0.00  0.00    -0.275 OA
ATOM     28  N   UNL     1      -6.078   8.155  -0.784  0.00  0.00    -0.312 N 
ATOM     29  H   UNL     1      -5.763   9.071  -0.739  0.00  0.00    +0.149 HD
BRANCH  28  30
ATOM     30  C   UNL     1      -7.505   7.880  -0.969  0.00  0.00    +0.076 C 
ATOM     31  C   UNL     1      -8.163   7.654   0.394  0.00  0.00    +0.022 C 
ATOM     32  C   UNL     1      -7.993   8.907   1.255  0.00  0.00    +0.002 C 
ATOM     33  C   UNL     1      -8.655  10.098   0.560  0.00  0.00    +0.000 C 
ATOM     34  C   UNL     1      -7.998  10.323  -0.803  0.00  0.00    +0.005 C 
ATOM     35  C   UNL     1      -8.168   9.071  -1.665  0.00  0.00    +0.006 C 
ATOM     36  C   UNL     1      -7.511   9.296  -3.027  0.00  0.00    +0.009 C 
ENDBRANCH  28  30
ENDBRANCH  25  26
ENDBRANCH  24  25
ENDBRANCH   7  24
TORSDOF 6
