REMARK  Name = ZINC57608511
REMARK  11 active torsions:
REMARK  status: ('A' for Active; 'I' for Inactive)
REMARK    1  A    between atoms: C_1  and  C_2
REMARK    2  A    between atoms: C_4  and  C_42
REMARK    3  A    between atoms: C_9  and  C_14
REMARK    4  A    between atoms: C_14  and  C_16
REMARK    5  A    between atoms: C_14  and  N_28
REMARK    6  A    between atoms: N_20  and  C_21
REMARK    7  A    between atoms: C_21  and  C_22
REMARK    8  A    between atoms: N_28  and  C_29
REMARK    9  A    between atoms: N_28  and  C_36
REMARK   10  A    between atoms: C_29  and  C_30
REMARK   11  A    between atoms: C_36  and  C_37
REMARK                            x       y       z     vdW  Elec       q    Type
REMARK                         _______ _______ _______ _____ _____    ______ ____
ROOT
ATOM      1  C   UNL     1       0.591  -4.662   4.283  0.00  0.00    +0.163 C 
ENDROOT
BRANCH   1  10
ATOM      2  C   UNL     1      -3.191  -0.397  -0.525  0.00  0.00    +0.044 C 
ATOM      3  C   UNL     1      -1.902  -0.796   0.145  0.00  0.00    -0.050 A 
ATOM      4  C   UNL     1      -0.724  -0.138  -0.182  0.00  0.00    +0.008 A 
ATOM      5  C   UNL     1       0.467  -0.486   0.418  0.00  0.00    -0.026 A 
ATOM      6  C   UNL     1       0.491  -1.508   1.362  0.00  0.00    +0.052 A 
ATOM      7  C   UNL     1      -0.705  -2.172   1.691  0.00  0.00    -0.001 A 
ATOM      8  C   UNL     1      -1.903  -1.798   1.073  0.00  0.00    +0.013 A 
ATOM      9  C   UNL     1      -0.670  -3.246   2.686  0.00  0.00    +0.021 A 
ATOM     10  C   UNL     1       0.520  -3.562   3.256  0.00  0.00    +0.042 A 
ATOM     11  C   UNL     1       1.691  -2.864   2.890  0.00  0.00    +0.254 A 
ATOM     12  O   UNL     1       2.749  -3.164   3.415  0.00  0.00    -0.268 OA
ATOM     13  N   UNL     1       1.668  -1.877   1.978  0.00  0.00    -0.322 N 
ATOM     14  H   UNL     1       2.491  -1.418   1.750  0.00  0.00    +0.169 HD
ATOM     15  C   UNL     1       1.738   0.236   0.052  0.00  0.00    +0.046 C 
ENDBRANCH   1  10
BRANCH   1  16
ATOM     16  C   UNL     1      -0.796  -5.180   4.562  0.00  0.00    +0.173 A 
ATOM     17  N   UNL     1      -1.497  -5.989   3.806  0.00  0.00    -0.111 NA
ATOM     18  N   UNL     1      -2.628  -6.196   4.387  0.00  0.00    -0.023 NA
ATOM     19  N   UNL     1      -2.668  -5.540   5.493  0.00  0.00    -0.044 NA
ATOM     20  N   UNL     1      -1.555  -4.904   5.640  0.00  0.00    -0.225 N 
BRANCH  20  21
ATOM     21  C   UNL     1      -1.186  -4.043   6.766  0.00  0.00    +0.179 C 
BRANCH  21  22
ATOM     22  C   UNL     1      -1.621  -2.605   6.472  0.00  0.00    +0.140 C 
ATOM     23  C   UNL     1      -1.130  -1.669   7.597  0.00  0.00    +0.035 C 
ATOM     24  C   UNL     1      -2.332  -0.700   7.766  0.00  0.00    +0.031 C 
ATOM     25  C   UNL     1      -3.520  -1.649   7.471  0.00  0.00    +0.160 C 
ATOM     26  O   UNL     1      -3.051  -2.528   6.434  0.00  0.00    -0.375 OA
ENDBRANCH  21  22
ENDBRANCH  20  21
ENDBRANCH   1  16
BRANCH   1  27
ATOM     27  N   UNL     1       1.428  -5.756   3.771  0.00  0.00    -0.277 NA
BRANCH  27  28
ATOM     28  C   UNL     1       1.517  -6.851   4.747  0.00  0.00    +0.121 C 
BRANCH  28  29
ATOM     29  C   UNL     1       2.670  -7.752   4.387  0.00  0.00    -0.033 A 
ATOM     30  C   UNL     1       2.447  -8.897   3.645  0.00  0.00    +0.005 A 
ATOM     31  C   UNL     1       3.505  -9.724   3.315  0.00  0.00    +0.000 A 
ATOM     32  C   UNL     1       4.786  -9.405   3.726  0.00  0.00    +0.000 A 
ATOM     33  C   UNL     1       5.009  -8.259   4.466  0.00  0.00    +0.000 A 
ATOM     34  C   UNL     1       3.951  -7.430   4.793  0.00  0.00    +0.005 A 
ENDBRANCH  28  29
ENDBRANCH  27  28
BRANCH  27  35
ATOM     35  C   UNL     1       0.926  -6.242   2.479  0.00  0.00    +0.160 C 
BRANCH  35  36
ATOM     36  C   UNL     1       1.522  -5.418   1.367  0.00  0.00    +0.119 A 
ATOM     37  C   UNL     1       2.729  -5.611   0.804  0.00  0.00    +0.046 A 
ATOM     38  C   UNL     1       2.881  -4.617  -0.190  0.00  0.00    +0.041 A 
ATOM     39  C   UNL     1       1.758  -3.876  -0.175  0.00  0.00    +0.195 A 
ATOM     40  O   UNL     1       0.936  -4.370   0.766  0.00  0.00    -0.467 OA
ENDBRANCH  35  36
ENDBRANCH  27  35
ENDBRANCH   1  27
TORSDOF 9
