REMARK  Name = ZINC45630617
REMARK  6 active torsions:
REMARK  status: ('A' for Active; 'I' for Inactive)
REMARK    1  A    between atoms: C_5  and  C_8
REMARK    2  A    between atoms: C_8  and  O_10
REMARK    3  A    between atoms: O_10  and  C_11
REMARK    4  A    between atoms: C_11  and  C_12
REMARK    5  A    between atoms: N_14  and  C_15
REMARK    6  A    between atoms: C_20  and  N_21
REMARK                            x       y       z     vdW  Elec       q    Type
REMARK                         _______ _______ _______ _____ _____    ______ ____
ROOT
ATOM      1  C   UNL     1       0.724  -4.974  -2.455  0.00  0.00    +0.255 C 
ATOM      2  O   UNL     1       0.170  -4.372  -3.350  0.00  0.00    -0.272 OA
ATOM      3  N   UNL     1       1.320  -6.157  -2.707  0.00  0.00    -0.281 N 
ATOM      4  H   UNL     1       1.819  -6.607  -2.008  0.00  0.00    +0.155 HD
ENDROOT
BRANCH   3   5
ATOM      5  C   UNL     1       1.220  -6.735  -3.979  0.00  0.00    +0.068 A 
ATOM      6  C   UNL     1       1.205  -5.927  -5.110  0.00  0.00    +0.075 A 
ATOM      7  C   UNL     1       1.106  -6.505  -6.363  0.00  0.00    +0.164 A 
ATOM      8  C   UNL     1       1.021  -7.885  -6.490  0.00  0.00    +0.164 A 
ATOM      9  C   UNL     1       1.036  -8.689  -5.363  0.00  0.00    +0.084 A 
ATOM     10  C   UNL     1       1.141  -8.114  -4.109  0.00  0.00    +0.151 A 
ATOM     11  O   UNL     1       0.924  -8.443  -7.732  0.00  0.00    -0.488 OA
ATOM     12  C   UNL     1      -0.296  -8.197  -8.434  0.00  0.00    +0.232 C 
ATOM     13  C   UNL     1      -0.241  -6.862  -9.161  0.00  0.00    +0.082 C 
ATOM     14  C   UNL     1      -0.141  -5.686  -8.203  0.00  0.00    +0.232 C 
ATOM     15  O   UNL     1       1.092  -5.723  -7.482  0.00  0.00    -0.488 OA
BRANCH  10  16
ATOM     16  N   UNL     1       1.163  -8.973  -2.904  0.00  0.00    +0.058 N 
ATOM     17  O   UNL     1       1.193 -10.176  -3.018  0.00  0.00    -0.126 OA
ATOM     18  O   UNL     1       1.151  -8.470  -1.804  0.00  0.00    -0.126 OA
ENDBRANCH  10  16
ENDBRANCH   3   5
BRANCH   1  19
ATOM     19  C   UNL     1       0.747  -4.401  -1.062  0.00  0.00    +0.328 C 
BRANCH  19  20
ATOM     20  O   UNL     1       0.054  -3.151  -1.050  0.00  0.00    -0.452 OA
BRANCH  20  21
ATOM     21  C   UNL     1      -0.017  -2.503   0.129  0.00  0.00    +0.343 C 
ATOM     22  O   UNL     1       0.494  -2.985   1.120  0.00  0.00    -0.245 OA
BRANCH  21  27
ATOM     23  C   UNL     1      -2.732   0.052   0.592  0.00  0.00    +0.022 A 
ATOM     24  C   UNL     1      -2.033   1.228   0.381  0.00  0.00    +0.023 A 
ATOM     25  C   UNL     1      -0.681   1.195   0.089  0.00  0.00    +0.060 A 
ATOM     26  C   UNL     1      -0.018  -0.015   0.005  0.00  0.00    +0.075 A 
ATOM     27  C   UNL     1      -0.717  -1.206   0.217  0.00  0.00    +0.097 A 
ATOM     28  C   UNL     1      -2.083  -1.164   0.511  0.00  0.00    +0.056 A 
ATOM     29 CL   UNL     1      -2.962  -2.638   0.776  0.00  0.00    -0.083 Cl
ATOM     30 CL   UNL     1       1.678  -0.055  -0.362  0.00  0.00    -0.081 Cl
ATOM     31 CL   UNL     1       0.185   2.677  -0.174  0.00  0.00    -0.082 Cl
ENDBRANCH  21  27
ENDBRANCH  20  21
ENDBRANCH  19  20
ENDBRANCH   1  19
TORSDOF 6
