REMARK  Name = ZINC34761382
REMARK  12 active torsions:
REMARK  status: ('A' for Active; 'I' for Inactive)
REMARK    1  A    between atoms: C_1  and  C_2
REMARK    2  A    between atoms: C_2  and  C_3
REMARK    3  A    between atoms: C_3  and  C_4
REMARK    4  A    between atoms: C_4  and  S_5
REMARK    5  A    between atoms: S_5  and  C_6
REMARK    6  A    between atoms: C_10  and  C_16
REMARK    7  A    between atoms: C_11  and  C_15
REMARK    8  A    between atoms: C_16  and  C_17
REMARK    9  A    between atoms: N_21  and  C_24
REMARK   10  A    between atoms: C_24  and  C_25
REMARK   11  A    between atoms: C_25  and  C_26
REMARK   12  A    between atoms: C_26  and  C_27
REMARK                            x       y       z     vdW  Elec       q    Type
REMARK                         _______ _______ _______ _____ _____    ______ ____
ROOT
ATOM      1  C   UNL     1      -0.059  -5.636  -2.620  0.00  0.00    +0.191 A 
ATOM      2  N   UNL     1       0.535  -6.317  -3.592  0.00  0.00    -0.206 NA
ATOM      3  C   UNL     1       1.841  -6.522  -3.610  0.00  0.00    +0.134 A 
ATOM      4  C   UNL     1       2.642  -6.000  -2.556  0.00  0.00    +0.051 A 
ATOM      5  C   UNL     1       4.078  -6.089  -2.352  0.00  0.00    -0.025 A 
ATOM      6  C   UNL     1       4.623  -5.512  -1.271  0.00  0.00    -0.007 A 
ATOM      7  S   UNL     1       3.224  -4.793  -0.433  0.00  0.00    -0.073 S 
ATOM      8  C   UNL     1       1.944  -5.288  -1.557  0.00  0.00    +0.115 A 
ATOM      9  N   UNL     1       0.637  -5.121  -1.615  0.00  0.00    -0.215 NA
ATOM     10  C   UNL     1       6.073  -5.479  -0.862  0.00  0.00    +0.052 C 
ATOM     11  N   UNL     1       2.422  -7.238  -4.641  0.00  0.00    -0.318 N 
ATOM     12  C   UNL     1       2.539  -8.703  -4.573  0.00  0.00    +0.088 C 
ATOM     13  C   UNL     1       1.986  -9.295  -5.873  0.00  0.00    -0.060 C 
ATOM     14  N   UNL     1       2.673  -8.684  -7.019  0.00  0.00    +0.382 N 
ATOM     15  C   UNL     1       2.369  -7.249  -7.077  0.00  0.00    -0.060 C 
ATOM     16  C   UNL     1       2.935  -6.556  -5.839  0.00  0.00    +0.088 C 
ATOM     17  H   UNL     1       3.669  -8.812  -6.919  0.00  0.00    -0.082 HD
ENDROOT
BRANCH   5  18
ATOM     18  C   UNL     1       4.945  -6.823  -3.342  0.00  0.00    +0.033 C 
ATOM     19  C   UNL     1       5.542  -5.824  -4.336  0.00  0.00    +0.009 C 
ENDBRANCH   5  18
BRANCH   1  20
ATOM     20  S   UNL     1      -1.806  -5.405  -2.668  0.00  0.00    -0.086 S 
BRANCH  20  21
ATOM     21  C   UNL     1      -2.161  -4.434  -1.178  0.00  0.00    +0.077 C 
BRANCH  21  22
ATOM     22  C   UNL     1      -3.664  -4.158  -1.095  0.00  0.00    +0.011 C 
BRANCH  22  24
ATOM     23  C   UNL     1      -5.467  -3.064   0.244  0.00  0.00    +0.004 C 
ATOM     24  C   UNL     1      -3.964  -3.340   0.162  0.00  0.00    -0.003 C 
ENDBRANCH  22  24
ENDBRANCH  21  22
ENDBRANCH  20  21
ENDBRANCH   1  20
BRANCH  14  25
ATOM     25  C   UNL     1       2.222  -9.329  -8.259  0.00  0.00    -0.078 C 
BRANCH  25  26
ATOM     26  C   UNL     1       3.025  -8.782  -9.440  0.00  0.00    -0.014 C 
BRANCH  26  27
ATOM     27  C   UNL     1       2.555  -9.455 -10.732  0.00  0.00    +0.033 C 
BRANCH  27  28
ATOM     28  C   UNL     1       3.347  -8.916 -11.895  0.00  0.00    -0.047 A 
ATOM     29  C   UNL     1       2.899  -7.801 -12.579  0.00  0.00    +0.003 A 
ATOM     30  C   UNL     1       3.625  -7.307 -13.646  0.00  0.00    +0.000 A 
ATOM     31  C   UNL     1       4.800  -7.927 -14.030  0.00  0.00    +0.000 A 
ATOM     32  C   UNL     1       5.248  -9.041 -13.346  0.00  0.00    +0.000 A 
ATOM     33  C   UNL     1       4.524  -9.533 -12.275  0.00  0.00    +0.003 A 
ENDBRANCH  27  28
ENDBRANCH  26  27
ENDBRANCH  25  26
ENDBRANCH  14  25
TORSDOF 9
