REMARK  Name = ZINC10013644
REMARK  8 active torsions:
REMARK  status: ('A' for Active; 'I' for Inactive)
REMARK    1  A    between atoms: C_1  and  C_2
REMARK    2  A    between atoms: C_3  and  C_30
REMARK    3  A    between atoms: C_4  and  C_21
REMARK    4  A    between atoms: C_10  and  C_15
REMARK    5  A    between atoms: C_24  and  O_29
REMARK    6  A    between atoms: C_25  and  O_27
REMARK    7  A    between atoms: O_27  and  C_28
REMARK    8  A    between atoms: N_32  and  C_33
REMARK                            x       y       z     vdW  Elec       q    Type
REMARK                         _______ _______ _______ _____ _____    ______ ____
ROOT
ATOM      1  C   UNL     1       5.567  -1.433  -1.600  0.00  0.00    +0.061 C 
ATOM      2  C   UNL     1       4.514  -0.381  -1.363  0.00  0.00    +0.014 C 
ATOM      3  C   UNL     1       4.855   0.790  -0.800  0.00  0.00    +0.043 C 
ATOM      4  C   UNL     1       3.835   1.863  -0.557  0.00  0.00    +0.090 C 
ATOM      5  C   UNL     1       2.437   1.302  -0.606  0.00  0.00    +0.024 C 
ATOM      6  C   UNL     1       2.194   0.106  -1.184  0.00  0.00    +0.016 C 
ATOM      7  N   UNL     1       3.217  -0.625  -1.724  0.00  0.00    -0.321 N 
ATOM      8  C   UNL     1       0.795  -0.457  -1.247  0.00  0.00    +0.059 C 
ATOM      9  C   UNL     1      -0.004   0.018  -0.032  0.00  0.00    +0.032 C 
ATOM     10  C   UNL     1      -0.020   1.550  -0.029  0.00  0.00    +0.088 C 
ATOM     11  C   UNL     1       1.397   2.054  -0.032  0.00  0.00    +0.162 C 
ATOM     12  O   UNL     1       1.648   3.132   0.470  0.00  0.00    -0.292 OA
ATOM     13  H   UNL     1       2.989  -1.415  -2.454  0.00  0.00    +0.152 HD
ENDROOT
BRANCH   9  14
ATOM     14  C   UNL     1      -1.416  -0.502  -0.120  0.00  0.00    -0.044 A 
ATOM     15  C   UNL     1      -2.208  -0.172  -1.203  0.00  0.00    +0.004 A 
ATOM     16  C   UNL     1      -3.502  -0.653  -1.286  0.00  0.00    +0.000 A 
ATOM     17  C   UNL     1      -4.006  -1.456  -0.281  0.00  0.00    +0.000 A 
ATOM     18  C   UNL     1      -3.215  -1.783   0.805  0.00  0.00    +0.000 A 
ATOM     19  C   UNL     1      -1.921  -1.306   0.886  0.00  0.00    +0.004 A 
ENDBRANCH   9  14
BRANCH   4  20
ATOM     20  C   UNL     1       3.977   2.929  -1.614  0.00  0.00    -0.032 A 
ATOM     21  C   UNL     1       3.816   2.603  -2.948  0.00  0.00    +0.008 A 
ATOM     22  C   UNL     1       3.944   3.577  -3.921  0.00  0.00    +0.049 A 
ATOM     23  C   UNL     1       4.236   4.883  -3.560  0.00  0.00    +0.158 A 
ATOM     24  C   UNL     1       4.398   5.210  -2.217  0.00  0.00    +0.162 A 
ATOM     25  C   UNL     1       4.262   4.231  -1.246  0.00  0.00    +0.054 A 
BRANCH  24  26
ATOM     26  O   UNL     1       4.684   6.490  -1.858  0.00  0.00    -0.491 OA
ATOM     27  C   UNL     1       4.836   6.754  -0.462  0.00  0.00    +0.277 C 
ENDBRANCH  24  26
BRANCH  23  28
ATOM     28  O   UNL     1       4.362   5.842  -4.515  0.00  0.00    -0.503 OA
ATOM     29  H   UNL     1       4.593   6.878  -4.227  0.00  0.00    +0.292 HD
ENDBRANCH  23  28
ENDBRANCH   4  20
BRANCH   3  30
ATOM     30  C   UNL     1       6.204   1.016  -0.430  0.00  0.00    +0.247 C 
ATOM     31  O   UNL     1       7.041   0.152  -0.622  0.00  0.00    -0.270 OA
ATOM     32  N   UNL     1       6.560   2.186   0.136  0.00  0.00    -0.282 N 
ATOM     33  H   UNL     1       5.821   2.994   0.241  0.00  0.00    +0.155 HD
BRANCH  32  34
ATOM     34  C   UNL     1       7.870   2.373   0.591  0.00  0.00    +0.034 A 
ATOM     35  C   UNL     1       8.110   3.135   1.726  0.00  0.00    +0.026 A 
ATOM     36  C   UNL     1       9.404   3.315   2.175  0.00  0.00    +0.040 A 
ATOM     37  C   UNL     1      10.462   2.744   1.488  0.00  0.00    +0.124 A 
ATOM     38  C   UNL     1      10.225   1.987   0.353  0.00  0.00    +0.040 A 
ATOM     39  C   UNL     1       8.933   1.801  -0.097  0.00  0.00    +0.026 A 
ATOM     40  F   UNL     1      11.727   2.925   1.927  0.00  0.00    -0.205 F 
ENDBRANCH  32  34
ENDBRANCH   3  30
TORSDOF 6
