REMARK  Name = ZINC31055777
REMARK  9 active torsions:
REMARK  status: ('A' for Active; 'I' for Inactive)
REMARK    1  A    between atoms: C_1  and  C_2
REMARK    2  A    between atoms: C_2  and  C_3
REMARK    3  A    between atoms: C_3  and  C_5
REMARK    4  A    between atoms: C_3  and  N_12
REMARK    5  A    between atoms: C_8  and  C_11
REMARK    6  A    between atoms: C_13  and  C_15
REMARK    7  A    between atoms: N_20  and  C_22
REMARK    8  A    between atoms: C_22  and  C_23
REMARK    9  A    between atoms: C_25  and  C_28
REMARK                            x       y       z     vdW  Elec       q    Type
REMARK                         _______ _______ _______ _____ _____    ______ ____
ROOT
ATOM      1  C   UNL     1       1.280   1.980   0.001  0.00  0.00    +0.058 C 
ATOM      2  C   UNL     1       1.363   2.853   1.255  0.00  0.00    +0.009 C 
ATOM      3  C   UNL     1       2.707   3.587   1.269  0.00  0.00    -0.018 C 
ATOM      4  C   UNL     1       3.843   2.563   1.219  0.00  0.00    -0.078 C 
ATOM      5  N   UNL     1       3.719   1.753   0.000  0.00  0.00    +0.386 N 
ATOM      6  C   UNL     1       2.457   1.002  -0.014  0.00  0.00    -0.065 C 
ATOM      7  H   UNL     1       3.710   2.440  -0.859  0.00  0.00    -0.081 HD
ENDROOT
BRANCH   1   9
ATOM      8  N   UNL     1      -1.191   1.867   0.018  0.00  0.00    -0.308 N 
ATOM      9  C   UNL     1      -0.014   1.209   0.009  0.00  0.00    +0.215 C 
ATOM     10  O   UNL     1       0.002  -0.004   0.002  0.00  0.00    -0.276 OA
ATOM     11  H   UNL     1      -1.206   2.966   0.024  0.00  0.00    +0.149 HD
BRANCH   8  12
ATOM     12  C   UNL     1      -2.449   1.117   0.020  0.00  0.00    +0.103 C 
BRANCH  12  13
ATOM     13  C   UNL     1      -3.543   1.969  -0.571  0.00  0.00    -0.027 A 
ATOM     14  C   UNL     1      -3.610   3.316  -0.266  0.00  0.00    +0.006 A 
ATOM     15  C   UNL     1      -4.610   4.099  -0.811  0.00  0.00    +0.004 A 
ATOM     16  C   UNL     1      -5.549   3.533  -1.654  0.00  0.00    -0.050 A 
ATOM     17  C   UNL     1      -5.484   2.186  -1.955  0.00  0.00    +0.004 A 
ATOM     18  C   UNL     1      -4.481   1.404  -1.413  0.00  0.00    +0.006 A 
ATOM     19  C   UNL     1      -6.642   4.386  -2.245  0.00  0.00    +0.044 C 
ENDBRANCH  12  13
BRANCH  12  21
ATOM     20  C   UNL     1      -1.769  -0.226   2.014  0.00  0.00    +0.006 C 
ATOM     21  C   UNL     1      -2.816   0.740   1.456  0.00  0.00    +0.024 C 
ENDBRANCH  12  21
ENDBRANCH   8  12
ENDBRANCH   1   9
BRANCH   5  22
ATOM     22  C   UNL     1       4.870   0.852  -0.152  0.00  0.00    +0.022 C 
BRANCH  22  23
ATOM     23  C   UNL     1       6.117   1.665  -0.386  0.00  0.00    +0.211 A 
ATOM     24  N   UNL     1       6.927   2.129   0.533  0.00  0.00    -0.193 NA
ATOM     25  C   UNL     1       7.898   2.787  -0.139  0.00  0.00    +0.203 A 
ATOM     26  N   UNL     1       7.619   2.692  -1.413  0.00  0.00    -0.056 NA
ATOM     27  O   UNL     1       6.601   2.052  -1.570  0.00  0.00    -0.340 OA
BRANCH  25  28
ATOM     28  C   UNL     1       9.060   3.491   0.458  0.00  0.00    +0.041 A 
ATOM     29  C   UNL     1       9.228   3.515   1.841  0.00  0.00    +0.014 A 
ATOM     30  C   UNL     1      10.313   4.165   2.392  0.00  0.00    +0.021 A 
ATOM     31  C   UNL     1      11.229   4.804   1.573  0.00  0.00    +0.042 A 
ATOM     32  C   UNL     1      11.065   4.789   0.199  0.00  0.00    +0.040 A 
ATOM     33  C   UNL     1       9.985   4.136  -0.362  0.00  0.00    +0.053 A 
ATOM     34 CL   UNL     1       9.780   4.117  -2.086  0.00  0.00    -0.083 Cl
ATOM     35 CL   UNL     1      12.589   5.626   2.273  0.00  0.00    -0.083 Cl
ENDBRANCH  25  28
ENDBRANCH  22  23
ENDBRANCH   5  22
TORSDOF 7
