REMARK  Name = ZINC19848851
REMARK  13 active torsions:
REMARK  status: ('A' for Active; 'I' for Inactive)
REMARK    1  A    between atoms: C_1  and  C_2
REMARK    2  A    between atoms: C_3  and  C_33
REMARK    3  A    between atoms: C_4  and  C_23
REMARK    4  A    between atoms: C_10  and  C_15
REMARK    5  A    between atoms: C_20  and  O_21
REMARK    6  A    between atoms: O_21  and  C_22
REMARK    7  A    between atoms: C_26  and  O_31
REMARK    8  A    between atoms: C_27  and  O_29
REMARK    9  A    between atoms: O_29  and  C_30
REMARK   10  A    between atoms: O_31  and  C_32
REMARK   11  A    between atoms: C_33  and  O_35
REMARK   12  A    between atoms: O_35  and  C_36
REMARK   13  A    between atoms: C_36  and  C_37
REMARK                            x       y       z     vdW  Elec       q    Type
REMARK                         _______ _______ _______ _____ _____    ______ ____
ROOT
ATOM      1  C   UNL     1      -1.130   3.089  -3.106  0.00  0.00    +0.061 C 
ATOM      2  C   UNL     1      -0.337   2.621  -1.913  0.00  0.00    +0.016 C 
ATOM      3  C   UNL     1      -0.772   1.575  -1.190  0.00  0.00    +0.065 C 
ATOM      4  C   UNL     1      -0.013   1.086   0.008  0.00  0.00    +0.092 C 
ATOM      5  C   UNL     1       1.405   1.600  -0.003  0.00  0.00    +0.024 C 
ATOM      6  C   UNL     1       1.752   2.648  -0.779  0.00  0.00    +0.016 C 
ATOM      7  N   UNL     1       0.822   3.263  -1.574  0.00  0.00    -0.321 N 
ATOM      8  C   UNL     1       3.169   3.167  -0.797  0.00  0.00    +0.060 C 
ATOM      9  C   UNL     1       3.819   2.933   0.568  0.00  0.00    +0.035 C 
ATOM     10  C   UNL     1       3.778   1.432   0.875  0.00  0.00    +0.088 C 
ATOM     11  C   UNL     1       2.350   0.961   0.818  0.00  0.00    +0.162 C 
ATOM     12  O   UNL     1       2.009   0.010   1.494  0.00  0.00    -0.292 OA
ATOM     13  H   UNL     1       1.013   4.283  -1.939  0.00  0.00    +0.152 HD
ENDROOT
BRANCH   9  14
ATOM     14  C   UNL     1       5.249   3.408   0.536  0.00  0.00    -0.002 A 
ATOM     15  C   UNL     1       6.143   2.850  -0.357  0.00  0.00    +0.007 A 
ATOM     16  C   UNL     1       7.455   3.286  -0.387  0.00  0.00    +0.001 A 
ATOM     17  C   UNL     1       7.875   4.281   0.475  0.00  0.00    +0.004 A 
ATOM     18  C   UNL     1       6.985   4.843   1.369  0.00  0.00    +0.046 A 
ATOM     19  C   UNL     1       5.667   4.411   1.399  0.00  0.00    +0.124 A 
BRANCH  19  20
ATOM     20  O   UNL     1       4.788   4.965   2.274  0.00  0.00    -0.495 OA
ATOM     21  C   UNL     1       5.288   5.992   3.133  0.00  0.00    +0.277 C 
ENDBRANCH  19  20
ENDBRANCH   9  14
BRANCH   4  22
ATOM     22  C   UNL     1      -0.703   1.564   1.259  0.00  0.00    -0.032 A 
ATOM     23  C   UNL     1      -0.846   2.919   1.493  0.00  0.00    +0.008 A 
ATOM     24  C   UNL     1      -1.478   3.363   2.639  0.00  0.00    +0.050 A 
ATOM     25  C   UNL     1      -1.971   2.449   3.557  0.00  0.00    +0.162 A 
ATOM     26  C   UNL     1      -1.828   1.085   3.321  0.00  0.00    +0.162 A 
ATOM     27  C   UNL     1      -1.198   0.647   2.168  0.00  0.00    +0.054 A 
BRANCH  26  28
ATOM     28  O   UNL     1      -2.311   0.184   4.218  0.00  0.00    -0.491 OA
ATOM     29  C   UNL     1      -2.128  -1.199   3.910  0.00  0.00    +0.277 C 
ENDBRANCH  26  28
BRANCH  25  30
ATOM     30  O   UNL     1      -2.594   2.884   4.685  0.00  0.00    -0.491 OA
ATOM     31  C   UNL     1      -2.705   4.298   4.860  0.00  0.00    +0.277 C 
ENDBRANCH  25  30
ENDBRANCH   4  22
BRANCH   3  32
ATOM     32  C   UNL     1      -1.970   0.922  -1.566  0.00  0.00    +0.338 C 
ATOM     33  O   UNL     1      -2.595   1.309  -2.536  0.00  0.00    -0.245 OA
BRANCH  32  34
ATOM     34  O   UNL     1      -2.418  -0.130  -0.850  0.00  0.00    -0.459 OA
BRANCH  34  35
ATOM     35  C   UNL     1      -3.634  -0.741  -1.287  0.00  0.00    +0.264 C 
BRANCH  35  36
ATOM     36  C   UNL     1      -3.981  -1.907  -0.358  0.00  0.00    +0.156 C 
ATOM     37  C   UNL     1      -5.246  -2.637  -0.862  0.00  0.00    +0.037 C 
ATOM     38  C   UNL     1      -5.996  -3.024   0.432  0.00  0.00    +0.031 C 
ATOM     39  C   UNL     1      -5.096  -2.481   1.565  0.00  0.00    +0.160 C 
ATOM     40  O   UNL     1      -4.332  -1.417   0.954  0.00  0.00    -0.373 OA
ENDBRANCH  35  36
ENDBRANCH  34  35
ENDBRANCH  32  34
ENDBRANCH   3  32
TORSDOF 9
