REMARK  Name = ZINC05957536
REMARK  6 active torsions:
REMARK  status: ('A' for Active; 'I' for Inactive)
REMARK    1  A    between atoms: C_1  and  C_2
REMARK    2  A    between atoms: C_4  and  C_18
REMARK    3  A    between atoms: N_9  and  N_10
REMARK    4  A    between atoms: N_10  and  C_11
REMARK    5  A    between atoms: C_11  and  N_13
REMARK    6  A    between atoms: N_16  and  C_17
REMARK                            x       y       z     vdW  Elec       q    Type
REMARK                         _______ _______ _______ _____ _____    ______ ____
ROOT
ATOM      1  C   UNL     1       0.205   1.684  -0.580  0.00  0.00    +0.044 C 
ATOM      2  C   UNL     1       0.176   0.194  -0.361  0.00  0.00    -0.049 A 
ATOM      3  C   UNL     1       0.163  -0.664  -1.448  0.00  0.00    +0.008 A 
ATOM      4  C   UNL     1       0.136  -2.032  -1.264  0.00  0.00    -0.028 A 
ATOM      5  C   UNL     1       0.121  -2.563   0.021  0.00  0.00    +0.049 A 
ATOM      6  C   UNL     1       0.134  -1.692   1.117  0.00  0.00    +0.029 A 
ATOM      7  C   UNL     1       0.167  -0.316   0.922  0.00  0.00    +0.015 A 
ATOM      8  C   UNL     1       0.113  -2.544   2.329  0.00  0.00    +0.153 C 
ATOM      9  N   UNL     1       0.116  -2.153   3.581  0.00  0.00    -0.175 NA
ATOM     10  C   UNL     1       0.088  -3.929   1.820  0.00  0.00    +0.271 C 
ATOM     11  O   UNL     1       0.065  -4.940   2.497  0.00  0.00    -0.268 OA
ATOM     12  N   UNL     1       0.093  -3.876   0.478  0.00  0.00    -0.268 N 
ATOM     13  C   UNL     1       0.073  -5.053  -0.395  0.00  0.00    +0.138 C 
ATOM     14  C   UNL     1       0.121  -2.951  -2.458  0.00  0.00    +0.046 C 
ENDROOT
BRANCH   9  15
ATOM     15  N   UNL     1      -0.014  -0.792   3.890  0.00  0.00    -0.218 N 
ATOM     16  H   UNL     1      -0.186  -0.149   3.185  0.00  0.00    +0.176 HD
BRANCH  15  17
ATOM     17  C   UNL     1       0.100  -0.378   5.167  0.00  0.00    +0.147 C 
ATOM     18  S   UNL     1      -0.058   1.285   5.545  0.00  0.00    -0.017 S 
BRANCH  17  19
ATOM     19  N   UNL     1       0.339  -1.272   6.147  0.00  0.00    -0.339 N 
ATOM     20  H   UNL     1       0.429  -2.213   5.933  0.00  0.00    +0.144 HD
ATOM     21  H   UNL     1       0.421  -0.973   7.067  0.00  0.00    +0.144 HD
ENDBRANCH  17  19
ENDBRANCH  15  17
ENDBRANCH   9  15
TORSDOF 3
