REMARK  Name = ZINC15240557
REMARK  10 active torsions:
REMARK  status: ('A' for Active; 'I' for Inactive)
REMARK    1  A    between atoms: C_1  and  C_2
REMARK    2  A    between atoms: C_5  and  C_8
REMARK    3  A    between atoms: C_8  and  C_10
REMARK    4  A    between atoms: C_8  and  O_16
REMARK    5  A    between atoms: O_16  and  C_17
REMARK    6  A    between atoms: C_17  and  C_18
REMARK    7  A    between atoms: C_18  and  C_20
REMARK    8  A    between atoms: C_18  and  O_35
REMARK    9  A    between atoms: C_20  and  N_21
REMARK   10  A    between atoms: C_28  and  N_32
REMARK                            x       y       z     vdW  Elec       q    Type
REMARK                         _______ _______ _______ _____ _____    ______ ____
ROOT
ATOM      1  C   UNL     1      -2.279  -6.462   1.890  0.00  0.00    +0.158 C 
ENDROOT
BRANCH   1   2
ATOM      2  O   UNL     1      -3.372  -5.550   2.016  0.00  0.00    -0.388 OA
ATOM      3  H   UNL     1      -3.936  -5.502   1.232  0.00  0.00    +0.210 HD
ENDBRANCH   1   2
BRANCH   1   4
ATOM      4  C   UNL     1      -1.390  -6.034   0.721  0.00  0.00    +0.194 C 
BRANCH   4   5
ATOM      5  O   UNL     1      -0.795  -4.768   1.013  0.00  0.00    -0.365 OA
BRANCH   5   6
ATOM      6  C   UNL     1       0.059  -4.275  -0.021  0.00  0.00    +0.178 C 
BRANCH   6  11
ATOM      7  C   UNL     1      -0.018   1.503   0.010  0.00  0.00    +0.044 C 
ATOM      8  C   UNL     1       0.002  -0.004   0.002  0.00  0.00    -0.050 A 
ATOM      9  C   UNL     1       0.006  -0.689  -1.199  0.00  0.00    +0.004 A 
ATOM     10  C   UNL     1       0.025  -2.071  -1.206  0.00  0.00    +0.007 A 
ATOM     11  C   UNL     1       0.040  -2.768  -0.013  0.00  0.00    -0.014 A 
ATOM     12  C   UNL     1       0.037  -2.084   1.188  0.00  0.00    +0.007 A 
ATOM     13  C   UNL     1       0.023  -0.702   1.195  0.00  0.00    +0.004 A 
ENDBRANCH   6  11
BRANCH   6  14
ATOM     14  C   UNL     1       1.466  -4.761   0.215  0.00  0.00    -0.015 A 
ATOM     15  C   UNL     1       1.942  -4.899   1.505  0.00  0.00    +0.006 A 
ATOM     16  C   UNL     1       3.233  -5.345   1.722  0.00  0.00    +0.000 A 
ATOM     17  C   UNL     1       4.047  -5.652   0.648  0.00  0.00    +0.000 A 
ATOM     18  C   UNL     1       3.571  -5.514  -0.642  0.00  0.00    +0.000 A 
ATOM     19  C   UNL     1       2.279  -5.073  -0.859  0.00  0.00    +0.006 A 
ENDBRANCH   6  14
ENDBRANCH   5   6
ENDBRANCH   4   5
ENDBRANCH   1   4
BRANCH   1  20
ATOM     20  C   UNL     1      -2.817  -7.871   1.633  0.00  0.00    +0.150 C 
BRANCH  20  21
ATOM     21  N   UNL     1      -3.668  -8.280   2.753  0.00  0.00    -0.231 N 
ATOM     22  C   UNL     1      -3.225  -8.919   3.852  0.00  0.00    +0.254 C 
ATOM     23  O   UNL     1      -2.075  -9.243   4.068  0.00  0.00    -0.270 OA
ATOM     24  C   UNL     1      -4.373  -9.161   4.751  0.00  0.00    +0.052 A 
ATOM     25  C   UNL     1      -4.522  -9.762   5.990  0.00  0.00    +0.014 A 
ATOM     26  C   UNL     1      -5.776  -9.826   6.577  0.00  0.00    +0.003 A 
ATOM     27  C   UNL     1      -6.879  -9.296   5.933  0.00  0.00    +0.033 A 
ATOM     28  C   UNL     1      -6.745  -8.691   4.693  0.00  0.00    +0.139 A 
ATOM     29  C   UNL     1      -5.497  -8.619   4.095  0.00  0.00    +0.080 A 
ATOM     30  C   UNL     1      -4.993  -8.062   2.822  0.00  0.00    +0.256 C 
ATOM     31  O   UNL     1      -5.664  -7.503   1.978  0.00  0.00    -0.269 OA
BRANCH  28  32
ATOM     32  N   UNL     1      -7.930  -8.125   4.011  0.00  0.00    +0.057 N 
ATOM     33  O   UNL     1      -9.018  -8.189   4.535  0.00  0.00    -0.126 OA
ATOM     34  O   UNL     1      -7.811  -7.598   2.929  0.00  0.00    -0.126 OA
ENDBRANCH  28  32
ENDBRANCH  20  21
ENDBRANCH   1  20
TORSDOF 9
