REMARK  Name = ZINC38671611
REMARK  8 active torsions:
REMARK  status: ('A' for Active; 'I' for Inactive)
REMARK    1  A    between atoms: C_1  and  N_2
REMARK    2  A    between atoms: C_9  and  C_11
REMARK    3  A    between atoms: C_11  and  C_13
REMARK    4  A    between atoms: C_11  and  N_32
REMARK    5  A    between atoms: C_13  and  N_14
REMARK    6  A    between atoms: C_15  and  C_17
REMARK    7  A    between atoms: C_20  and  S_23
REMARK    8  A    between atoms: S_23  and  N_26
REMARK                            x       y       z     vdW  Elec       q    Type
REMARK                         _______ _______ _______ _____ _____    ______ ____
ROOT
ATOM      1  C   UNL     1       1.534  -3.785   4.662  0.00  0.00    +0.094 C 
ENDROOT
BRANCH   1   2
ATOM      2  N   UNL     1       2.370  -4.419   3.640  0.00  0.00    -0.313 N 
ATOM      3  C   UNL     1       3.683  -4.618   3.871  0.00  0.00    +0.244 C 
ATOM      4  O   UNL     1       4.173  -4.270   4.928  0.00  0.00    -0.270 OA
ATOM      5  H   UNL     1       1.979  -4.697   2.797  0.00  0.00    +0.149 HD
BRANCH   3   6
ATOM      6  C   UNL     1       4.527  -5.258   2.840  0.00  0.00    +0.037 A 
ATOM      7  C   UNL     1       3.969  -5.652   1.623  0.00  0.00    +0.015 A 
ATOM      8  C   UNL     1       4.762  -6.248   0.665  0.00  0.00    +0.029 A 
ATOM      9  C   UNL     1       6.108  -6.456   0.908  0.00  0.00    +0.106 A 
ATOM     10  C   UNL     1       6.668  -6.067   2.112  0.00  0.00    +0.029 A 
ATOM     11  C   UNL     1       5.887  -5.464   3.076  0.00  0.00    +0.015 A 
BRANCH   9  12
ATOM     12  S   UNL     1       7.114  -7.218  -0.321  0.00  0.00    +0.061 S 
ATOM     13  O   UNL     1       8.221  -7.795   0.359  0.00  0.00    -0.153 OA
ATOM     14  O   UNL     1       6.242  -7.983  -1.142  0.00  0.00    -0.153 OA
BRANCH  12  15
ATOM     15  N   UNL     1       7.723  -6.009  -1.275  0.00  0.00    -0.177 NA
ATOM     16  C   UNL     1       6.991  -5.554  -2.465  0.00  0.00    +0.109 C 
ATOM     17  C   UNL     1       6.807  -4.036  -2.380  0.00  0.00    +0.017 C 
ATOM     18  C   UNL     1       8.171  -3.370  -2.189  0.00  0.00    +0.003 C 
ATOM     19  C   UNL     1       8.798  -3.855  -0.879  0.00  0.00    +0.017 C 
ATOM     20  C   UNL     1       9.002  -5.367  -0.944  0.00  0.00    +0.109 C 
ENDBRANCH  12  15
ENDBRANCH   9  12
ENDBRANCH   3   6
ENDBRANCH   1   2
BRANCH   1  21
ATOM     21  C   UNL     1       0.128  -3.561   4.103  0.00  0.00    -0.020 C 
BRANCH  21  30
ATOM     22  C   UNL     1       0.472   1.331  -0.510  0.00  0.00    +0.129 C 
ATOM     23  N   UNL     1       0.376  -0.127  -0.402  0.00  0.00    -0.332 N 
ATOM     24  C   UNL     1       0.327  -1.052  -1.537  0.00  0.00    +0.109 C 
ATOM     25  C   UNL     1       0.229  -2.453  -0.912  0.00  0.00    +0.056 C 
ATOM     26  C   UNL     1       0.230  -2.204   0.580  0.00  0.00    -0.025 A 
ATOM     27  C   UNL     1       0.323  -0.838   0.798  0.00  0.00    +0.033 A 
ATOM     28  C   UNL     1       0.347  -0.362   2.111  0.00  0.00    +0.023 A 
ATOM     29  C   UNL     1       0.284  -1.242   3.171  0.00  0.00    +0.004 A 
ATOM     30  C   UNL     1       0.196  -2.602   2.942  0.00  0.00    -0.059 A 
ATOM     31  C   UNL     1       0.162  -3.081   1.645  0.00  0.00    +0.007 A 
ENDBRANCH  21  30
BRANCH  21  32
ATOM     32  N   UNL     1      -0.733  -2.998   5.152  0.00  0.00    +0.385 N 
ATOM     33  C   UNL     1      -0.837  -3.953   6.262  0.00  0.00    -0.078 C 
ATOM     34  C   UNL     1      -1.665  -3.339   7.392  0.00  0.00    -0.019 C 
ATOM     35  C   UNL     1      -3.066  -3.007   6.869  0.00  0.00    -0.004 C 
ATOM     36  C   UNL     1      -2.941  -2.069   5.665  0.00  0.00    -0.019 C 
ATOM     37  C   UNL     1      -2.066  -2.730   4.599  0.00  0.00    -0.078 C 
ATOM     38  H   UNL     1      -0.330  -2.136   5.489  0.00  0.00    -0.081 HD
ENDBRANCH  21  32
ENDBRANCH   1  21
TORSDOF 7
