REMARK  Name = ZINC18262907
REMARK  10 active torsions:
REMARK  status: ('A' for Active; 'I' for Inactive)
REMARK    1  A    between atoms: C_1  and  C_2
REMARK    2  A    between atoms: C_2  and  C_4
REMARK    3  A    between atoms: C_2  and  S_20
REMARK    4  A    between atoms: C_10  and  C_15
REMARK    5  A    between atoms: S_20  and  C_21
REMARK    6  A    between atoms: C_24  and  C_26
REMARK    7  A    between atoms: C_28  and  O_34
REMARK    8  A    between atoms: C_30  and  O_32
REMARK    9  A    between atoms: O_32  and  C_33
REMARK   10  A    between atoms: O_34  and  C_35
REMARK                            x       y       z     vdW  Elec       q    Type
REMARK                         _______ _______ _______ _____ _____    ______ ____
ROOT
ATOM      1  C   UNL     1      -6.296  -1.802  -1.286  0.00  0.00    +0.027 C 
ATOM      2  C   UNL     1      -6.769  -1.174   0.027  0.00  0.00    +0.119 C 
ENDROOT
BRANCH   2   3
ATOM      3  C   UNL     1      -8.261  -1.343   0.156  0.00  0.00    +0.124 A 
ATOM      4  N   UNL     1      -9.083  -0.341  -0.247  0.00  0.00    -0.309 N 
ATOM      5  H   UNL     1      -8.699   0.471  -0.614  0.00  0.00    +0.170 HD
ATOM      6  C   UNL     1     -10.421  -0.453  -0.149  0.00  0.00    +0.260 A 
ATOM      7  O   UNL     1     -11.146   0.456  -0.516  0.00  0.00    -0.267 OA
ATOM      8  C   UNL     1     -10.979  -1.654   0.392  0.00  0.00    +0.083 A 
ATOM      9  C   UNL     1     -12.379  -2.010   0.598  0.00  0.00    +0.039 A 
ATOM     10  C   UNL     1     -12.670  -3.223   1.134  0.00  0.00    +0.059 A 
ATOM     11  S   UNL     1     -11.066  -3.956   1.391  0.00  0.00    -0.076 S 
ATOM     12  C   UNL     1     -10.052  -2.634   0.782  0.00  0.00    +0.116 A 
ATOM     13  N   UNL     1      -8.740  -2.454   0.649  0.00  0.00    -0.225 NA
BRANCH   9  14
ATOM     14  C   UNL     1     -13.457  -1.070   0.232  0.00  0.00    +0.136 A 
ATOM     15  C   UNL     1     -14.549  -1.363  -0.524  0.00  0.00    +0.050 A 
ATOM     16  C   UNL     1     -15.309  -0.178  -0.617  0.00  0.00    +0.042 A 
ATOM     17  C   UNL     1     -14.646   0.770   0.071  0.00  0.00    +0.196 A 
ATOM     18  O   UNL     1     -13.527   0.229   0.584  0.00  0.00    -0.463 OA
ENDBRANCH   9  14
ENDBRANCH   2   3
BRANCH   2  19
ATOM     19  S   UNL     1      -6.359   0.589   0.034  0.00  0.00    -0.055 S 
BRANCH  19  20
ATOM     20  C   UNL     1      -4.599   0.494   0.027  0.00  0.00    +0.278 A 
ATOM     21  N   UNL     1      -3.880  -0.605   0.017  0.00  0.00    -0.101 NA
ATOM     22  N   UNL     1      -2.631  -0.299   0.008  0.00  0.00    -0.106 NA
ATOM     23  C   UNL     1      -2.501   1.005   0.020  0.00  0.00    +0.249 A 
ATOM     24  O   UNL     1      -3.745   1.535   0.029  0.00  0.00    -0.411 OA
BRANCH  23  25
ATOM     25  C   UNL     1      -1.230   1.758   0.017  0.00  0.00    +0.045 A 
ATOM     26  C   UNL     1      -0.013   1.076   0.008  0.00  0.00    +0.059 A 
ATOM     27  C   UNL     1       1.177   1.786   0.000  0.00  0.00    +0.124 A 
ATOM     28  C   UNL     1       1.159   3.173   0.008  0.00  0.00    +0.091 A 
ATOM     29  C   UNL     1      -0.049   3.855   0.022  0.00  0.00    +0.124 A 
ATOM     30  C   UNL     1      -1.243   3.154   0.029  0.00  0.00    +0.059 A 
BRANCH  29  31
ATOM     31  O   UNL     1      -0.061   5.214   0.030  0.00  0.00    -0.495 OA
ATOM     32  C   UNL     1       1.207   5.874   0.022  0.00  0.00    +0.277 C 
ENDBRANCH  29  31
BRANCH  27  33
ATOM     33  O   UNL     1       2.363   1.122  -0.014  0.00  0.00    -0.495 OA
ATOM     34  C   UNL     1       3.550   1.917  -0.021  0.00  0.00    +0.277 C 
ENDBRANCH  27  33
ENDBRANCH  23  25
ENDBRANCH  19  20
ENDBRANCH   2  19
TORSDOF 7
