REMARK  Name = ZINC31783354
REMARK  9 active torsions:
REMARK  status: ('A' for Active; 'I' for Inactive)
REMARK    1  A    between atoms: C_1  and  C_2
REMARK    2  A    between atoms: C_3  and  C_27
REMARK    3  A    between atoms: N_9  and  C_12
REMARK    4  A    between atoms: C_12  and  C_13
REMARK    5  A    between atoms: N_15  and  N_16
REMARK    6  A    between atoms: C_17  and  C_18
REMARK    7  A    between atoms: C_21  and  C_24
REMARK    8  A    between atoms: C_24  and  C_25
REMARK    9  A    between atoms: C_24  and  C_26
REMARK                            x       y       z     vdW  Elec       q    Type
REMARK                         _______ _______ _______ _____ _____    ______ ____
ROOT
ATOM      1  C   UNL     1      -4.712  14.200   4.981  0.00  0.00    +0.052 C 
ATOM      2  C   UNL     1      -3.762  13.033   4.913  0.00  0.00    -0.003 A 
ATOM      3  C   UNL     1      -3.938  11.841   4.292  0.00  0.00    +0.007 A 
ATOM      4  C   UNL     1      -2.871  10.850   4.360  0.00  0.00    +0.080 A 
ATOM      5  C   UNL     1      -1.735  11.247   5.084  0.00  0.00    +0.116 A 
ATOM      6  S   UNL     1      -2.136  12.887   5.629  0.00  0.00    -0.073 S 
ATOM      7  N   UNL     1      -0.681  10.449   5.232  0.00  0.00    -0.230 NA
ATOM      8  C   UNL     1      -0.662   9.255   4.704  0.00  0.00    +0.203 A 
ATOM      9  N   UNL     1      -1.716   8.788   3.987  0.00  0.00    -0.290 N 
ATOM     10  C   UNL     1      -2.815   9.538   3.790  0.00  0.00    +0.263 A 
ATOM     11  O   UNL     1      -3.751   9.106   3.139  0.00  0.00    -0.267 OA
ENDROOT
BRANCH   3  12
ATOM     12  C   UNL     1      -5.193  11.551   3.558  0.00  0.00    -0.016 A 
ATOM     13  C   UNL     1      -6.043  10.537   3.999  0.00  0.00    +0.008 A 
ATOM     14  C   UNL     1      -7.212  10.274   3.315  0.00  0.00    +0.001 A 
ATOM     15  C   UNL     1      -7.537  11.007   2.188  0.00  0.00    +0.000 A 
ATOM     16  C   UNL     1      -6.695  12.011   1.743  0.00  0.00    +0.001 A 
ATOM     17  C   UNL     1      -5.525  12.286   2.422  0.00  0.00    +0.008 A 
ENDBRANCH   3  12
BRANCH   9  18
ATOM     18  C   UNL     1      -1.652   7.442   3.411  0.00  0.00    +0.223 C 
BRANCH  18  19
ATOM     19  C   UNL     1      -2.201   6.446   4.400  0.00  0.00    +0.252 C 
ATOM     20  O   UNL     1      -2.606   6.823   5.479  0.00  0.00    -0.272 OA
ATOM     21  N   UNL     1      -2.243   5.136   4.084  0.00  0.00    -0.206 N 
ATOM     22  H   UNL     1      -1.876   4.794   3.105  0.00  0.00    +0.177 HD
BRANCH  21  23
ATOM     23  N   UNL     1      -2.753   4.210   5.003  0.00  0.00    -0.188 NA
ATOM     24  C   UNL     1      -2.677   2.939   4.754  0.00  0.00    +0.138 C 
BRANCH  24  25
ATOM     25  C   UNL     1      -1.620   2.424   3.864  0.00  0.00    -0.005 A 
ATOM     26  C   UNL     1      -0.526   3.228   3.535  0.00  0.00    +0.010 A 
ATOM     27  C   UNL     1       0.459   2.740   2.702  0.00  0.00    +0.004 A 
ATOM     28  C   UNL     1       0.366   1.456   2.194  0.00  0.00    -0.045 A 
ATOM     29  C   UNL     1      -0.717   0.656   2.511  0.00  0.00    +0.004 A 
ATOM     30  C   UNL     1      -1.707   1.129   3.347  0.00  0.00    +0.010 A 
BRANCH  28  31
ATOM     31  C   UNL     1       1.446   0.930   1.284  0.00  0.00    +0.013 C 
ATOM     32  C   UNL     1       0.838   0.563  -0.071  0.00  0.00    +0.012 C 
ATOM     33  C   UNL     1       2.080  -0.313   1.912  0.00  0.00    +0.012 C 
ENDBRANCH  28  31
ENDBRANCH  24  25
ENDBRANCH  21  23
ENDBRANCH  18  19
ENDBRANCH   9  18
TORSDOF 6
