REMARK  Name = ZINC08995000
REMARK  4 active torsions:
REMARK  status: ('A' for Active; 'I' for Inactive)
REMARK    1  A    between atoms: C_1  and  C_2
REMARK    2  A    between atoms: C_5  and  C_8
REMARK    3  A    between atoms: C_8  and  C_10
REMARK    4  A    between atoms: C_32  and  C_37
REMARK                            x       y       z     vdW  Elec       q    Type
REMARK                         _______ _______ _______ _____ _____    ______ ____
ROOT
ATOM      1  C   UNL     1       3.637   3.662  -0.013  0.00  0.00    +0.066 C 
ATOM      2  C   UNL     1       3.715   4.218  -1.455  0.00  0.00    -0.055 C 
ATOM      3  C   UNL     1       3.074   3.208  -2.422  0.00  0.00    -0.016 C 
ATOM      4  C   UNL     1       4.220   2.278  -2.868  0.00  0.00    -0.020 C 
ATOM      5  C   UNL     1       5.463   2.777  -2.106  0.00  0.00    -0.076 C 
ATOM      6  C   UNL     1       5.859   4.546  -0.510  0.00  0.00    +0.060 C 
ATOM      7  C   UNL     1       4.913   4.217   0.644  0.00  0.00    +0.085 C 
ATOM      8  C   UNL     1       4.608   5.422   1.488  0.00  0.00    -0.011 A 
ATOM      9  C   UNL     1       4.057   6.655   1.215  0.00  0.00    +0.006 A 
ATOM     10  C   UNL     1       3.898   7.581   2.230  0.00  0.00    +0.000 A 
ATOM     11  C   UNL     1       4.293   7.267   3.518  0.00  0.00    +0.002 A 
ATOM     12  C   UNL     1       4.845   6.033   3.795  0.00  0.00    +0.023 A 
ATOM     13  C   UNL     1       5.009   5.095   2.779  0.00  0.00    +0.038 A 
ATOM     14  N   UNL     1       5.533   3.800   2.808  0.00  0.00    -0.285 N 
ATOM     15  C   UNL     1       5.511   3.216   1.595  0.00  0.00    +0.228 C 
ATOM     16  O   UNL     1       5.897   2.099   1.322  0.00  0.00    -0.275 OA
ATOM     17  C   UNL     1       7.163   3.804  -0.380  0.00  0.00    -0.026 A 
ATOM     18  C   UNL     1       7.486   2.467  -0.323  0.00  0.00    +0.004 A 
ATOM     19  C   UNL     1       8.808   2.079  -0.198  0.00  0.00    +0.001 A 
ATOM     20  C   UNL     1       9.803   3.038  -0.132  0.00  0.00    +0.005 A 
ATOM     21  C   UNL     1       9.483   4.379  -0.189  0.00  0.00    -0.029 A 
ATOM     22  C   UNL     1       8.154   4.777  -0.314  0.00  0.00    +0.039 A 
ATOM     23  N   UNL     1       7.586   6.050  -0.390  0.00  0.00    -0.286 N 
ATOM     24  C   UNL     1       6.246   6.003  -0.505  0.00  0.00    +0.212 C 
ATOM     25  O   UNL     1       5.494   6.951  -0.587  0.00  0.00    -0.277 OA
ATOM     26  C   UNL     1      10.575   5.415  -0.116  0.00  0.00    +0.045 C 
ATOM     27  H   UNL     1       5.873   3.372   3.609  0.00  0.00    +0.155 HD
ATOM     28  H   UNL     1       8.098   6.874  -0.364  0.00  0.00    +0.155 HD
ATOM     29  N   UNL     1       5.138   4.167  -1.735  0.00  0.00    +0.395 N 
ATOM     30  H   UNL     1       5.382   4.806  -2.501  0.00  0.00    -0.079 HD
ENDROOT
BRANCH   1  31
ATOM     31  C   UNL     1       3.653   2.155  -0.021  0.00  0.00    +0.166 C 
ATOM     32  O   UNL     1       4.134   1.559  -0.960  0.00  0.00    -0.292 OA
BRANCH  31  37
ATOM     33  C   UNL     1       1.430  -0.765   4.404  0.00  0.00    +0.044 C 
ATOM     34  C   UNL     1       2.013   0.000   3.244  0.00  0.00    -0.050 A 
ATOM     35  C   UNL     1       1.997   1.384   3.255  0.00  0.00    +0.004 A 
ATOM     36  C   UNL     1       2.528   2.092   2.197  0.00  0.00    +0.011 A 
ATOM     37  C   UNL     1       3.084   1.408   1.112  0.00  0.00    +0.018 A 
ATOM     38  C   UNL     1       3.097   0.009   1.109  0.00  0.00    +0.011 A 
ATOM     39  C   UNL     1       2.562  -0.684   2.173  0.00  0.00    +0.004 A 
ENDBRANCH  31  37
ENDBRANCH   1  31
TORSDOF 2
