REMARK  Name = ZINC13101090
REMARK  8 active torsions:
REMARK  status: ('A' for Active; 'I' for Inactive)
REMARK    1  A    between atoms: C_1  and  C_2
REMARK    2  A    between atoms: C_2  and  C_4
REMARK    3  A    between atoms: C_2  and  C_31
REMARK    4  A    between atoms: C_4  and  N_5
REMARK    5  A    between atoms: C_6  and  C_8
REMARK    6  A    between atoms: C_8  and  S_9
REMARK    7  A    between atoms: S_9  and  C_10
REMARK    8  A    between atoms: C_13  and  C_15
REMARK                            x       y       z     vdW  Elec       q    Type
REMARK                         _______ _______ _______ _____ _____    ______ ____
ROOT
ATOM      1  C   UNL     1      -5.136   3.196   8.371  0.00  0.00    +0.278 A 
ATOM      2  N   UNL     1      -4.590   4.346   8.042  0.00  0.00    -0.101 NA
ATOM      3  N   UNL     1      -3.896   4.198   6.969  0.00  0.00    -0.106 NA
ATOM      4  C   UNL     1      -3.970   2.951   6.570  0.00  0.00    +0.249 A 
ATOM      5  O   UNL     1      -4.761   2.292   7.447  0.00  0.00    -0.411 OA
ENDROOT
BRANCH   4   6
ATOM      6  C   UNL     1      -3.316   2.373   5.380  0.00  0.00    +0.041 A 
ATOM      7  C   UNL     1      -3.490   1.014   5.080  0.00  0.00    +0.014 A 
ATOM      8  C   UNL     1      -2.893   0.465   3.984  0.00  0.00    +0.016 A 
ATOM      9  C   UNL     1      -2.103   1.259   3.152  0.00  0.00    +0.065 A 
ATOM     10  C   UNL     1      -1.917   2.631   3.439  0.00  0.00    +0.079 A 
ATOM     11  C   UNL     1      -2.531   3.182   4.563  0.00  0.00    +0.041 A 
ATOM     12  N   UNL     1      -1.150   3.381   2.610  0.00  0.00    -0.233 NA
ATOM     13  C   UNL     1      -0.579   2.878   1.558  0.00  0.00    +0.113 A 
ATOM     14  N   UNL     1      -0.703   1.561   1.214  0.00  0.00    -0.296 N 
ATOM     15  C   UNL     1      -1.440   0.713   1.959  0.00  0.00    +0.262 A 
ATOM     16  O   UNL     1      -1.552  -0.461   1.655  0.00  0.00    -0.267 OA
ATOM     17  C   UNL     1      -0.013   1.086   0.008  0.00  0.00    +0.126 C 
ATOM     18  C   UNL     1      -0.754   1.593  -1.227  0.00  0.00    +0.022 C 
ATOM     19  C   UNL     1      -0.228   2.950  -1.663  0.00  0.00    +0.002 C 
ATOM     20  C   UNL     1      -0.503   4.030  -0.631  0.00  0.00    +0.008 C 
ATOM     21  C   UNL     1       0.260   3.764   0.664  0.00  0.00    +0.074 C 
ENDBRANCH   4   6
BRANCH   1  22
ATOM     22  S   UNL     1      -6.175   2.896   9.762  0.00  0.00    -0.056 S 
BRANCH  22  23
ATOM     23  C   UNL     1      -6.211   4.553  10.491  0.00  0.00    +0.174 C 
BRANCH  23  25
ATOM     24  N   UNL     1      -7.240   5.667  12.444  0.00  0.00    -0.314 N 
ATOM     25  C   UNL     1      -7.067   4.537  11.731  0.00  0.00    +0.223 C 
ATOM     26  O   UNL     1      -7.599   3.507  12.088  0.00  0.00    -0.275 OA
ATOM     27  H   UNL     1      -6.814   6.491  12.159  0.00  0.00    +0.149 HD
BRANCH  24  28
ATOM     28  C   UNL     1      -8.072   5.652  13.651  0.00  0.00    +0.112 C 
BRANCH  28  30
ATOM     29  C   UNL     1      -6.700   7.430  14.746  0.00  0.00    +0.014 C 
ATOM     30  C   UNL     1      -8.103   7.053  14.266  0.00  0.00    +0.033 C 
BRANCH  30  31
ATOM     31  C   UNL     1      -9.055   7.066  15.435  0.00  0.00    -0.043 A 
ATOM     32  C   UNL     1      -8.839   6.228  16.512  0.00  0.00    +0.004 A 
ATOM     33  C   UNL     1      -9.709   6.244  17.586  0.00  0.00    +0.000 A 
ATOM     34  C   UNL     1     -10.800   7.092  17.578  0.00  0.00    +0.000 A 
ATOM     35  C   UNL     1     -11.019   7.927  16.498  0.00  0.00    +0.000 A 
ATOM     36  C   UNL     1     -10.146   7.914  15.427  0.00  0.00    +0.004 A 
ENDBRANCH  30  31
ENDBRANCH  28  30
ENDBRANCH  24  28
ENDBRANCH  23  25
ENDBRANCH  22  23
ENDBRANCH   1  22
TORSDOF 7
