REMARK  Name = ZINC35852954
REMARK  10 active torsions:
REMARK  status: ('A' for Active; 'I' for Inactive)
REMARK    1  A    between atoms: C_1  and  C_2
REMARK    2  A    between atoms: C_2  and  C_3
REMARK    3  A    between atoms: C_6  and  N_9
REMARK    4  A    between atoms: N_9  and  C_10
REMARK    5  A    between atoms: N_13  and  C_16
REMARK    6  A    between atoms: C_16  and  C_17
REMARK    7  A    between atoms: C_20  and  C_23
REMARK    8  A    between atoms: C_23  and  C_24
REMARK    9  A    between atoms: C_23  and  C_25
REMARK   10  A    between atoms: C_26  and  C_28
REMARK                            x       y       z     vdW  Elec       q    Type
REMARK                         _______ _______ _______ _____ _____    ______ ____
ROOT
ATOM      1  C   UNL     1      -6.098  -2.325  -1.158  0.00  0.00    +0.078 C 
ATOM      2  C   UNL     1      -7.201  -1.271  -1.295  0.00  0.00    +0.004 C 
ATOM      3  C   UNL     1      -7.954  -1.496  -2.608  0.00  0.00    -0.077 C 
ATOM      4  N   UNL     1      -8.552  -2.837  -2.610  0.00  0.00    +0.382 N 
ATOM      5  C   UNL     1      -7.496  -3.854  -2.551  0.00  0.00    -0.077 C 
ATOM      6  C   UNL     1      -6.725  -3.720  -1.236  0.00  0.00    +0.004 C 
ATOM      7  H   UNL     1      -9.157  -2.935  -1.808  0.00  0.00    -0.081 HD
ENDROOT
BRANCH   1   8
ATOM      8  N   UNL     1      -5.423  -2.162   0.132  0.00  0.00    -0.262 N 
ATOM      9  C   UNL     1      -6.134  -2.208   1.275  0.00  0.00    +0.286 C 
ATOM     10  O   UNL     1      -7.326  -2.452   1.241  0.00  0.00    -0.266 OA
BRANCH   8  14
ATOM     11  C   UNL     1      -1.304  -1.560   0.266  0.00  0.00    -0.048 A 
ATOM     12  C   UNL     1      -2.130  -0.569  -0.232  0.00  0.00    +0.005 A 
ATOM     13  C   UNL     1      -3.496  -0.766  -0.278  0.00  0.00    +0.024 A 
ATOM     14  C   UNL     1      -4.040  -1.960   0.176  0.00  0.00    +0.037 A 
ATOM     15  C   UNL     1      -3.207  -2.954   0.675  0.00  0.00    +0.024 A 
ATOM     16  C   UNL     1      -1.841  -2.752   0.714  0.00  0.00    +0.005 A 
BRANCH  11  18
ATOM     17  C   UNL     1       0.816  -1.822  -0.996  0.00  0.00    +0.009 C 
ATOM     18  C   UNL     1       0.187  -1.342   0.314  0.00  0.00    +0.032 C 
ENDBRANCH  11  18
ENDBRANCH   8  14
BRANCH   9  19
ATOM     19  C   UNL     1      -5.473  -1.964   2.561  0.00  0.00    +0.190 A 
ATOM     20  C   UNL     1      -6.062  -2.025   3.791  0.00  0.00    +0.054 A 
ATOM     21  C   UNL     1      -5.064  -1.724   4.731  0.00  0.00    +0.042 A 
ATOM     22  C   UNL     1      -3.925  -1.495   4.043  0.00  0.00    +0.196 A 
ATOM     23  O   UNL     1      -4.173  -1.646   2.736  0.00  0.00    -0.458 OA
ENDBRANCH   9  19
ENDBRANCH   1   8
BRANCH   4  24
ATOM     24  C   UNL     1      -9.338  -3.019  -3.837  0.00  0.00    -0.043 C 
BRANCH  24  25
ATOM     25  C   UNL     1     -10.052  -4.345  -3.785  0.00  0.00    -0.064 A 
ATOM     26  C   UNL     1      -9.438  -5.481  -4.279  0.00  0.00    +0.002 A 
ATOM     27  C   UNL     1     -10.093  -6.697  -4.230  0.00  0.00    +0.004 A 
ATOM     28  C   UNL     1     -11.362  -6.778  -3.688  0.00  0.00    -0.045 A 
ATOM     29  C   UNL     1     -11.975  -5.642  -3.193  0.00  0.00    +0.004 A 
ATOM     30  C   UNL     1     -11.319  -4.427  -3.237  0.00  0.00    +0.002 A 
BRANCH  28  31
ATOM     31  C   UNL     1     -12.076  -8.104  -3.636  0.00  0.00    +0.013 C 
ATOM     32  C   UNL     1     -12.389  -8.458  -2.181  0.00  0.00    +0.012 C 
ATOM     33  C   UNL     1     -13.380  -8.012  -4.431  0.00  0.00    +0.012 C 
ENDBRANCH  28  31
ENDBRANCH  24  25
ENDBRANCH   4  24
TORSDOF 7
