REMARK  Name = ZINC38925902
REMARK  12 active torsions:
REMARK  status: ('A' for Active; 'I' for Inactive)
REMARK    1  A    between atoms: C_1  and  C_2
REMARK    2  A    between atoms: C_2  and  N_3
REMARK    3  A    between atoms: N_3  and  C_4
REMARK    4  A    between atoms: N_3  and  C_6
REMARK    5  A    between atoms: C_4  and  C_5
REMARK    6  A    between atoms: C_9  and  C_12
REMARK    7  A    between atoms: N_13  and  N_14
REMARK    8  A    between atoms: C_15  and  C_21
REMARK    9  A    between atoms: C_24  and  C_27
REMARK   10  A    between atoms: C_27  and  C_28
REMARK   11  A    between atoms: C_27  and  C_29
REMARK   12  A    between atoms: C_27  and  C_30
REMARK                            x       y       z     vdW  Elec       q    Type
REMARK                         _______ _______ _______ _____ _____    ______ ____
ROOT
ATOM      1  N   UNL     1      -5.796  -2.318   6.138  0.00  0.00    -0.172 N 
ATOM      2  C   UNL     1      -7.115  -2.946   6.339  0.00  0.00    +0.264 C 
ATOM      3  N   UNL     1      -7.225  -3.076   7.800  0.00  0.00    -0.189 NA
ATOM      4  N   UNL     1      -6.195  -2.621   8.304  0.00  0.00    -0.219 N 
ATOM      5  C   UNL     1      -5.303  -2.161   7.387  0.00  0.00    +0.174 C 
ATOM      6  S   UNL     1      -3.778  -1.478   7.759  0.00  0.00    -0.015 S 
ATOM      7  H   UNL     1      -6.036  -2.597   9.261  0.00  0.00    +0.176 HD
ENDROOT
BRANCH   2   8
ATOM      8  C   UNL     1      -8.209  -2.061   5.799  0.00  0.00    -0.002 A 
ATOM      9  C   UNL     1      -7.958  -1.228   4.726  0.00  0.00    +0.008 A 
ATOM     10  C   UNL     1      -8.962  -0.416   4.231  0.00  0.00    +0.004 A 
ATOM     11  C   UNL     1     -10.217  -0.438   4.809  0.00  0.00    -0.042 A 
ATOM     12  C   UNL     1     -10.468  -1.272   5.883  0.00  0.00    +0.004 A 
ATOM     13  C   UNL     1      -9.466  -2.087   6.375  0.00  0.00    +0.008 A 
BRANCH  11  14
ATOM     14  C   UNL     1     -11.310   0.448   4.271  0.00  0.00    -0.013 C 
ATOM     15  C   UNL     1     -11.573   0.099   2.804  0.00  0.00    +0.015 C 
ATOM     16  C   UNL     1     -12.589   0.232   5.083  0.00  0.00    +0.015 C 
ATOM     17  C   UNL     1     -10.880   1.912   4.377  0.00  0.00    +0.015 C 
ENDBRANCH  11  14
ENDBRANCH   2   8
BRANCH   1  19
ATOM     18  C   UNL     1      -4.060  -1.324   4.926  0.00  0.00    +0.138 C 
ATOM     19  N   UNL     1      -5.188  -1.969   4.926  0.00  0.00    -0.183 NA
BRANCH  18  23
ATOM     20  C   UNL     1      -2.066  -0.531   1.264  0.00  0.00    +0.030 A 
ATOM     21  C   UNL     1      -1.511  -0.098   2.464  0.00  0.00    +0.024 A 
ATOM     22  C   UNL     1      -2.155  -0.353   3.654  0.00  0.00    +0.011 A 
ATOM     23  C   UNL     1      -3.368  -1.048   3.655  0.00  0.00    -0.005 A 
ATOM     24  C   UNL     1      -3.923  -1.481   2.447  0.00  0.00    +0.011 A 
ATOM     25  C   UNL     1      -3.275  -1.217   1.260  0.00  0.00    +0.024 A 
BRANCH  20  26
ATOM     26  N   UNL     1      -1.410  -0.271   0.061  0.00  0.00    -0.330 N 
BRANCH  26  28
ATOM     27  C   UNL     1      -0.402   1.955  -0.054  0.00  0.00    +0.024 C 
ATOM     28  C   UNL     1      -0.136   0.453   0.062  0.00  0.00    +0.102 C 
ENDBRANCH  26  28
BRANCH  26  29
ATOM     29  C   UNL     1      -1.996  -0.721  -1.205  0.00  0.00    +0.102 C 
ATOM     30  C   UNL     1      -1.490  -2.128  -1.529  0.00  0.00    +0.024 C 
ENDBRANCH  26  29
ENDBRANCH  20  26
ENDBRANCH  18  23
ENDBRANCH   1  19
TORSDOF 7
