REMARK  Name = ZINC35712007
REMARK  11 active torsions:
REMARK  status: ('A' for Active; 'I' for Inactive)
REMARK    1  A    between atoms: C_1  and  C_2
REMARK    2  A    between atoms: C_2  and  C_3
REMARK    3  A    between atoms: C_3  and  N_4
REMARK    4  A    between atoms: C_5  and  C_37
REMARK    5  A    between atoms: C_6  and  C_32
REMARK    6  A    between atoms: C_7  and  C_12
REMARK    7  A    between atoms: C_16  and  N_18
REMARK    8  A    between atoms: N_21  and  C_22
REMARK    9  A    between atoms: C_32  and  O_34
REMARK   10  A    between atoms: O_34  and  C_35
REMARK   11  A    between atoms: C_35  and  C_36
REMARK                            x       y       z     vdW  Elec       q    Type
REMARK                         _______ _______ _______ _____ _____    ______ ____
ROOT
ATOM      1  C   UNL     1       0.331  -5.917  -0.599  0.00  0.00    -0.021 A 
ATOM      2  C   UNL     1      -0.528  -5.579   0.431  0.00  0.00    +0.006 A 
ATOM      3  C   UNL     1      -1.146  -6.568   1.173  0.00  0.00    +0.002 A 
ATOM      4  C   UNL     1      -0.908  -7.898   0.886  0.00  0.00    +0.023 A 
ATOM      5  C   UNL     1      -0.047  -8.241  -0.147  0.00  0.00    +0.035 A 
ATOM      6  C   UNL     1       0.569  -7.245  -0.893  0.00  0.00    +0.029 A 
ENDROOT
BRANCH   1  10
ATOM      7  N   UNL     1       1.227  -2.172  -0.691  0.00  0.00    -0.259 N 
ATOM      8  C   UNL     1       2.227  -3.017  -0.300  0.00  0.00    +0.024 C 
ATOM      9  C   UNL     1       2.190  -4.330  -0.610  0.00  0.00    +0.078 C 
ATOM     10  C   UNL     1       1.003  -4.835  -1.405  0.00  0.00    +0.144 C 
ATOM     11  N   UNL     1      -0.021  -3.844  -1.776  0.00  0.00    -0.288 N 
ATOM     12  C   UNL     1       0.154  -2.565  -1.389  0.00  0.00    +0.307 C 
ATOM     13  O   UNL     1      -0.688  -1.740  -1.687  0.00  0.00    -0.252 OA
ATOM     14  C   UNL     1       3.390  -2.473   0.489  0.00  0.00    +0.061 C 
ATOM     15  H   UNL     1      -0.804  -4.106  -2.284  0.00  0.00    +0.151 HD
BRANCH   9  16
ATOM     16  C   UNL     1       3.226  -5.206  -0.207  0.00  0.00    +0.339 C 
ATOM     17  O   UNL     1       4.170  -4.778   0.430  0.00  0.00    -0.245 OA
BRANCH  16  18
ATOM     18  O   UNL     1       3.167  -6.515  -0.529  0.00  0.00    -0.462 OA
BRANCH  18  19
ATOM     19  C   UNL     1       4.247  -7.341  -0.090  0.00  0.00    +0.229 C 
ATOM     20  C   UNL     1       4.005  -8.781  -0.546  0.00  0.00    +0.048 C 
ENDBRANCH  18  19
ENDBRANCH  16  18
ENDBRANCH   9  16
BRANCH   7  21
ATOM     21  C   UNL     1       1.331  -0.759  -0.320  0.00  0.00    +0.114 C 
BRANCH  21  23
ATOM     22  C   UNL     1       2.299   1.453  -0.963  0.00  0.00    +0.005 C 
ATOM     23  C   UNL     1       2.190  -0.023  -1.350  0.00  0.00    +0.016 C 
ENDBRANCH  21  23
ENDBRANCH   7  21
ENDBRANCH   1  10
BRANCH   5  24
ATOM     24  N   UNL     1       0.197  -9.588  -0.439  0.00  0.00    -0.269 N 
ATOM     25  C   UNL     1       0.200 -10.502   0.551  0.00  0.00    +0.304 C 
ATOM     26  O   UNL     1       0.088 -10.146   1.708  0.00  0.00    -0.252 OA
ATOM     27  N   UNL     1       0.328 -11.812   0.258  0.00  0.00    -0.294 N 
ATOM     28  H   UNL     1       0.363  -9.863  -1.354  0.00  0.00    +0.156 HD
ATOM     29  H   UNL     1       0.417 -12.096  -0.665  0.00  0.00    +0.151 HD
BRANCH  27  30
ATOM     30  C   UNL     1       0.331 -12.806   1.334  0.00  0.00    +0.037 C 
ATOM     31  C   UNL     1       1.496 -12.524   2.285  0.00  0.00    +0.029 C 
ATOM     32  C   UNL     1       1.500 -13.563   3.409  0.00  0.00    -0.008 C 
ATOM     33  C   UNL     1       1.657 -14.962   2.810  0.00  0.00    +0.007 C 
ATOM     34  C   UNL     1       0.492 -15.243   1.859  0.00  0.00    -0.008 C 
ATOM     35  C   UNL     1       0.488 -14.205   0.736  0.00  0.00    +0.029 C 
ATOM     36  C   UNL     1      -0.827 -15.164   2.631  0.00  0.00    +0.007 C 
ATOM     37  C   UNL     1      -0.984 -13.765   3.230  0.00  0.00    -0.008 C 
ATOM     38  C   UNL     1       0.181 -13.483   4.181  0.00  0.00    +0.007 C 
ATOM     39  C   UNL     1      -0.988 -12.727   2.106  0.00  0.00    +0.029 C 
ENDBRANCH  27  30
ENDBRANCH   5  24
TORSDOF 8
