REMARK  Name = ZINC09593239
REMARK  10 active torsions:
REMARK  status: ('A' for Active; 'I' for Inactive)
REMARK    1  A    between atoms: C_1  and  C_2
REMARK    2  A    between atoms: C_5  and  C_8
REMARK    3  A    between atoms: C_8  and  N_9
REMARK    4  A    between atoms: C_11  and  C_15
REMARK    5  A    between atoms: C_12  and  C_14
REMARK    6  A    between atoms: N_17  and  C_18
REMARK    7  A    between atoms: C_18  and  C_19
REMARK    8  A    between atoms: C_19  and  N_20
REMARK    9  A    between atoms: N_20  and  C_21
REMARK   10  A    between atoms: C_24  and  C_26
REMARK                            x       y       z     vdW  Elec       q    Type
REMARK                         _______ _______ _______ _____ _____    ______ ____
ROOT
ATOM      1  C   UNL     1       1.835  -1.815  -0.025  0.00  0.00    +0.249 C 
ATOM      2  O   UNL     1       2.025  -2.384  -1.082  0.00  0.00    -0.270 OA
ATOM      3  N   UNL     1       2.068  -2.457   1.137  0.00  0.00    -0.310 N 
ATOM      4  H   UNL     1       1.917  -2.003   1.981  0.00  0.00    +0.149 HD
ENDROOT
BRANCH   1   7
ATOM      5  N   UNL     1       1.301   1.772  -0.001  0.00  0.00    -0.248 N 
ATOM      6  C   UNL     1       2.133   0.717  -0.015  0.00  0.00    +0.140 A 
ATOM      7  C   UNL     1       1.352  -0.424  -0.013  0.00  0.00    +0.096 A 
ATOM      8  C   UNL     1       0.002  -0.004   0.002  0.00  0.00    +0.074 A 
ATOM      9  N   UNL     1      -0.016   1.300   0.009  0.00  0.00    -0.174 NA
ATOM     10  C   UNL     1      -1.205  -0.906   0.008  0.00  0.00    +0.068 C 
ATOM     11 CL   UNL     1       3.868   0.775  -0.031  0.00  0.00    -0.062 Cl
BRANCH   5  12
ATOM     12  C   UNL     1       1.706   3.181   0.002  0.00  0.00    +0.180 C 
BRANCH  12  17
ATOM     13  C   UNL     1       2.290   5.004   5.455  0.00  0.00    +0.044 C 
ATOM     14  C   UNL     1       2.138   4.529   4.033  0.00  0.00    -0.050 A 
ATOM     15  C   UNL     1       3.219   3.980   3.368  0.00  0.00    +0.004 A 
ATOM     16  C   UNL     1       3.079   3.544   2.063  0.00  0.00    +0.006 A 
ATOM     17  C   UNL     1       1.858   3.656   1.424  0.00  0.00    -0.026 A 
ATOM     18  C   UNL     1       0.779   4.210   2.087  0.00  0.00    +0.006 A 
ATOM     19  C   UNL     1       0.918   4.642   3.393  0.00  0.00    +0.004 A 
ENDBRANCH  12  17
ENDBRANCH   5  12
ENDBRANCH   1   7
BRANCH   3  20
ATOM     20  C   UNL     1       2.549  -3.841   1.126  0.00  0.00    +0.123 C 
BRANCH  20  21
ATOM     21  C   UNL     1       2.730  -4.329   2.565  0.00  0.00    +0.121 C 
BRANCH  21  22
ATOM     22  N   UNL     1       3.211  -5.713   2.553  0.00  0.00    -0.328 N 
ATOM     23  H   UNL     1       3.362  -6.167   1.710  0.00  0.00    +0.147 HD
BRANCH  22  24
ATOM     24  C   UNL     1       3.451  -6.376   3.752  0.00  0.00    +0.115 A 
ATOM     25  C   UNL     1       3.903  -7.693   3.735  0.00  0.00    +0.079 A 
ATOM     26  C   UNL     1       4.143  -8.338   4.935  0.00  0.00    +0.037 A 
ATOM     27  C   UNL     1       3.911  -7.645   6.117  0.00  0.00    +0.072 A 
ATOM     28  C   UNL     1       3.458  -6.343   6.060  0.00  0.00    +0.096 A 
ATOM     29 CL   UNL     1       4.167  -8.512   2.227  0.00  0.00    -0.080 Cl
ATOM     30  N   UNL     1       3.217  -5.676   4.899  0.00  0.00    -0.348 N 
ATOM     31  H   UNL     1       2.880  -4.706   4.888  0.00  0.00    +0.167 HD
BRANCH  27  32
ATOM     32  C   UNL     1       4.154  -8.309   7.448  0.00  0.00    +0.419 C 
ATOM     33  F   UNL     1       3.851  -7.413   8.478  0.00  0.00    -0.166 F 
ATOM     34  F   UNL     1       3.338  -9.441   7.559  0.00  0.00    -0.166 F 
ATOM     35  F   UNL     1       5.496  -8.691   7.541  0.00  0.00    -0.166 F 
ENDBRANCH  27  32
ENDBRANCH  22  24
ENDBRANCH  21  22
ENDBRANCH  20  21
ENDBRANCH   3  20
TORSDOF 8
