REMARK  Name = ZINC55054263
REMARK  6 active torsions:
REMARK  status: ('A' for Active; 'I' for Inactive)
REMARK    1  A    between atoms: C_3  and  N_7
REMARK    2  A    between atoms: C_11  and  C_12
REMARK    3  A    between atoms: C_12  and  N_13
REMARK    4  A    between atoms: C_20  and  C_24
REMARK    5  A    between atoms: C_24  and  N_25
REMARK    6  A    between atoms: N_28  and  C_31
REMARK                            x       y       z     vdW  Elec       q    Type
REMARK                         _______ _______ _______ _____ _____    ______ ____
ROOT
ATOM      1  N   UNL     1       3.929   1.126   2.987  0.00  0.00    -0.289 NA
ATOM      2  C   UNL     1       4.586   2.387   3.318  0.00  0.00    +0.126 C 
ATOM      3  C   UNL     1       3.736   3.310   4.165  0.00  0.00    +0.244 C 
ATOM      4  O   UNL     1       3.495   2.736   5.456  0.00  0.00    -0.490 OA
ATOM      5  C   UNL     1       2.434   1.886   5.526  0.00  0.00    +0.125 A 
ATOM      6  C   UNL     1       1.300   2.244   6.242  0.00  0.00    +0.046 A 
ATOM      7  C   UNL     1       0.220   1.383   6.287  0.00  0.00    +0.005 A 
ATOM      8  C   UNL     1       0.267   0.171   5.622  0.00  0.00    -0.063 A 
ATOM      9  C   UNL     1       1.401  -0.189   4.916  0.00  0.00    +0.010 A 
ATOM     10  C   UNL     1       2.484   0.666   4.881  0.00  0.00    +0.008 A 
ATOM     11  C   UNL     1       3.753   0.258   4.157  0.00  0.00    +0.123 C 
ENDROOT
BRANCH   1  12
ATOM     12  C   UNL     1       4.647   0.424   1.915  0.00  0.00    +0.138 C 
BRANCH  12  17
ATOM     13  N   UNL     1       3.724   1.368  -0.278  0.00  0.00    -0.317 N 
ATOM     14  C   UNL     1       4.120   2.268  -1.225  0.00  0.00    +0.091 A 
ATOM     15  C   UNL     1       5.325   2.755  -0.867  0.00  0.00    +0.020 A 
ATOM     16  C   UNL     1       5.689   2.134   0.345  0.00  0.00    +0.024 A 
ATOM     17  C   UNL     1       4.690   1.294   0.685  0.00  0.00    +0.038 A 
BRANCH  13  20
ATOM     18  C   UNL     1       0.142   0.543  -0.374  0.00  0.00    +0.022 A 
ATOM     19  C   UNL     1       1.301   1.303  -0.365  0.00  0.00    +0.029 A 
ATOM     20  C   UNL     1       2.524   0.643  -0.289  0.00  0.00    +0.064 A 
ATOM     21  C   UNL     1       2.538  -0.744  -0.225  0.00  0.00    +0.136 A 
ATOM     22  N   UNL     1       1.413  -1.429  -0.237  0.00  0.00    -0.261 NA
ATOM     23  C   UNL     1       0.238  -0.834  -0.307  0.00  0.00    +0.111 A 
ENDBRANCH  13  20
ENDBRANCH  12  17
ENDBRANCH   1  12
BRANCH   8  24
ATOM     24  C   UNL     1      -0.918  -0.758   5.667  0.00  0.00    -0.043 C 
BRANCH  24  25
ATOM     25  N   UNL     1      -1.897  -0.352   4.649  0.00  0.00    +0.384 N 
ATOM     26  C   UNL     1      -1.319  -0.545   3.312  0.00  0.00    -0.059 C 
ATOM     27  C   UNL     1      -2.292  -0.017   2.255  0.00  0.00    +0.086 C 
ATOM     28  N   UNL     1      -3.596  -0.670   2.452  0.00  0.00    -0.333 N 
ATOM     29  C   UNL     1      -4.175  -0.666   3.805  0.00  0.00    +0.086 C 
ATOM     30  C   UNL     1      -3.112  -1.164   4.790  0.00  0.00    -0.059 C 
ATOM     31  H   UNL     1      -2.127   0.622   4.775  0.00  0.00    -0.081 HD
BRANCH  28  32
ATOM     32  C   UNL     1      -4.265  -1.277   1.385  0.00  0.00    +0.030 A 
ATOM     33  C   UNL     1      -5.548  -1.776   1.563  0.00  0.00    +0.026 A 
ATOM     34  C   UNL     1      -6.208  -2.376   0.508  0.00  0.00    +0.040 A 
ATOM     35  C   UNL     1      -5.590  -2.479  -0.727  0.00  0.00    +0.124 A 
ATOM     36  C   UNL     1      -4.310  -1.982  -0.907  0.00  0.00    +0.040 A 
ATOM     37  C   UNL     1      -3.649  -1.377   0.145  0.00  0.00    +0.026 A 
ATOM     38  F   UNL     1      -6.236  -3.066  -1.758  0.00  0.00    -0.205 F 
ENDBRANCH  28  32
ENDBRANCH  24  25
ENDBRANCH   8  24
TORSDOF 6
