REMARK  Name = ZINC23042341
REMARK  11 active torsions:
REMARK  status: ('A' for Active; 'I' for Inactive)
REMARK    1  A    between atoms: C_1  and  O_2
REMARK    2  A    between atoms: O_2  and  C_3
REMARK    3  A    between atoms: C_5  and  C_16
REMARK    4  A    between atoms: C_6  and  N_13
REMARK    5  A    between atoms: C_7  and  O_11
REMARK    6  A    between atoms: C_8  and  O_9
REMARK    7  A    between atoms: O_9  and  C_10
REMARK    8  A    between atoms: O_11  and  C_12
REMARK    9  A    between atoms: N_18  and  C_19
REMARK   10  A    between atoms: C_19  and  C_21
REMARK   11  A    between atoms: C_19  and  C_28
REMARK                            x       y       z     vdW  Elec       q    Type
REMARK                         _______ _______ _______ _____ _____    ______ ____
ROOT
ATOM      1  C   UNL     1       2.471   1.473  -0.014  0.00  0.00    +0.247 C 
ATOM      2  O   UNL     1       2.490   0.257  -0.021  0.00  0.00    -0.270 OA
ATOM      3  N   UNL     1       3.628   2.164  -0.021  0.00  0.00    -0.300 N 
ATOM      4  H   UNL     1       3.612   3.264  -0.015  0.00  0.00    +0.150 HD
ENDROOT
BRANCH   1   7
ATOM      5  C   UNL     1      -0.049   4.259   0.025  0.00  0.00    +0.166 A 
ATOM      6  C   UNL     1       1.160   3.588   0.010  0.00  0.00    +0.065 A 
ATOM      7  C   UNL     1       1.182   2.192   0.003  0.00  0.00    +0.074 A 
ATOM      8  C   UNL     1      -0.018   1.476   0.010  0.00  0.00    +0.183 A 
ATOM      9  C   UNL     1      -1.224   2.151   0.019  0.00  0.00    +0.196 A 
ATOM     10  C   UNL     1      -1.243   3.544   0.033  0.00  0.00    +0.206 A 
BRANCH   8  11
ATOM     11  N   UNL     1       0.002  -0.004   0.002  0.00  0.00    +0.061 N 
ATOM     12  O   UNL     1       0.020  -0.619   1.053  0.00  0.00    -0.126 OA
ATOM     13  O   UNL     1       0.000  -0.607  -1.056  0.00  0.00    -0.126 OA
ENDBRANCH   8  11
BRANCH   5  15
ATOM     14  C   UNL     1       1.191   6.288   0.025  0.00  0.00    +0.277 C 
ATOM     15  O   UNL     1      -0.072   5.619   0.033  0.00  0.00    -0.491 OA
ENDBRANCH   5  15
BRANCH  10  16
ATOM     16  O   UNL     1      -2.430   4.205   0.047  0.00  0.00    -0.488 OA
ATOM     17  C   UNL     1      -3.009   4.528  -1.219  0.00  0.00    +0.277 C 
ENDBRANCH  10  16
BRANCH   9  18
ATOM     18  O   UNL     1      -2.392   1.455   0.021  0.00  0.00    -0.489 OA
ATOM     19  C   UNL     1      -2.944   1.116   1.295  0.00  0.00    +0.277 C 
ENDBRANCH   9  18
ENDBRANCH   1   7
BRANCH   3  20
ATOM     20  C   UNL     1       4.908   1.451  -0.038  0.00  0.00    +0.140 C 
BRANCH  20  21
ATOM     21  C   UNL     1       5.979   2.328   0.557  0.00  0.00    -0.022 A 
ATOM     22  C   UNL     1       6.006   3.679   0.267  0.00  0.00    +0.008 A 
ATOM     23  C   UNL     1       6.985   4.485   0.816  0.00  0.00    +0.038 A 
ATOM     24  C   UNL     1       7.946   3.937   1.649  0.00  0.00    +0.123 A 
ATOM     25  C   UNL     1       7.921   2.582   1.934  0.00  0.00    +0.038 A 
ATOM     26  C   UNL     1       6.938   1.779   1.388  0.00  0.00    +0.008 A 
ATOM     27  F   UNL     1       8.907   4.722   2.181  0.00  0.00    -0.205 F 
ENDBRANCH  20  21
BRANCH  20  28
ATOM     28  C   UNL     1       5.272   1.106  -1.459  0.00  0.00    +0.014 A 
ATOM     29  C   UNL     1       5.829  -0.029  -1.946  0.00  0.00    +0.013 A 
ATOM     30  C   UNL     1       6.078  -0.126  -3.302  0.00  0.00    +0.008 A 
ATOM     31  C   UNL     1       5.757   0.918  -4.105  0.00  0.00    +0.045 A 
ATOM     32  S   UNL     1       5.075   2.085  -2.939  0.00  0.00    -0.099 S 
ENDBRANCH  20  28
ENDBRANCH   3  20
TORSDOF 8
