REMARK  Name = ZINC35400151
REMARK  8 active torsions:
REMARK  status: ('A' for Active; 'I' for Inactive)
REMARK    1  A    between atoms: C_1  and  C_2
REMARK    2  A    between atoms: N_10  and  C_11
REMARK    3  A    between atoms: C_11  and  C_12
REMARK    4  A    between atoms: N_14  and  C_15
REMARK    5  A    between atoms: C_15  and  C_16
REMARK    6  A    between atoms: C_16  and  C_17
REMARK    7  A    between atoms: N_25  and  C_28
REMARK    8  A    between atoms: C_28  and  C_29
REMARK                            x       y       z     vdW  Elec       q    Type
REMARK                         _______ _______ _______ _____ _____    ______ ____
ROOT
ATOM      1  C   UNL     1      -0.018   1.503   0.010  0.00  0.00    +0.044 C 
ATOM      2  C   UNL     1       0.002  -0.004   0.002  0.00  0.00    -0.050 A 
ATOM      3  C   UNL     1       0.006  -0.686  -1.207  0.00  0.00    +0.005 A 
ATOM      4  C   UNL     1       0.024  -2.063  -1.235  0.00  0.00    +0.027 A 
ATOM      5  C   UNL     1       0.040  -2.781  -0.041  0.00  0.00    +0.052 A 
ATOM      6  C   UNL     1       0.037  -2.084   1.180  0.00  0.00    +0.026 A 
ATOM      7  C   UNL     1       0.023  -0.689   1.184  0.00  0.00    +0.015 A 
ATOM      8  C   UNL     1       0.055  -3.101   2.240  0.00  0.00    +0.103 A 
ATOM      9  C   UNL     1       0.069  -4.338   1.600  0.00  0.00    +0.134 A 
ATOM     10  N   UNL     1       0.059  -4.132   0.234  0.00  0.00    -0.325 N 
ATOM     11  C   UNL     1       0.088  -5.505   2.399  0.00  0.00    +0.278 A 
ATOM     12  O   UNL     1       0.101  -6.612   1.887  0.00  0.00    -0.265 OA
ATOM     13  N   UNL     1       0.093  -5.365   3.742  0.00  0.00    -0.293 N 
ATOM     14  C   UNL     1       0.079  -4.130   4.304  0.00  0.00    +0.203 A 
ATOM     15  N   UNL     1       0.061  -3.045   3.583  0.00  0.00    -0.235 NA
ENDROOT
BRANCH  10  16
ATOM     16  C   UNL     1       0.069  -5.194  -0.775  0.00  0.00    +0.218 C 
BRANCH  16  17
ATOM     17  C   UNL     1       1.492  -5.539  -1.128  0.00  0.00    +0.233 C 
ATOM     18  O   UNL     1       2.409  -4.956  -0.589  0.00  0.00    -0.274 OA
ATOM     19  N   UNL     1       1.747  -6.497  -2.042  0.00  0.00    -0.314 N 
ATOM     20  H   UNL     1       1.014  -6.963  -2.473  0.00  0.00    +0.149 HD
BRANCH  19  21
ATOM     21  C   UNL     1       3.131  -6.832  -2.384  0.00  0.00    +0.108 C 
BRANCH  21  22
ATOM     22  C   UNL     1       3.141  -7.942  -3.438  0.00  0.00    +0.049 C 
BRANCH  22  23
ATOM     23  C   UNL     1       4.565  -8.287  -3.791  0.00  0.00    -0.072 C 
ATOM     24  C   UNL     1       5.118  -9.283  -3.176  0.00  0.00    -0.028 C 
ATOM     25  C   UNL     1       6.528  -9.738  -3.411  0.00  0.00    +0.027 C 
ATOM     26  C   UNL     1       7.053  -9.168  -4.731  0.00  0.00    +0.004 C 
ATOM     27  C   UNL     1       6.767  -7.661  -4.756  0.00  0.00    +0.005 C 
ATOM     28  C   UNL     1       5.251  -7.460  -4.838  0.00  0.00    +0.030 C 
ENDBRANCH  22  23
ENDBRANCH  21  22
ENDBRANCH  19  21
ENDBRANCH  16  17
ENDBRANCH  10  16
BRANCH  13  29
ATOM     29  C   UNL     1       0.112  -6.553   4.598  0.00  0.00    +0.163 C 
BRANCH  29  30
ATOM     30  C   UNL     1       1.540  -6.943   4.885  0.00  0.00    -0.009 A 
ATOM     31  C   UNL     1       2.134  -7.966   4.170  0.00  0.00    +0.007 A 
ATOM     32  C   UNL     1       3.443  -8.323   4.433  0.00  0.00    +0.000 A 
ATOM     33  C   UNL     1       4.159  -7.657   5.411  0.00  0.00    +0.001 A 
ATOM     34  C   UNL     1       3.566  -6.634   6.125  0.00  0.00    +0.020 A 
ATOM     35  C   UNL     1       2.257  -6.272   5.859  0.00  0.00    +0.046 A 
ATOM     36 CL   UNL     1       1.514  -4.982   6.752  0.00  0.00    -0.083 Cl
ENDBRANCH  29  30
ENDBRANCH  13  29
TORSDOF 7
