REMARK  Name = ZINC16841682
REMARK  9 active torsions:
REMARK  status: ('A' for Active; 'I' for Inactive)
REMARK    1  A    between atoms: C_1  and  C_2
REMARK    2  A    between atoms: C_2  and  C_3
REMARK    3  A    between atoms: C_6  and  C_9
REMARK    4  A    between atoms: C_12  and  S_18
REMARK    5  A    between atoms: S_18  and  C_19
REMARK    6  A    between atoms: C_19  and  C_20
REMARK    7  A    between atoms: N_22  and  C_23
REMARK    8  A    between atoms: C_28  and  C_29
REMARK    9  A    between atoms: C_29  and  C_30
REMARK                            x       y       z     vdW  Elec       q    Type
REMARK                         _______ _______ _______ _____ _____    ______ ____
ROOT
ATOM      1  C   UNL     1      -0.895   1.648   6.152  0.00  0.00    +0.094 A 
ATOM      2  C   UNL     1      -1.125   1.816   4.784  0.00  0.00    +0.060 A 
ATOM      3  C   UNL     1      -0.134   1.129   4.107  0.00  0.00    +0.099 A 
ATOM      4  C   UNL     1       0.157   0.934   2.735  0.00  0.00    +0.123 A 
ATOM      5  N   UNL     1       1.201   0.203   2.391  0.00  0.00    -0.245 NA
ATOM      6  C   UNL     1       1.994  -0.349   3.316  0.00  0.00    +0.132 A 
ATOM      7  C   UNL     1       1.755  -0.190   4.633  0.00  0.00    +0.132 A 
ATOM      8  N   UNL     1       0.682   0.555   5.050  0.00  0.00    -0.235 N 
ATOM      9  N   UNL     1       0.183   0.896   6.310  0.00  0.00    -0.166 NA
ENDROOT
BRANCH   1  13
ATOM     10  C   UNL     1      -3.262   3.281   9.284  0.00  0.00    -0.048 A 
ATOM     11  C   UNL     1      -2.156   2.508   9.588  0.00  0.00    +0.004 A 
ATOM     12  C   UNL     1      -1.384   1.976   8.575  0.00  0.00    +0.010 A 
ATOM     13  C   UNL     1      -1.721   2.218   7.245  0.00  0.00    +0.002 A 
ATOM     14  C   UNL     1      -2.834   3.001   6.945  0.00  0.00    +0.010 A 
ATOM     15  C   UNL     1      -3.601   3.525   7.965  0.00  0.00    +0.004 A 
BRANCH  10  17
ATOM     16  C   UNL     1      -3.559   5.240  10.775  0.00  0.00    +0.009 C 
ATOM     17  C   UNL     1      -4.101   3.861  10.394  0.00  0.00    +0.032 C 
ENDBRANCH  10  17
ENDBRANCH   1  13
BRANCH   4  18
ATOM     18  S   UNL     1      -0.869   1.655   1.497  0.00  0.00    -0.094 S 
BRANCH  18  19
ATOM     19  C   UNL     1      -0.021   1.073   0.008  0.00  0.00    +0.172 C 
BRANCH  19  20
ATOM     20  C   UNL     1      -0.743   1.582  -1.213  0.00  0.00    +0.227 C 
ATOM     21  O   UNL     1      -1.734   2.271  -1.088  0.00  0.00    -0.275 OA
ATOM     22  N   UNL     1      -0.288   1.272  -2.443  0.00  0.00    -0.285 N 
ATOM     23  H   UNL     1       0.547   0.790  -2.544  0.00  0.00    +0.155 HD
BRANCH  22  24
ATOM     24  C   UNL     1      -1.022   1.646  -3.575  0.00  0.00    +0.037 A 
ATOM     25  C   UNL     1      -2.392   1.853  -3.479  0.00  0.00    +0.023 A 
ATOM     26  C   UNL     1      -3.112   2.226  -4.597  0.00  0.00    +0.002 A 
ATOM     27  C   UNL     1      -2.471   2.386  -5.812  0.00  0.00    +0.000 A 
ATOM     28  C   UNL     1      -1.108   2.176  -5.912  0.00  0.00    +0.005 A 
ATOM     29  C   UNL     1      -0.382   1.807  -4.796  0.00  0.00    -0.026 A 
BRANCH  29  30
ATOM     30  C   UNL     1       1.104   1.578  -4.906  0.00  0.00    +0.033 C 
ATOM     31  C   UNL     1       1.375   0.088  -5.126  0.00  0.00    +0.009 C 
ENDBRANCH  29  30
ENDBRANCH  22  24
ENDBRANCH  19  20
ENDBRANCH  18  19
ENDBRANCH   4  18
TORSDOF 7
