REMARK  Name = ZINC12529763
REMARK  8 active torsions:
REMARK  status: ('A' for Active; 'I' for Inactive)
REMARK    1  A    between atoms: C_1  and  C_2
REMARK    2  A    between atoms: C_5  and  C_8
REMARK    3  A    between atoms: C_10  and  C_13
REMARK    4  A    between atoms: C_16  and  N_20
REMARK    5  A    between atoms: C_19  and  N_53
REMARK    6  A    between atoms: N_20  and  S_21
REMARK    7  A    between atoms: S_21  and  C_24
REMARK    8  A    between atoms: C_24  and  C_25
REMARK                            x       y       z     vdW  Elec       q    Type
REMARK                         _______ _______ _______ _____ _____    ______ ____
ROOT
ATOM      1  C   UNL     1       0.757  -2.096  -4.567  0.00  0.00    +0.023 C 
ATOM      2  C   UNL     1       0.258  -0.647  -4.382  0.00  0.00    +0.012 C 
ATOM      3  C   UNL     1       0.303  -0.456  -2.843  0.00  0.00    +0.059 C 
ATOM      4  C   UNL     1       1.561  -1.277  -2.463  0.00  0.00    -0.058 C 
ATOM      5  C   UNL     1       2.898  -2.864  -3.726  0.00  0.00    -0.095 C 
ATOM      6  N   UNL     1       1.519  -2.450  -3.359  0.00  0.00    +0.387 N 
ATOM      7  H   UNL     1       1.052  -3.228  -2.878  0.00  0.00    -0.081 HD
ENDROOT
BRANCH   1  10
ATOM      8  C   UNL     1       2.458  -2.697  -7.676  0.00  0.00    +0.202 A 
ATOM      9  N   UNL     1       1.429  -2.951  -6.836  0.00  0.00    -0.193 NA
ATOM     10  C   UNL     1       1.629  -2.185  -5.793  0.00  0.00    +0.214 A 
ATOM     11  O   UNL     1       2.749  -1.492  -6.022  0.00  0.00    -0.339 OA
ATOM     12  N   UNL     1       3.214  -1.800  -7.099  0.00  0.00    -0.056 NA
BRANCH   8  17
ATOM     13  C   UNL     1       3.344  -5.117 -12.827  0.00  0.00    +0.044 C 
ATOM     14  C   UNL     1       3.112  -4.483 -11.480  0.00  0.00    -0.050 A 
ATOM     15  C   UNL     1       4.003  -3.541 -10.998  0.00  0.00    +0.004 A 
ATOM     16  C   UNL     1       3.796  -2.958  -9.764  0.00  0.00    +0.012 A 
ATOM     17  C   UNL     1       2.686  -3.320  -9.004  0.00  0.00    +0.022 A 
ATOM     18  C   UNL     1       1.794  -4.273  -9.492  0.00  0.00    +0.012 A 
ATOM     19  C   UNL     1       2.009  -4.846 -10.729  0.00  0.00    +0.004 A 
ENDBRANCH   8  17
ENDBRANCH   1  10
BRANCH   3  20
ATOM     20  N   UNL     1       0.473   0.956  -2.494  0.00  0.00    -0.193 NA
ATOM     21  H   UNL     1       1.017   1.532  -3.054  0.00  0.00    +0.148 HD
BRANCH  20  22
ATOM     22  S   UNL     1      -0.264   1.570  -1.144  0.00  0.00    +0.034 S 
ATOM     23  O   UNL     1      -1.623   1.174  -1.261  0.00  0.00    -0.158 OA
ATOM     24  O   UNL     1       0.092   2.946  -1.130  0.00  0.00    -0.158 OA
BRANCH  22  25
ATOM     25  C   UNL     1       0.520   0.709   0.247  0.00  0.00    +0.220 C 
BRANCH  25  26
ATOM     26  C   UNL     1      -0.080   1.194   1.541  0.00  0.00    -0.025 A 
ATOM     27  C   UNL     1       0.480   2.272   2.201  0.00  0.00    +0.005 A 
ATOM     28  C   UNL     1      -0.073   2.720   3.386  0.00  0.00    +0.000 A 
ATOM     29  C   UNL     1      -1.180   2.085   3.916  0.00  0.00    +0.000 A 
ATOM     30  C   UNL     1      -1.737   1.004   3.259  0.00  0.00    +0.000 A 
ATOM     31  C   UNL     1      -1.187   0.558   2.072  0.00  0.00    +0.005 A 
ENDBRANCH  25  26
ENDBRANCH  22  25
ENDBRANCH  20  22
ENDBRANCH   3  20
TORSDOF 6
