REMARK  Name = ZINC02257069
REMARK  9 active torsions:
REMARK  status: ('A' for Active; 'I' for Inactive)
REMARK    1  A    between atoms: C_1  and  N_2
REMARK    2  A    between atoms: N_2  and  C_3
REMARK    3  A    between atoms: N_10  and  C_11
REMARK    4  A    between atoms: N_10  and  C_13
REMARK    5  A    between atoms: C_13  and  C_15
REMARK    6  A    between atoms: C_13  and  N_19
REMARK    7  A    between atoms: C_20  and  C_22
REMARK    8  A    between atoms: N_28  and  C_29
REMARK    9  A    between atoms: N_28  and  C_30
REMARK                            x       y       z     vdW  Elec       q    Type
REMARK                         _______ _______ _______ _____ _____    ______ ____
ROOT
ATOM      1  C   UNL     1       8.335  -6.393  -1.849  0.00  0.00    +0.132 C 
ATOM      2  N   UNL     1       7.760  -5.198  -1.227  0.00  0.00    -0.306 N 
ATOM      3  C   UNL     1       7.172  -5.280   0.113  0.00  0.00    +0.132 C 
ATOM      4  C   UNL     1       7.773  -3.994  -1.902  0.00  0.00    +0.223 A 
ATOM      5  N   UNL     1       8.306  -3.920  -3.118  0.00  0.00    -0.181 NA
ATOM      6  C   UNL     1       8.318  -2.761  -3.768  0.00  0.00    +0.223 A 
ATOM      7  N   UNL     1       7.796  -1.676  -3.203  0.00  0.00    -0.180 NA
ATOM      8  C   UNL     1       7.263  -1.751  -1.988  0.00  0.00    +0.238 A 
ATOM      9  N   UNL     1       7.256  -2.908  -1.335  0.00  0.00    -0.180 NA
ATOM     10  N   UNL     1       6.720  -0.622  -1.400  0.00  0.00    -0.182 N 
ATOM     11  N   UNL     1       8.872  -2.683  -5.030  0.00  0.00    -0.306 N 
ATOM     12  C   UNL     1       8.885  -1.405  -5.746  0.00  0.00    +0.132 C 
ATOM     13  C   UNL     1       9.447  -3.878  -5.652  0.00  0.00    +0.132 C 
ENDROOT
BRANCH  10  14
ATOM     14  C   UNL     1       6.732   0.560  -2.063  0.00  0.00    +0.178 C 
ATOM     15  N   UNL     1       6.742   1.550  -2.619  0.00  0.00    -0.174 NA
ENDBRANCH  10  14
BRANCH  10  16
ATOM     16  C   UNL     1       6.132  -0.704  -0.061  0.00  0.00    +0.230 C 
BRANCH  16  17
ATOM     17  C   UNL     1       7.083  -0.066   0.954  0.00  0.00    +0.226 C 
ATOM     18 CL   UNL     1       6.360  -0.167   2.602  0.00  0.00    -0.080 Cl
ATOM     19 CL   UNL     1       8.659  -0.942   0.934  0.00  0.00    -0.080 Cl
ATOM     20 CL   UNL     1       7.351   1.664   0.521  0.00  0.00    -0.080 Cl
ENDBRANCH  16  17
BRANCH  16  21
ATOM     21  N   UNL     1       4.852   0.008  -0.045  0.00  0.00    -0.289 N 
ATOM     22  C   UNL     1       3.696  -0.685  -0.037  0.00  0.00    +0.246 C 
ATOM     23  O   UNL     1       3.715  -1.900  -0.044  0.00  0.00    -0.270 OA
ATOM     24  H   UNL     1       4.836   0.978  -0.039  0.00  0.00    +0.151 HD
BRANCH  22  25
ATOM     25  C   UNL     1       2.403   0.034  -0.021  0.00  0.00    +0.037 A 
ATOM     26  C   UNL     1       1.204  -0.681  -0.013  0.00  0.00    +0.013 A 
ATOM     27  C   UNL     1       0.002  -0.004   0.002  0.00  0.00    +0.001 A 
ATOM     28  C   UNL     1      -0.017   1.379   0.010  0.00  0.00    +0.000 A 
ATOM     29  C   UNL     1       1.168   2.094   0.002  0.00  0.00    +0.001 A 
ATOM     30  C   UNL     1       2.377   1.429  -0.013  0.00  0.00    +0.013 A 
ENDBRANCH  22  25
ENDBRANCH  16  21
ENDBRANCH  10  16
TORSDOF 5
