REMARK  Name = ZINC59305481
REMARK  6 active torsions:
REMARK  status: ('A' for Active; 'I' for Inactive)
REMARK    1  A    between atoms: C_1  and  C_2
REMARK    2  A    between atoms: C_10  and  S_12
REMARK    3  A    between atoms: S_12  and  C_13
REMARK    4  A    between atoms: C_16  and  C_18
REMARK    5  A    between atoms: N_19  and  N_20
REMARK    6  A    between atoms: C_21  and  C_23
REMARK                            x       y       z     vdW  Elec       q    Type
REMARK                         _______ _______ _______ _____ _____    ______ ____
ROOT
ATOM      1  C   UNL     1       0.106  -7.000   1.084  0.00  0.00    +0.169 A 
ATOM      2  C   UNL     1       0.121  -8.351   1.234  0.00  0.00    +0.057 A 
ATOM      3  C   UNL     1       0.123  -8.908  -0.054  0.00  0.00    +0.052 A 
ATOM      4  C   UNL     1       0.110  -7.865  -0.937  0.00  0.00    +0.149 A 
ATOM      5  O   UNL     1       0.095  -6.714  -0.229  0.00  0.00    -0.447 OA
ENDROOT
BRANCH   4   6
ATOM      6  C   UNL     1       0.109  -7.975  -2.395  0.00  0.00    +0.176 C 
ATOM      7  N   UNL     1       0.096  -6.899  -3.130  0.00  0.00    -0.184 NA
BRANCH   7   8
ATOM      8  N   UNL     1       0.094  -7.004  -4.527  0.00  0.00    -0.200 N 
ATOM      9  C   UNL     1       0.081  -5.891  -5.287  0.00  0.00    +0.299 C 
ATOM     10  O   UNL     1       0.070  -4.794  -4.759  0.00  0.00    -0.265 OA
ATOM     11  H   UNL     1       0.103  -7.878  -4.947  0.00  0.00    +0.178 HD
BRANCH   9  12
ATOM     12  C   UNL     1       0.079  -6.001  -6.751  0.00  0.00    +0.192 A 
ATOM     13  C   UNL     1       0.072  -4.952  -7.615  0.00  0.00    +0.063 A 
ATOM     14  C   UNL     1       0.074  -5.532  -8.957  0.00  0.00    +0.022 A 
ATOM     15  C   UNL     1       0.069  -4.998 -10.248  0.00  0.00    +0.027 A 
ATOM     16  C   UNL     1       0.072  -5.837 -11.328  0.00  0.00    +0.019 A 
ATOM     17  C   UNL     1       0.081  -7.215 -11.148  0.00  0.00    +0.019 A 
ATOM     18  C   UNL     1       0.086  -7.760  -9.883  0.00  0.00    +0.048 A 
ATOM     19  C   UNL     1       0.083  -6.927  -8.770  0.00  0.00    +0.136 A 
ATOM     20  O   UNL     1       0.091  -7.160  -7.443  0.00  0.00    -0.450 OA
ATOM     21 BR   UNL     1       0.065  -5.117 -13.076  0.00  0.00    -0.050 Br
ENDBRANCH   9  12
ENDBRANCH   7   8
ENDBRANCH   4   6
BRANCH   1  22
ATOM     22  S   UNL     1       0.096  -5.820   2.393  0.00  0.00    -0.014 S 
BRANCH  22  32
ATOM     23  C   UNL     1      -0.018   1.503   0.010  0.00  0.00    +0.044 C 
ATOM     24  C   UNL     1       0.002  -0.004   0.002  0.00  0.00    -0.048 A 
ATOM     25  C   UNL     1       0.006  -0.686  -1.206  0.00  0.00    +0.005 A 
ATOM     26  C   UNL     1       0.025  -2.063  -1.230  0.00  0.00    +0.030 A 
ATOM     27  C   UNL     1       0.041  -2.779  -0.030  0.00  0.00    +0.090 A 
ATOM     28  C   UNL     1       0.037  -2.082   1.190  0.00  0.00    +0.067 A 
ATOM     29  C   UNL     1       0.023  -0.696   1.196  0.00  0.00    +0.031 A 
ATOM     30  N   UNL     1       0.056  -3.046   2.184  0.00  0.00    -0.333 N 
ATOM     31  H   UNL     1       0.058  -2.886   3.140  0.00  0.00    +0.168 HD
ATOM     32  C   UNL     1       0.070  -4.265   1.566  0.00  0.00    +0.175 A 
ATOM     33  N   UNL     1       0.061  -4.104   0.265  0.00  0.00    -0.222 NA
ENDBRANCH  22  32
ENDBRANCH   1  22
TORSDOF 5
