REMARK  Name = ZINC20806335
REMARK  8 active torsions:
REMARK  status: ('A' for Active; 'I' for Inactive)
REMARK    1  A    between atoms: C_3  and  C_8
REMARK    2  A    between atoms: C_5  and  O_7
REMARK    3  A    between atoms: N_9  and  N_10
REMARK    4  A    between atoms: C_14  and  S_17
REMARK    5  A    between atoms: N_15  and  N_16
REMARK    6  A    between atoms: S_17  and  C_18
REMARK    7  A    between atoms: C_18  and  C_19
REMARK    8  A    between atoms: C_19  and  C_21
REMARK                            x       y       z     vdW  Elec       q    Type
REMARK                         _______ _______ _______ _____ _____    ______ ____
ROOT
ATOM      1  N   UNL     1      -1.227   7.412   0.820  0.00  0.00    -0.204 N 
ATOM      2  C   UNL     1      -2.441   8.078   0.727  0.00  0.00    +0.254 A 
ATOM      3  N   UNL     1      -3.629   7.530   0.816  0.00  0.00    -0.109 NA
ATOM      4  N   UNL     1      -4.585   8.544   0.673  0.00  0.00    -0.119 NA
ATOM      5  C   UNL     1      -3.949   9.677   0.492  0.00  0.00    +0.210 A 
ATOM      6  N   UNL     1      -2.608   9.419   0.520  0.00  0.00    -0.211 N 
ATOM      7  H   UNL     1      -0.285   7.971   0.725  0.00  0.00    +0.177 HD
ENDROOT
BRANCH   6   8
ATOM      8  N   UNL     1      -1.610  10.338   0.368  0.00  0.00    -0.294 N 
ATOM      9  H   UNL     1      -1.858  11.398   0.206  0.00  0.00    +0.163 HD
ATOM     10  H   UNL     1      -0.558  10.020   0.409  0.00  0.00    +0.163 HD
ENDBRANCH   6   8
BRANCH   1  12
ATOM     11  C   UNL     1      -0.066   5.405   1.121  0.00  0.00    +0.138 C 
ATOM     12  N   UNL     1      -1.202   6.028   1.034  0.00  0.00    -0.188 NA
BRANCH  11  15
ATOM     13  C   UNL     1      -1.206   1.871   1.673  0.00  0.00    +0.004 A 
ATOM     14  C   UNL     1      -1.235   3.235   1.468  0.00  0.00    +0.010 A 
ATOM     15  C   UNL     1      -0.039   3.948   1.347  0.00  0.00    -0.002 A 
ATOM     16  C   UNL     1       1.181   3.275   1.441  0.00  0.00    +0.054 A 
ATOM     17  C   UNL     1       1.197   1.907   1.653  0.00  0.00    +0.117 A 
ATOM     18  C   UNL     1       0.004   1.208   1.771  0.00  0.00    +0.045 A 
BRANCH  17  19
ATOM     19  O   UNL     1       2.382   1.249   1.745  0.00  0.00    -0.507 OA
ATOM     20  H   UNL     1       2.396   0.162   1.913  0.00  0.00    +0.292 HD
ENDBRANCH  17  19
ENDBRANCH  11  15
ENDBRANCH   1  12
BRANCH   5  21
ATOM     21  S   UNL     1      -4.694  11.256   0.254  0.00  0.00    -0.077 S 
BRANCH  21  22
ATOM     22  C   UNL     1      -6.475  10.916   0.321  0.00  0.00    +0.152 C 
BRANCH  22  23
ATOM     23  C   UNL     1      -7.239  12.200   0.129  0.00  0.00    +0.147 C 
ATOM     24  O   UNL     1      -6.645  13.238  -0.037  0.00  0.00    -0.296 OA
BRANCH  23  25
ATOM     25  C   UNL     1      -8.746  12.189   0.143  0.00  0.00    +0.062 C 
ATOM     26  C   UNL     1      -9.265  11.582  -1.162  0.00  0.00    +0.000 C 
ATOM     27  C   UNL     1     -10.794  11.571  -1.147  0.00  0.00    +0.007 C 
ATOM     28  C   UNL     1     -11.313  13.004  -1.010  0.00  0.00    -0.010 C 
ATOM     29  C   UNL     1     -10.821  13.840  -2.192  0.00  0.00    +0.007 C 
ATOM     30  C   UNL     1      -9.291  13.851  -2.207  0.00  0.00    -0.010 C 
ATOM     31  C   UNL     1      -8.772  12.419  -2.344  0.00  0.00    +0.007 C 
ATOM     32  C   UNL     1      -8.773  14.459  -0.901  0.00  0.00    +0.007 C 
ATOM     33  C   UNL     1      -9.265  13.622   0.281  0.00  0.00    +0.000 C 
ATOM     34  C   UNL     1     -10.795  13.611   0.296  0.00  0.00    +0.007 C 
ENDBRANCH  23  25
ENDBRANCH  22  23
ENDBRANCH  21  22
ENDBRANCH   5  21
TORSDOF 8
