REMARK  Name = ZINC08965914
REMARK  6 active torsions:
REMARK  status: ('A' for Active; 'I' for Inactive)
REMARK    1  A    between atoms: C_4  and  C_7
REMARK    2  A    between atoms: C_7  and  C_8
REMARK    3  A    between atoms: C_8  and  C_28
REMARK    4  A    between atoms: N_11  and  C_15
REMARK    5  A    between atoms: C_15  and  N_60
REMARK    6  A    between atoms: C_21  and  C_23
REMARK                            x       y       z     vdW  Elec       q    Type
REMARK                         _______ _______ _______ _____ _____    ______ ____
ROOT
ATOM      1  C   UNL     1       0.115   1.762  -1.604  0.00  0.00    +0.142 C 
ATOM      2  C   UNL     1      -1.379   1.554  -1.456  0.00  0.00    +0.250 C 
ATOM      3  O   UNL     1      -2.260   2.336  -1.744  0.00  0.00    -0.272 OA
ATOM      4  N   UNL     1      -1.526   0.316  -0.945  0.00  0.00    -0.241 N 
ATOM      5  C   UNL     1      -0.344  -0.278  -0.743  0.00  0.00    +0.308 C 
ATOM      6  O   UNL     1      -0.219  -1.397  -0.286  0.00  0.00    -0.252 OA
ATOM      7  N   UNL     1       0.691   0.501  -1.107  0.00  0.00    -0.281 N 
ATOM      8  H   UNL     1       1.633   0.276  -1.053  0.00  0.00    +0.152 HD
ENDROOT
BRANCH   1   9
ATOM      9  C   UNL     1       0.577   2.924  -0.763  0.00  0.00    -0.015 A 
ATOM     10  C   UNL     1       0.700   4.180  -1.327  0.00  0.00    +0.006 A 
ATOM     11  C   UNL     1       1.120   5.247  -0.554  0.00  0.00    +0.000 A 
ATOM     12  C   UNL     1       1.426   5.055   0.780  0.00  0.00    +0.000 A 
ATOM     13  C   UNL     1       1.308   3.798   1.343  0.00  0.00    +0.000 A 
ATOM     14  C   UNL     1       0.884   2.732   0.571  0.00  0.00    +0.006 A 
ENDBRANCH   1   9
BRANCH   1  15
ATOM     15  C   UNL     1       0.485   1.982  -3.072  0.00  0.00    +0.075 C 
BRANCH  15  19
ATOM     16  C   UNL     1      -0.984  -1.274  -5.414  0.00  0.00    +0.000 A 
ATOM     17  C   UNL     1      -1.775  -0.160  -5.207  0.00  0.00    +0.000 A 
ATOM     18  C   UNL     1      -1.300   0.894  -4.449  0.00  0.00    +0.004 A 
ATOM     19  C   UNL     1      -0.033   0.833  -3.898  0.00  0.00    -0.045 A 
ATOM     20  C   UNL     1       0.760  -0.279  -4.110  0.00  0.00    +0.004 A 
ATOM     21  C   UNL     1       0.282  -1.335  -4.864  0.00  0.00    +0.000 A 
ENDBRANCH  15  19
ENDBRANCH   1  15
BRANCH   4  22
ATOM     22  C   UNL     1      -2.819  -0.303  -0.645  0.00  0.00    +0.043 C 
BRANCH  22  30
ATOM     23  C   UNL     1      -2.525  -0.865   1.692  0.00  0.00    -0.057 C 
ATOM     24  C   UNL     1      -2.812  -0.385   3.118  0.00  0.00    +0.089 C 
ATOM     25  N   UNL     1      -4.269  -0.286   3.294  0.00  0.00    -0.301 N 
ATOM     26  C   UNL     1      -5.040   0.469   2.295  0.00  0.00    +0.089 C 
ATOM     27  C   UNL     1      -4.665  -0.044   0.900  0.00  0.00    -0.057 C 
ATOM     28  C   UNL     1      -4.881  -0.871   4.342  0.00  0.00    +0.253 C 
ATOM     29  O   UNL     1      -4.248  -1.592   5.091  0.00  0.00    -0.269 OA
ATOM     30  N   UNL     1      -3.197   0.046   0.740  0.00  0.00    +0.392 N 
ATOM     31  H   UNL     1      -2.900   1.009   0.934  0.00  0.00    -0.079 HD
BRANCH  28  32
ATOM     32  C   UNL     1      -6.308  -0.640   4.580  0.00  0.00    +0.074 A 
ATOM     33  C   UNL     1      -7.192  -1.364   5.364  0.00  0.00    +0.021 A 
ATOM     34  C   UNL     1      -8.491  -0.923   5.413  0.00  0.00    +0.008 A 
ATOM     35  C   UNL     1      -8.844   0.181   4.703  0.00  0.00    +0.046 A 
ATOM     36  S   UNL     1      -7.360   0.652   3.941  0.00  0.00    -0.092 S 
ENDBRANCH  28  32
ENDBRANCH  22  30
ENDBRANCH   4  22
TORSDOF 6
