REMARK  Name = ZINC59264247
REMARK  6 active torsions:
REMARK  status: ('A' for Active; 'I' for Inactive)
REMARK    1  A    between atoms: C_4  and  N_7
REMARK    2  A    between atoms: C_8  and  C_33
REMARK    3  A    between atoms: C_11  and  S_12
REMARK    4  A    between atoms: S_12  and  C_13
REMARK    5  A    between atoms: C_13  and  C_14
REMARK    6  A    between atoms: N_16  and  C_17
REMARK                            x       y       z     vdW  Elec       q    Type
REMARK                         _______ _______ _______ _____ _____    ______ ____
ROOT
ATOM      1  C   UNL     1       6.142   0.451   4.636  0.00  0.00    +0.228 C 
ATOM      2  O   UNL     1       5.229   1.159   5.006  0.00  0.00    -0.275 OA
ATOM      3  N   UNL     1       7.221   0.277   5.425  0.00  0.00    -0.284 N 
ATOM      4  H   UNL     1       7.920  -0.342   5.160  0.00  0.00    +0.155 HD
ENDROOT
BRANCH   3   5
ATOM      5  C   UNL     1       7.332   0.983   6.618  0.00  0.00    +0.045 A 
ATOM      6  C   UNL     1       6.195   1.265   7.375  0.00  0.00    +0.024 A 
ATOM      7  C   UNL     1       6.301   1.966   8.557  0.00  0.00    +0.003 A 
ATOM      8  C   UNL     1       7.537   2.400   9.013  0.00  0.00    +0.012 A 
ATOM      9  C   UNL     1       8.683   2.129   8.276  0.00  0.00    +0.035 A 
ATOM     10  C   UNL     1       8.585   1.409   7.069  0.00  0.00    +0.054 A 
ATOM     11  C   UNL     1       9.803   1.117   6.290  0.00  0.00    +0.196 C 
ATOM     12  O   UNL     1       9.719   0.730   5.141  0.00  0.00    -0.287 OA
ATOM     13  C   UNL     1      11.127   1.302   6.923  0.00  0.00    +0.033 A 
ATOM     14  C   UNL     1      12.272   0.774   6.336  0.00  0.00    +0.012 A 
ATOM     15  C   UNL     1      13.503   0.956   6.943  0.00  0.00    +0.001 A 
ATOM     16  C   UNL     1      13.602   1.659   8.130  0.00  0.00    +0.001 A 
ATOM     17  C   UNL     1      12.473   2.191   8.728  0.00  0.00    +0.012 A 
ATOM     18  C   UNL     1      11.228   2.017   8.131  0.00  0.00    +0.033 A 
ATOM     19  C   UNL     1      10.008   2.586   8.749  0.00  0.00    +0.195 C 
ATOM     20  O   UNL     1      10.093   3.405   9.642  0.00  0.00    -0.287 OA
ENDBRANCH   3   5
BRANCH   1  21
ATOM     21  C   UNL     1       6.069  -0.234   3.296  0.00  0.00    +0.173 C 
BRANCH  21  22
ATOM     22  S   UNL     1       4.507   0.196   2.481  0.00  0.00    -0.076 S 
BRANCH  22  27
ATOM     23  N   UNL     1       3.616  -0.666  -0.029  0.00  0.00    -0.270 N 
ATOM     24  C   UNL     1       4.106  -1.474  -1.032  0.00  0.00    +0.171 A 
ATOM     25  N   UNL     1       5.277  -1.914  -0.633  0.00  0.00    -0.128 NA
ATOM     26  N   UNL     1       5.551  -1.444   0.531  0.00  0.00    -0.122 NA
ATOM     27  C   UNL     1       4.573  -0.670   0.948  0.00  0.00    +0.197 A 
BRANCH  23  31
ATOM     28  C   UNL     1      -0.016   1.380   0.009  0.00  0.00    +0.000 A 
ATOM     29  C   UNL     1       1.173   2.085  -0.003  0.00  0.00    +0.002 A 
ATOM     30  C   UNL     1       2.378   1.410  -0.016  0.00  0.00    +0.026 A 
ATOM     31  C   UNL     1       2.395   0.022  -0.016  0.00  0.00    +0.051 A 
ATOM     32  C   UNL     1       1.199  -0.683  -0.004  0.00  0.00    +0.026 A 
ATOM     33  C   UNL     1      -0.003  -0.003   0.008  0.00  0.00    +0.002 A 
ENDBRANCH  23  31
BRANCH  24  34
ATOM     34  C   UNL     1       3.439  -1.788  -2.313  0.00  0.00    +0.038 A 
ATOM     35  C   UNL     1       3.881  -2.857  -3.102  0.00  0.00    +0.014 A 
ATOM     36  C   UNL     1       3.222  -3.108  -4.293  0.00  0.00    +0.020 A 
ATOM     37  C   UNL     1       2.159  -2.304  -4.662  0.00  0.00    +0.111 A 
ATOM     38  N   UNL     1       1.764  -1.303  -3.898  0.00  0.00    -0.263 NA
ATOM     39  C   UNL     1       2.355  -1.028  -2.753  0.00  0.00    +0.122 A 
ENDBRANCH  24  34
ENDBRANCH  22  27
ENDBRANCH  21  22
ENDBRANCH   1  21
TORSDOF 6
