REMARK  Name = ZINC16614065
REMARK  11 active torsions:
REMARK  status: ('A' for Active; 'I' for Inactive)
REMARK    1  A    between atoms: C_1  and  C_2
REMARK    2  A    between atoms: C_4  and  C_36
REMARK    3  A    between atoms: C_5  and  S_9
REMARK    4  A    between atoms: C_6  and  C_8
REMARK    5  A    between atoms: S_9  and  N_12
REMARK    6  A    between atoms: N_12  and  C_13
REMARK    7  A    between atoms: C_17  and  C_19
REMARK    8  A    between atoms: C_21  and  C_31
REMARK    9  A    between atoms: C_22  and  C_30
REMARK   10  A    between atoms: N_33  and  C_34
REMARK   11  A    between atoms: N_33  and  C_35
REMARK                            x       y       z     vdW  Elec       q    Type
REMARK                         _______ _______ _______ _____ _____    ______ ____
ROOT
ATOM      1  C   UNL     1      -0.410  -4.850  -1.130  0.00  0.00    +0.048 A 
ATOM      2  C   UNL     1      -0.046  -4.848  -2.471  0.00  0.00    +0.024 A 
ATOM      3  C   UNL     1      -1.006  -5.040  -3.445  0.00  0.00    +0.002 A 
ATOM      4  C   UNL     1      -2.328  -5.234  -3.088  0.00  0.00    +0.006 A 
ATOM      5  C   UNL     1      -2.693  -5.236  -1.754  0.00  0.00    -0.021 A 
ATOM      6  C   UNL     1      -1.738  -5.050  -0.774  0.00  0.00    +0.030 A 
ENDROOT
BRANCH   5   7
ATOM      7  C   UNL     1      -4.135  -5.448  -1.369  0.00  0.00    +0.143 C 
ATOM      8  C   UNL     1      -4.470  -6.916  -1.454  0.00  0.00    +0.060 C 
ATOM      9  C   UNL     1      -5.014  -7.406  -2.602  0.00  0.00    +0.051 C 
ATOM     10  N   UNL     1      -5.304  -6.601  -3.619  0.00  0.00    -0.230 NA
ATOM     11  C   UNL     1      -5.325  -5.277  -3.494  0.00  0.00    +0.157 C 
ATOM     12  N   UNL     1      -5.009  -4.708  -2.299  0.00  0.00    -0.299 N 
ATOM     13  C   UNL     1      -5.521  -3.414  -1.859  0.00  0.00    +0.109 C 
ATOM     14  C   UNL     1      -5.588  -2.400  -2.991  0.00  0.00    +0.030 C 
ATOM     15  C   UNL     1      -6.568  -2.903  -4.057  0.00  0.00    +0.079 C 
ATOM     16  S   UNL     1      -5.812  -4.321  -4.891  0.00  0.00    -0.090 S 
ATOM     17  C   UNL     1      -5.291  -8.882  -2.722  0.00  0.00    +0.066 C 
BRANCH   8  18
ATOM     18  C   UNL     1      -4.225  -7.768  -0.361  0.00  0.00    +0.246 C 
ATOM     19  O   UNL     1      -3.092  -8.151  -0.129  0.00  0.00    -0.270 OA
ATOM     20  N   UNL     1      -5.244  -8.161   0.429  0.00  0.00    -0.304 N 
ATOM     21  C   UNL     1      -4.976  -8.966   1.623  0.00  0.00    +0.132 C 
ATOM     22  C   UNL     1      -6.619  -7.782   0.095  0.00  0.00    +0.132 C 
ENDBRANCH   8  18
ENDBRANCH   5   7
BRANCH   1  23
ATOM     23  N   UNL     1       0.558  -4.657  -0.142  0.00  0.00    -0.216 N 
ATOM     24  H   UNL     1       0.845  -5.402   0.408  0.00  0.00    +0.174 HD
BRANCH  23  25
ATOM     25  S   UNL     1       1.217  -3.155   0.090  0.00  0.00    +0.073 S 
ATOM     26  O   UNL     1       1.627  -2.690  -1.189  0.00  0.00    -0.150 OA
ATOM     27  O   UNL     1       2.116  -3.270   1.184  0.00  0.00    -0.150 OA
BRANCH  25  32
ATOM     28  C   UNL     1      -3.240   0.488   1.899  0.00  0.00    +0.044 C 
ATOM     29  C   UNL     1      -2.127  -0.422   1.447  0.00  0.00    -0.050 A 
ATOM     30  C   UNL     1      -1.389  -1.127   2.379  0.00  0.00    +0.008 A 
ATOM     31  C   UNL     1      -0.372  -1.966   1.964  0.00  0.00    -0.023 A 
ATOM     32  C   UNL     1      -0.085  -2.091   0.618  0.00  0.00    +0.114 A 
ATOM     33  C   UNL     1      -0.820  -1.382  -0.314  0.00  0.00    -0.023 A 
ATOM     34  C   UNL     1      -1.841  -0.548   0.100  0.00  0.00    +0.008 A 
ATOM     35  C   UNL     1      -0.507  -1.519  -1.782  0.00  0.00    +0.046 C 
ATOM     36  C   UNL     1       0.429  -2.739   2.980  0.00  0.00    +0.046 C 
ENDBRANCH  25  32
ENDBRANCH  23  25
ENDBRANCH   1  23
TORSDOF 5
