REMARK  Name = ZINC13500120
REMARK  10 active torsions:
REMARK  status: ('A' for Active; 'I' for Inactive)
REMARK    1  A    between atoms: C_1  and  C_2
REMARK    2  A    between atoms: C_2  and  C_3
REMARK    3  A    between atoms: C_3  and  C_4
REMARK    4  A    between atoms: C_4  and  C_6
REMARK    5  A    between atoms: C_4  and  N_75
REMARK    6  A    between atoms: N_10  and  C_11
REMARK    7  A    between atoms: C_17  and  C_18
REMARK    8  A    between atoms: C_17  and  N_75
REMARK    9  A    between atoms: C_24  and  C_30
REMARK   10  A    between atoms: C_31  and  N_75
REMARK                            x       y       z     vdW  Elec       q    Type
REMARK                         _______ _______ _______ _____ _____    ______ ____
ROOT
ATOM      1  N   UNL     1       0.733  -1.936  -0.932  0.00  0.00    +0.391 N 
ATOM      2  H   UNL     1       0.086  -2.660  -0.600  0.00  0.00    -0.080 HD
ENDROOT
BRANCH   1   3
ATOM      3  C   UNL     1       0.063  -0.621  -0.855  0.00  0.00    -0.067 C 
ATOM      4  C   UNL     1      -0.436  -0.404   0.575  0.00  0.00    -0.015 C 
ATOM      5  C   UNL     1      -1.154   0.945   0.665  0.00  0.00    -0.002 C 
ATOM      6  C   UNL     1      -0.182   2.065   0.288  0.00  0.00    -0.000 C 
ATOM      7  C   UNL     1       0.317   1.848  -1.141  0.00  0.00    -0.002 C 
ATOM      8  C   UNL     1       1.034   0.499  -1.232  0.00  0.00    -0.015 C 
ENDBRANCH   1   3
BRANCH   1   9
ATOM      9  C   UNL     1       1.106  -2.231  -2.332  0.00  0.00    +0.003 C 
BRANCH   9  10
ATOM     10  C   UNL     1       0.046  -1.691  -3.256  0.00  0.00    +0.138 A 
ATOM     11  N   UNL     1      -1.252  -1.794  -3.103  0.00  0.00    -0.115 NA
ATOM     12  N   UNL     1      -1.818  -1.204  -4.099  0.00  0.00    -0.023 NA
ATOM     13  N   UNL     1      -0.915  -0.734  -4.887  0.00  0.00    -0.044 NA
ATOM     14  N   UNL     1       0.247  -1.014  -4.402  0.00  0.00    -0.228 N 
BRANCH  14  15
ATOM     15  C   UNL     1       1.543  -0.661  -4.988  0.00  0.00    +0.111 C 
ATOM     16  C   UNL     1       1.651   0.860  -5.107  0.00  0.00    +0.027 C 
ATOM     17  C   UNL     1       3.004   1.229  -5.719  0.00  0.00    +0.002 C 
ATOM     18  C   UNL     1       3.124   0.598  -7.108  0.00  0.00    +0.000 C 
ATOM     19  C   UNL     1       3.016  -0.923  -6.988  0.00  0.00    +0.002 C 
ATOM     20  C   UNL     1       1.663  -1.292  -6.376  0.00  0.00    +0.027 C 
ENDBRANCH  14  15
ENDBRANCH   9  10
BRANCH   9  21
ATOM     21  C   UNL     1       1.205  -3.749  -2.501  0.00  0.00    -0.008 C 
BRANCH  21  23
ATOM     22  C   UNL     1       1.671  -5.593  -4.121  0.00  0.00    +0.004 C 
ATOM     23  C   UNL     1       1.637  -4.075  -3.932  0.00  0.00    -0.005 C 
ENDBRANCH  21  23
ENDBRANCH   9  21
ENDBRANCH   1   9
BRANCH   1  24
ATOM     24  C   UNL     1       1.938  -1.940  -0.076  0.00  0.00    -0.036 C 
BRANCH  24  25
ATOM     25  C   UNL     1       2.364  -3.367   0.154  0.00  0.00    +0.001 A 
ATOM     26  C   UNL     1       3.497  -3.836  -0.424  0.00  0.00    +0.017 A 
ATOM     27  C   UNL     1       3.882  -5.227  -0.180  0.00  0.00    -0.001 A 
ATOM     28  C   UNL     1       5.041  -5.767  -0.748  0.00  0.00    +0.010 A 
ATOM     29  C   UNL     1       5.373  -7.069  -0.502  0.00  0.00    +0.001 A 
ATOM     30  C   UNL     1       4.570  -7.861   0.308  0.00  0.00    +0.005 A 
ATOM     31  C   UNL     1       3.425  -7.350   0.879  0.00  0.00    -0.026 A 
ATOM     32  C   UNL     1       3.067  -6.027   0.641  0.00  0.00    +0.052 A 
ATOM     33  N   UNL     1       1.926  -5.490   1.200  0.00  0.00    -0.322 N 
ATOM     34  H   UNL     1       1.365  -6.042   1.766  0.00  0.00    +0.169 HD
ATOM     35  C   UNL     1       1.583  -4.209   0.975  0.00  0.00    +0.251 A 
ATOM     36  O   UNL     1       0.571  -3.766   1.488  0.00  0.00    -0.268 OA
ATOM     37  C   UNL     1       2.563  -8.222   1.756  0.00  0.00    +0.046 C 
ENDBRANCH  24  25
ENDBRANCH   1  24
TORSDOF 8
