REMARK  Name = ZINC14749191
REMARK  6 active torsions:
REMARK  status: ('A' for Active; 'I' for Inactive)
REMARK    1  A    between atoms: C_4  and  C_7
REMARK    2  A    between atoms: C_7  and  C_8
REMARK    3  A    between atoms: C_8  and  N_9
REMARK    4  A    between atoms: N_12  and  C_29
REMARK    5  A    between atoms: C_20  and  N_68
REMARK    6  A    between atoms: C_29  and  C_30
REMARK                            x       y       z     vdW  Elec       q    Type
REMARK                         _______ _______ _______ _____ _____    ______ ____
ROOT
ATOM      1  N   UNL     1       0.555  -0.358  -1.204  0.00  0.00    -0.271 N 
ATOM      2  C   UNL     1      -0.455  -1.151  -1.610  0.00  0.00    +0.312 C 
ATOM      3  O   UNL     1      -0.379  -1.912  -2.554  0.00  0.00    -0.252 OA
ATOM      4  N   UNL     1      -1.552  -1.005  -0.857  0.00  0.00    -0.220 N 
ATOM      5  C   UNL     1      -1.366  -0.097   0.123  0.00  0.00    +0.247 C 
ATOM      6  O   UNL     1      -2.168   0.254   0.962  0.00  0.00    -0.273 OA
ATOM      7  C   UNL     1       0.053   0.393  -0.046  0.00  0.00    +0.112 C 
ATOM      8  C   UNL     1       0.071   1.891  -0.332  0.00  0.00    +0.017 C 
ATOM      9  C   UNL     1       1.522   2.363  -0.472  0.00  0.00    -0.076 C 
ATOM     10  C   UNL     1       2.303   0.607   1.007  0.00  0.00    -0.076 C 
ATOM     11  C   UNL     1       0.879   0.077   1.196  0.00  0.00    +0.017 C 
ATOM     12  N   UNL     1       2.243   2.068   0.785  0.00  0.00    +0.382 N 
ATOM     13  H   UNL     1       1.740   2.503   1.567  0.00  0.00    -0.081 HD
ENDROOT
BRANCH  12  14
ATOM     14  C   UNL     1       3.610   2.626   0.724  0.00  0.00    -0.060 C 
ATOM     15  C   UNL     1       4.276   2.549   2.114  0.00  0.00    +0.020 C 
ATOM     16  C   UNL     1       5.109   3.809   2.224  0.00  0.00    -0.046 A 
ATOM     17  C   UNL     1       6.145   4.127   3.086  0.00  0.00    +0.004 A 
ATOM     18  C   UNL     1       6.767   5.357   3.001  0.00  0.00    +0.000 A 
ATOM     19  C   UNL     1       6.354   6.275   2.053  0.00  0.00    +0.000 A 
ATOM     20  C   UNL     1       5.320   5.960   1.194  0.00  0.00    +0.004 A 
ATOM     21  C   UNL     1       4.695   4.726   1.277  0.00  0.00    -0.046 A 
ATOM     22  C   UNL     1       3.557   4.146   0.465  0.00  0.00    +0.020 C 
ENDBRANCH  12  14
BRANCH   1  23
ATOM     23  C   UNL     1       1.891  -0.264  -1.799  0.00  0.00    +0.115 C 
BRANCH  23  24
ATOM     24  C   UNL     1       1.782   0.334  -3.203  0.00  0.00    +0.054 C 
BRANCH  24  28
ATOM     25  C   UNL     1       5.686   0.713  -4.896  0.00  0.00    +0.000 A 
ATOM     26  C   UNL     1       4.961  -0.449  -5.083  0.00  0.00    +0.000 A 
ATOM     27  C   UNL     1       3.698  -0.572  -4.535  0.00  0.00    +0.004 A 
ATOM     28  C   UNL     1       3.159   0.467  -3.800  0.00  0.00    -0.046 A 
ATOM     29  C   UNL     1       3.882   1.631  -3.617  0.00  0.00    +0.004 A 
ATOM     30  C   UNL     1       5.147   1.752  -4.160  0.00  0.00    +0.000 A 
ENDBRANCH  24  28
ENDBRANCH  23  24
ENDBRANCH   1  23
BRANCH   4  31
ATOM     31  C   UNL     1      -2.801  -1.741  -1.071  0.00  0.00    +0.154 C 
BRANCH  31  32
ATOM     32  C   UNL     1      -3.687  -0.965  -2.011  0.00  0.00    -0.011 A 
ATOM     33  C   UNL     1      -3.607  -1.168  -3.381  0.00  0.00    +0.008 A 
ATOM     34  C   UNL     1      -4.441  -0.432  -4.207  0.00  0.00    +0.020 A 
ATOM     35  C   UNL     1      -5.319   0.475  -3.643  0.00  0.00    +0.111 A 
ATOM     36  N   UNL     1      -5.367   0.643  -2.336  0.00  0.00    -0.263 NA
ATOM     37  C   UNL     1      -4.593  -0.045  -1.519  0.00  0.00    +0.116 A 
ENDBRANCH  31  32
ENDBRANCH   4  31
TORSDOF 6
