REMARK  Name = ZINC03353879
REMARK  6 active torsions:
REMARK  status: ('A' for Active; 'I' for Inactive)
REMARK    1  A    between atoms: C_1  and  C_2
REMARK    2  A    between atoms: C_15  and  C_17
REMARK    3  A    between atoms: C_17  and  N_61
REMARK    4  A    between atoms: N_20  and  S_23
REMARK    5  A    between atoms: S_23  and  C_26
REMARK    6  A    between atoms: C_27  and  C_28
REMARK                            x       y       z     vdW  Elec       q    Type
REMARK                         _______ _______ _______ _____ _____    ______ ____
ROOT
ATOM      1  C   UNL     1       1.577  -4.658  -5.756  0.00  0.00    -0.061 C 
ATOM      2  C   UNL     1       2.723  -4.526  -6.765  0.00  0.00    +0.091 C 
ATOM      3  N   UNL     1       3.112  -5.873  -7.208  0.00  0.00    -0.181 NA
ATOM      4  C   UNL     1       3.398  -6.888  -6.183  0.00  0.00    +0.091 C 
ATOM      5  C   UNL     1       2.226  -6.927  -5.197  0.00  0.00    -0.061 C 
ATOM      6  N   UNL     1       2.005  -5.564  -4.667  0.00  0.00    +0.386 N 
ATOM      7  H   UNL     1       2.885  -5.214  -4.271  0.00  0.00    -0.081 HD
ENDROOT
BRANCH   3   8
ATOM      8  S   UNL     1       3.226  -6.238  -8.820  0.00  0.00    +0.054 S 
ATOM      9  O   UNL     1       3.450  -5.010  -9.499  0.00  0.00    -0.153 OA
ATOM     10  O   UNL     1       4.117  -7.340  -8.925  0.00  0.00    -0.153 OA
BRANCH   8  11
ATOM     11  C   UNL     1       1.645  -6.818  -9.336  0.00  0.00    +0.153 C 
ATOM     12  C   UNL     1       0.941  -6.125 -10.220  0.00  0.00    +0.028 C 
BRANCH  12  13
ATOM     13  C   UNL     1      -0.386  -6.611 -10.654  0.00  0.00    -0.024 A 
ATOM     14  C   UNL     1      -0.898  -7.802 -10.138  0.00  0.00    +0.008 A 
ATOM     15  C   UNL     1      -2.140  -8.248 -10.542  0.00  0.00    +0.001 A 
ATOM     16  C   UNL     1      -2.872  -7.523 -11.466  0.00  0.00    +0.000 A 
ATOM     17  C   UNL     1      -2.367  -6.344 -11.985  0.00  0.00    +0.001 A 
ATOM     18  C   UNL     1      -1.129  -5.884 -11.584  0.00  0.00    +0.008 A 
ENDBRANCH  12  13
ENDBRANCH   8  11
ENDBRANCH   3   8
BRANCH   6  19
ATOM     19  C   UNL     1       0.978  -5.595  -3.605  0.00  0.00    -0.003 C 
BRANCH  19  33
ATOM     20  C   UNL     1       1.397   3.572   0.259  0.00  0.00    +0.008 C 
ATOM     21  C   UNL     1       1.415   2.064  -0.000  0.00  0.00    -0.009 C 
ATOM     22  C   UNL     1      -0.019   1.524   0.010  0.00  0.00    +0.008 C 
ATOM     23  C   UNL     1       0.002  -0.004   0.002  0.00  0.00    +0.037 C 
ATOM     24  C   UNL     1       0.873  -0.481  -1.158  0.00  0.00    -0.023 A 
ATOM     25  C   UNL     1       1.763   0.357  -1.738  0.00  0.00    -0.004 A 
ATOM     26  S   UNL     1       2.538  -0.601  -3.016  0.00  0.00    -0.073 S 
ATOM     27  C   UNL     1       1.671  -2.118  -2.769  0.00  0.00    +0.116 A 
ATOM     28  C   UNL     1       0.801  -1.828  -1.695  0.00  0.00    +0.075 A 
ATOM     29  C   UNL     1      -0.058  -2.888  -1.248  0.00  0.00    +0.260 A 
ATOM     30  O   UNL     1      -0.845  -2.741  -0.329  0.00  0.00    -0.267 OA
ATOM     31  N   UNL     1       0.063  -4.061  -1.913  0.00  0.00    -0.312 N 
ATOM     32  H   UNL     1      -0.516  -4.828  -1.635  0.00  0.00    +0.170 HD
ATOM     33  C   UNL     1       0.930  -4.245  -2.937  0.00  0.00    +0.094 A 
ATOM     34  N   UNL     1       1.732  -3.300  -3.375  0.00  0.00    -0.229 NA
ATOM     35  C   UNL     1       2.034   1.785  -1.377  0.00  0.00    +0.046 C 
ENDBRANCH  19  33
ENDBRANCH   6  19
TORSDOF 5
