REMARK  Name = ZINC09012792
REMARK  8 active torsions:
REMARK  status: ('A' for Active; 'I' for Inactive)
REMARK    1  A    between atoms: C_1  and  O_2
REMARK    2  A    between atoms: O_2  and  C_3
REMARK    3  A    between atoms: C_6  and  C_11
REMARK    4  A    between atoms: C_8  and  O_9
REMARK    5  A    between atoms: O_9  and  C_10
REMARK    6  A    between atoms: C_12  and  O_13
REMARK    7  A    between atoms: C_23  and  C_25
REMARK    8  A    between atoms: C_28  and  N_31
REMARK                            x       y       z     vdW  Elec       q    Type
REMARK                         _______ _______ _______ _____ _____    ______ ____
ROOT
ATOM      1  C   UNL     1       2.496  -2.491  -4.371  0.00  0.00    +0.082 A 
ATOM      2  C   UNL     1       3.645  -3.257  -4.186  0.00  0.00    +0.140 A 
ATOM      3  C   UNL     1       4.251  -3.880  -5.369  0.00  0.00    +0.061 A 
ATOM      4  C   UNL     1       5.405  -4.663  -5.258  0.00  0.00    +0.035 A 
ATOM      5  C   UNL     1       5.950  -5.234  -6.386  0.00  0.00    +0.042 A 
ATOM      6  C   UNL     1       5.360  -5.036  -7.628  0.00  0.00    +0.023 A 
ATOM      7  C   UNL     1       4.222  -4.267  -7.750  0.00  0.00    +0.048 A 
ATOM      8  C   UNL     1       3.655  -3.680  -6.626  0.00  0.00    +0.141 A 
ATOM      9  O   UNL     1       2.540  -2.926  -6.735  0.00  0.00    -0.440 OA
ATOM     10  C   UNL     1       1.963  -2.350  -5.669  0.00  0.00    +0.204 A 
ATOM     11  N   UNL     1       0.863  -1.622  -5.842  0.00  0.00    -0.252 N 
ATOM     12  C   UNL     1       0.343  -1.477  -7.064  0.00  0.00    +0.250 C 
ATOM     13  O   UNL     1       0.877  -2.011  -8.021  0.00  0.00    -0.270 OA
ATOM     14 CL   UNL     1       7.383  -6.207  -6.256  0.00  0.00    -0.084 Cl
ATOM     15  H   UNL     1       0.437  -1.197  -5.080  0.00  0.00    +0.158 HD
ENDROOT
BRANCH   1  19
ATOM     16  C   UNL     1       0.606  -0.608  -1.056  0.00  0.00    +0.162 A 
ATOM     17  C   UNL     1       1.172   0.162  -2.061  0.00  0.00    +0.050 A 
ATOM     18  C   UNL     1       1.786  -0.446  -3.137  0.00  0.00    +0.012 A 
ATOM     19  C   UNL     1       1.838  -1.837  -3.216  0.00  0.00    -0.006 A 
ATOM     20  C   UNL     1       1.270  -2.612  -2.205  0.00  0.00    +0.058 A 
ATOM     21  C   UNL     1       0.660  -1.997  -1.126  0.00  0.00    +0.162 A 
BRANCH  16  23
ATOM     22  C   UNL     1      -0.017   1.425   0.010  0.00  0.00    +0.277 C 
ATOM     23  O   UNL     1       0.002  -0.004   0.002  0.00  0.00    -0.491 OA
ENDBRANCH  16  23
BRANCH  21  24
ATOM     24  O   UNL     1       0.109  -2.750  -0.137  0.00  0.00    -0.491 OA
ATOM     25  C   UNL     1       0.201  -4.169  -0.273  0.00  0.00    +0.277 C 
ENDBRANCH  21  24
ENDBRANCH   1  19
BRANCH  12  26
ATOM     26  C   UNL     1      -0.882  -0.667  -7.257  0.00  0.00    +0.037 A 
ATOM     27  C   UNL     1      -1.492  -0.050  -6.165  0.00  0.00    +0.015 A 
ATOM     28  C   UNL     1      -2.633   0.704  -6.351  0.00  0.00    +0.033 A 
ATOM     29  C   UNL     1      -3.172   0.848  -7.617  0.00  0.00    +0.126 A 
ATOM     30  C   UNL     1      -2.571   0.239  -8.704  0.00  0.00    +0.033 A 
ATOM     31  C   UNL     1      -1.427  -0.513  -8.532  0.00  0.00    +0.015 A 
BRANCH  29  32
ATOM     32  N   UNL     1      -4.396   1.658  -7.809  0.00  0.00    +0.056 N 
ATOM     33  O   UNL     1      -4.923   2.191  -6.861  0.00  0.00    -0.126 OA
ATOM     34  O   UNL     1      -4.869   1.786  -8.914  0.00  0.00    -0.126 OA
ENDBRANCH  29  32
ENDBRANCH  12  26
BRANCH   2  35
ATOM     35  O   UNL     1       4.184  -3.422  -2.957  0.00  0.00    -0.505 OA
ATOM     36  H   UNL     1       4.979  -3.972  -2.946  0.00  0.00    +0.292 HD
ENDBRANCH   2  35
TORSDOF 6
