REMARK  Name = ZINC36704351
REMARK  12 active torsions:
REMARK  status: ('A' for Active; 'I' for Inactive)
REMARK    1  A    between atoms: C_1  and  C_2
REMARK    2  A    between atoms: C_2  and  C_3
REMARK    3  A    between atoms: N_12  and  C_13
REMARK    4  A    between atoms: C_13  and  C_14
REMARK    5  A    between atoms: C_14  and  N_15
REMARK    6  A    between atoms: N_15  and  C_16
REMARK    7  A    between atoms: N_15  and  C_18
REMARK    8  A    between atoms: C_16  and  C_17
REMARK    9  A    between atoms: C_18  and  C_19
REMARK   10  A    between atoms: C_20  and  C_22
REMARK   11  A    between atoms: N_27  and  S_28
REMARK   12  A    between atoms: S_28  and  C_31
REMARK                            x       y       z     vdW  Elec       q    Type
REMARK                         _______ _______ _______ _____ _____    ______ ____
ROOT
ATOM      1  C   UNL     1       2.107   1.615   1.973  0.00  0.00    -0.046 A 
ATOM      2  C   UNL     1       3.473   1.424   2.126  0.00  0.00    +0.006 A 
ATOM      3  C   UNL     1       3.978   0.612   3.107  0.00  0.00    +0.029 A 
ATOM      4  C   UNL     1       3.115  -0.063   4.002  0.00  0.00    +0.080 A 
ATOM      5  C   UNL     1       1.730   0.155   3.816  0.00  0.00    +0.041 A 
ATOM      6  C   UNL     1       1.234   0.975   2.834  0.00  0.00    +0.021 A 
ATOM      7  S   UNL     1       1.016  -0.841   5.103  0.00  0.00    -0.052 S 
ATOM      8  C   UNL     1       2.547  -1.462   5.783  0.00  0.00    +0.168 A 
ATOM      9  N   UNL     1       3.446  -0.892   5.015  0.00  0.00    -0.224 NA
ATOM     10  N   UNL     1       2.737  -2.327   6.848  0.00  0.00    -0.251 N 
ATOM     11  C   UNL     1       1.680  -2.753   7.567  0.00  0.00    +0.240 C 
ATOM     12  O   UNL     1       1.853  -3.441   8.551  0.00  0.00    -0.273 OA
ENDROOT
BRANCH  11  13
ATOM     13  C   UNL     1       0.282  -2.375   7.149  0.00  0.00    +0.166 C 
ATOM     14  C   UNL     1      -0.140  -3.206   5.919  0.00  0.00    +0.031 C 
ATOM     15  C   UNL     1      -0.962  -4.363   6.548  0.00  0.00    +0.019 C 
ATOM     16  C   UNL     1      -1.664  -3.641   7.725  0.00  0.00    +0.110 C 
ATOM     17  N   UNL     1      -0.664  -2.679   8.232  0.00  0.00    -0.164 NA
BRANCH  17  18
ATOM     18  S   UNL     1      -0.613  -2.050   9.763  0.00  0.00    +0.068 S 
ATOM     19  O   UNL     1      -1.294  -2.971  10.603  0.00  0.00    -0.152 OA
ATOM     20  O   UNL     1       0.733  -1.658   9.996  0.00  0.00    -0.152 OA
BRANCH  18  21
ATOM     21  C   UNL     1      -1.573  -0.573   9.751  0.00  0.00    +0.143 A 
ATOM     22  C   UNL     1      -2.895  -0.412  10.008  0.00  0.00    +0.036 A 
ATOM     23  C   UNL     1      -3.441   0.856   9.940  0.00  0.00    +0.010 A 
ATOM     24  C   UNL     1      -2.640   1.901   9.619  0.00  0.00    +0.047 A 
ATOM     25  S   UNL     1      -1.058   1.101   9.407  0.00  0.00    -0.077 S 
ENDBRANCH  18  21
ENDBRANCH  17  18
ENDBRANCH  11  13
BRANCH   1  27
ATOM     26  C   UNL     1       1.465   3.944   1.416  0.00  0.00    +0.009 C 
ATOM     27  C   UNL     1       1.581   2.514   0.885  0.00  0.00    +0.032 C 
ENDBRANCH   1  27
BRANCH  10  28
ATOM     28  C   UNL     1       4.088  -2.778   7.194  0.00  0.00    +0.097 C 
BRANCH  28  29
ATOM     29  C   UNL     1       4.662  -1.876   8.289  0.00  0.00    -0.059 C 
BRANCH  29  30
ATOM     30  N   UNL     1       5.961  -2.404   8.727  0.00  0.00    +0.380 N 
ATOM     31  H   UNL     1       5.854  -3.366   9.013  0.00  0.00    -0.082 HD
BRANCH  30  32
ATOM     32  C   UNL     1       6.920  -2.327   7.617  0.00  0.00    -0.082 C 
ATOM     33  C   UNL     1       8.223  -3.021   8.020  0.00  0.00    -0.017 C 
ENDBRANCH  30  32
BRANCH  30  34
ATOM     34  C   UNL     1       6.456  -1.609   9.858  0.00  0.00    -0.082 C 
ATOM     35  C   UNL     1       5.538  -1.812  11.065  0.00  0.00    -0.017 C 
ENDBRANCH  30  34
ENDBRANCH  29  30
ENDBRANCH  28  29
ENDBRANCH  10  28
TORSDOF 9
