REMARK  Name = ZINC14655696
REMARK  10 active torsions:
REMARK  status: ('A' for Active; 'I' for Inactive)
REMARK    1  A    between atoms: C_1  and  C_2
REMARK    2  A    between atoms: C_2  and  O_3
REMARK    3  A    between atoms: O_3  and  C_4
REMARK    4  A    between atoms: C_9  and  C_10
REMARK    5  A    between atoms: N_12  and  C_13
REMARK    6  A    between atoms: C_13  and  N_15
REMARK    7  A    between atoms: N_15  and  N_16
REMARK    8  A    between atoms: C_17  and  C_19
REMARK    9  A    between atoms: C_19  and  O_20
REMARK   10  A    between atoms: O_20  and  C_21
REMARK                            x       y       z     vdW  Elec       q    Type
REMARK                         _______ _______ _______ _____ _____    ______ ____
ROOT
ATOM      1  N   UNL     1       3.512   7.343   0.007  0.00  0.00    -0.245 N 
ATOM      2  H   UNL     1       4.342   7.846   0.003  0.00  0.00    +0.172 HD
ENDROOT
BRANCH   1   3
ATOM      3  N   UNL     1       2.284   8.018   0.022  0.00  0.00    -0.232 N 
ATOM      4  C   UNL     1       2.256   9.365   0.029  0.00  0.00    +0.267 C 
ATOM      5  O   UNL     1       3.293   9.994   0.023  0.00  0.00    -0.271 OA
ATOM      6  H   UNL     1       1.455   7.515   0.027  0.00  0.00    +0.173 HD
BRANCH   4   7
ATOM      7  C   UNL     1       0.935  10.091   0.044  0.00  0.00    +0.326 C 
BRANCH   7   8
ATOM      8  O   UNL     1       1.167  11.501   0.050  0.00  0.00    -0.483 OA
BRANCH   8   9
ATOM      9  C   UNL     1       0.072  12.306   0.063  0.00  0.00    +0.122 A 
ATOM     10  C   UNL     1      -1.204  11.735   0.066  0.00  0.00    +0.046 A 
ATOM     11  C   UNL     1      -2.318  12.514   0.086  0.00  0.00    +0.012 A 
ATOM     12  C   UNL     1      -2.190  13.914   0.092  0.00  0.00    -0.018 A 
ATOM     13  C   UNL     1      -3.321  14.749   0.105  0.00  0.00    +0.008 A 
ATOM     14  C   UNL     1      -3.160  16.101   0.111  0.00  0.00    +0.001 A 
ATOM     15  C   UNL     1      -1.889  16.672   0.102  0.00  0.00    +0.001 A 
ATOM     16  C   UNL     1      -0.772  15.896   0.088  0.00  0.00    +0.008 A 
ATOM     17  C   UNL     1      -0.898  14.495   0.083  0.00  0.00    -0.014 A 
ATOM     18  C   UNL     1       0.233  13.662   0.069  0.00  0.00    +0.054 A 
ENDBRANCH   8   9
ENDBRANCH   7   8
ENDBRANCH   4   7
ENDBRANCH   1   3
BRANCH   1  19
ATOM     19  C   UNL     1       3.541   5.996   0.001  0.00  0.00    +0.153 C 
ATOM     20  S   UNL     1       5.041   5.171  -0.017  0.00  0.00    -0.017 S 
BRANCH  19  23
ATOM     21  C   UNL     1       2.416   3.950   0.000  0.00  0.00    +0.253 C 
ATOM     22  O   UNL     1       3.481   3.365  -0.012  0.00  0.00    -0.270 OA
ATOM     23  N   UNL     1       2.388   5.298   0.007  0.00  0.00    -0.263 N 
ATOM     24  H   UNL     1       1.538   5.765   0.017  0.00  0.00    +0.157 HD
BRANCH  21  30
ATOM     25  C   UNL     1       1.180   1.785   0.000  0.00  0.00    +0.133 A 
ATOM     26  C   UNL     1      -0.013   1.076   0.008  0.00  0.00    +0.047 A 
ATOM     27  C   UNL     1      -1.218   1.749   0.017  0.00  0.00    +0.019 A 
ATOM     28  C   UNL     1      -1.247   3.135   0.030  0.00  0.00    +0.019 A 
ATOM     29  C   UNL     1      -0.072   3.855   0.022  0.00  0.00    +0.032 A 
ATOM     30  C   UNL     1       1.155   3.186   0.008  0.00  0.00    +0.080 A 
ATOM     31 BR   UNL     1      -2.907   4.041   0.050  0.00  0.00    -0.050 Br
BRANCH  25  32
ATOM     32  O   UNL     1       2.365   1.124  -0.015  0.00  0.00    -0.491 OA
BRANCH  32  34
ATOM     33  C   UNL     1       3.734  -0.867  -0.038  0.00  0.00    +0.048 C 
ATOM     34  C   UNL     1       2.312  -0.304  -0.022  0.00  0.00    +0.226 C 
ENDBRANCH  32  34
ENDBRANCH  25  32
ENDBRANCH  21  30
ENDBRANCH  19  23
ENDBRANCH   1  19
TORSDOF 9
