REMARK  Name = ZINC49463831
REMARK  3 active torsions:
REMARK  status: ('A' for Active; 'I' for Inactive)
REMARK    1  A    between atoms: C_6  and  N_7
REMARK    2  A    between atoms: N_7  and  S_8
REMARK    3  A    between atoms: S_8  and  C_11
REMARK                            x       y       z     vdW  Elec       q    Type
REMARK                         _______ _______ _______ _____ _____    ______ ____
ROOT
ATOM      1  C   UNL     1      -0.017   1.387   0.010  0.00  0.00    +0.028 A 
ATOM      2  C   UNL     1       1.168   2.097   0.002  0.00  0.00    +0.048 A 
ATOM      3  C   UNL     1       2.378   1.426  -0.015  0.00  0.00    +0.133 A 
ATOM      4  C   UNL     1       2.410   0.025  -0.028  0.00  0.00    +0.080 A 
ATOM      5  C   UNL     1       1.206  -0.686  -0.016  0.00  0.00    +0.041 A 
ATOM      6  C   UNL     1       0.002  -0.004   0.002  0.00  0.00    +0.049 A 
ATOM      7  C   UNL     1       3.690  -0.696  -0.064  0.00  0.00    +0.250 C 
ATOM      8  O   UNL     1       3.950  -1.496   0.814  0.00  0.00    -0.270 OA
ATOM      9  N   UNL     1       4.581  -0.486  -1.054  0.00  0.00    -0.294 N 
ATOM     10  C   UNL     1       5.888  -1.141  -0.991  0.00  0.00    +0.108 C 
ATOM     11  C   UNL     1       6.219  -1.774  -2.342  0.00  0.00    +0.019 C 
ATOM     12  C   UNL     1       6.086  -0.718  -3.441  0.00  0.00    +0.003 C 
ATOM     13  C   UNL     1       4.644  -0.223  -3.504  0.00  0.00    +0.023 C 
ATOM     14  C   UNL     1       4.223   0.384  -2.171  0.00  0.00    +0.080 C 
ATOM     15  C   UNL     1       4.898   1.748  -1.996  0.00  0.00    +0.063 C 
ATOM     16  C   UNL     1       3.954   2.695  -1.257  0.00  0.00    +0.231 C 
ATOM     17  O   UNL     1       3.550   2.117  -0.014  0.00  0.00    -0.491 OA
ENDROOT
BRANCH   6  18
ATOM     18  N   UNL     1      -1.202  -0.717   0.013  0.00  0.00    -0.220 N 
ATOM     19  H   UNL     1      -1.310  -1.478   0.605  0.00  0.00    +0.173 HD
BRANCH  18  20
ATOM     20  S   UNL     1      -2.444  -0.261  -0.983  0.00  0.00    +0.046 S 
ATOM     21  O   UNL     1      -3.495  -1.173  -0.693  0.00  0.00    -0.155 OA
ATOM     22  O   UNL     1      -2.607   1.131  -0.746  0.00  0.00    -0.155 OA
BRANCH  20  23
ATOM     23  C   UNL     1      -1.820  -0.539  -2.663  0.00  0.00    +0.151 C 
ATOM     24  C   UNL     1      -0.502   0.215  -2.849  0.00  0.00    +0.028 C 
ATOM     25  C   UNL     1       0.024  -0.020  -4.267  0.00  0.00    +0.002 C 
ATOM     26  C   UNL     1      -1.001   0.487  -5.282  0.00  0.00    +0.000 C 
ATOM     27  C   UNL     1      -2.320  -0.267  -5.096  0.00  0.00    +0.002 C 
ATOM     28  C   UNL     1      -2.846  -0.032  -3.679  0.00  0.00    +0.028 C 
ENDBRANCH  20  23
ENDBRANCH  18  20
ENDBRANCH   6  18
TORSDOF 3
