REMARK  Name = ZINC01088703
REMARK  5 active torsions:
REMARK  status: ('A' for Active; 'I' for Inactive)
REMARK    1  A    between atoms: C_1  and  C_2
REMARK    2  A    between atoms: C_7  and  N_8
REMARK    3  A    between atoms: C_9  and  C_11
REMARK    4  A    between atoms: C_22  and  C_36
REMARK    5  A    between atoms: C_29  and  C_30
REMARK                            x       y       z     vdW  Elec       q    Type
REMARK                         _______ _______ _______ _____ _____    ______ ____
ROOT
ATOM      1  C   UNL     1      -1.283   7.296  -0.084  0.00  0.00    +0.169 C 
ATOM      2  C   UNL     1      -2.733   7.805  -0.020  0.00  0.00    +0.144 C 
ATOM      3  C   UNL     1      -3.226   7.641   1.401  0.00  0.00    +0.018 A 
ATOM      4  C   UNL     1      -4.587   7.554   1.630  0.00  0.00    +0.009 A 
ATOM      5  C   UNL     1      -5.068   7.429   2.920  0.00  0.00    +0.001 A 
ATOM      6  C   UNL     1      -4.185   7.393   3.983  0.00  0.00    +0.004 A 
ATOM      7  C   UNL     1      -2.826   7.474   3.758  0.00  0.00    +0.046 A 
ATOM      8  C   UNL     1      -2.337   7.595   2.459  0.00  0.00    +0.129 A 
ATOM      9  O   UNL     1      -0.994   7.660   2.280  0.00  0.00    -0.464 OA
ATOM     10  C   UNL     1      -0.475   8.012   1.004  0.00  0.00    +0.215 C 
ATOM     11  N   UNL     1      -0.533   9.461   0.790  0.00  0.00    -0.214 NA
ATOM     12  C   UNL     1      -1.555   9.971   0.187  0.00  0.00    +0.176 A 
ATOM     13  N   UNL     1      -2.671   9.277  -0.268  0.00  0.00    -0.278 N 
ATOM     14  C   UNL     1      -3.627   9.956  -0.895  0.00  0.00    +0.268 A 
ATOM     15  O   UNL     1      -4.616   9.393  -1.328  0.00  0.00    -0.266 OA
ATOM     16  C   UNL     1      -3.453  11.408  -1.051  0.00  0.00    +0.081 A 
ATOM     17  C   UNL     1      -4.275  12.316  -1.637  0.00  0.00    +0.031 C 
ATOM     18  S   UNL     1      -1.868  11.657  -0.262  0.00  0.00    -0.046 S 
ATOM     19  C   UNL     1       0.988   7.570   0.916  0.00  0.00    +0.084 C 
ENDROOT
BRANCH  17  20
ATOM     20  C   UNL     1      -3.894  13.733  -1.677  0.00  0.00    +0.014 A 
ATOM     21  C   UNL     1      -4.655  14.843  -2.272  0.00  0.00    +0.049 A 
ATOM     22  C   UNL     1      -3.920  15.947  -2.068  0.00  0.00    +0.195 A 
ATOM     23  O   UNL     1      -2.793  15.613  -1.420  0.00  0.00    -0.470 OA
ATOM     24  C   UNL     1      -2.754  14.297  -1.176  0.00  0.00    +0.202 A 
ENDBRANCH  17  20
BRANCH   1  26
ATOM     25  N   UNL     1      -0.135   5.105  -0.093  0.00  0.00    -0.285 N 
ATOM     26  C   UNL     1      -1.256   5.809   0.159  0.00  0.00    +0.228 C 
ATOM     27  O   UNL     1      -2.244   5.245   0.581  0.00  0.00    -0.275 OA
ATOM     28  H   UNL     1       0.663   5.560  -0.406  0.00  0.00    +0.155 HD
BRANCH  25  35
ATOM     29  C   UNL     1       1.943   3.601  -1.325  0.00  0.00    +0.045 C 
ATOM     30  C   UNL     1       0.875   2.947  -0.488  0.00  0.00    -0.029 A 
ATOM     31  C   UNL     1       0.885   1.578  -0.300  0.00  0.00    +0.005 A 
ATOM     32  C   UNL     1      -0.096   0.977   0.468  0.00  0.00    +0.000 A 
ATOM     33  C   UNL     1      -1.092   1.743   1.046  0.00  0.00    +0.002 A 
ATOM     34  C   UNL     1      -1.104   3.112   0.867  0.00  0.00    +0.023 A 
ATOM     35  C   UNL     1      -0.121   3.719   0.096  0.00  0.00    +0.036 A 
ENDBRANCH  25  35
ENDBRANCH   1  26
TORSDOF 3
