REMARK  Name = ZINC59786333
REMARK  7 active torsions:
REMARK  status: ('A' for Active; 'I' for Inactive)
REMARK    1  A    between atoms: C_1  and  C_2
REMARK    2  A    between atoms: N_4  and  C_5
REMARK    3  A    between atoms: C_13  and  C_16
REMARK    4  A    between atoms: C_17  and  C_18
REMARK    5  A    between atoms: N_20  and  C_21
REMARK    6  A    between atoms: C_21  and  C_22
REMARK    7  A    between atoms: C_25  and  N_28
REMARK                            x       y       z     vdW  Elec       q    Type
REMARK                         _______ _______ _______ _____ _____    ______ ____
ROOT
ATOM      1  C   UNL     1       0.063   3.320  -3.977  0.00  0.00    +0.033 C 
ATOM      2  C   UNL     1      -0.119   4.138  -2.915  0.00  0.00    +0.069 C 
ENDROOT
BRANCH   1   9
ATOM      3  C   UNL     1       0.069  -0.779   1.303  0.00  0.00    +0.110 C 
ATOM      4  C   UNL     1       0.017  -0.011   0.007  0.00  0.00    +0.223 C 
ATOM      5  O   UNL     1      -0.102   1.196   0.021  0.00  0.00    -0.275 OA
ATOM      6  N   UNL     1       0.102  -0.666  -1.167  0.00  0.00    -0.219 N 
ATOM      7  C   UNL     1       0.168   0.048  -2.358  0.00  0.00    +0.172 A 
ATOM      8  N   UNL     1       0.079   1.347  -2.554  0.00  0.00    -0.225 NA
ATOM      9  C   UNL     1       0.165   1.871  -3.778  0.00  0.00    +0.073 A 
ATOM     10  C   UNL     1       0.351   1.028  -4.850  0.00  0.00    +0.076 A 
ATOM     11  S   UNL     1       0.405  -0.556  -4.023  0.00  0.00    -0.059 S 
BRANCH   6  12
ATOM     12  C   UNL     1       0.123  -2.067  -1.189  0.00  0.00    +0.043 A 
ATOM     13  C   UNL     1      -0.994  -2.786  -0.783  0.00  0.00    +0.024 A 
ATOM     14  C   UNL     1      -0.969  -4.167  -0.805  0.00  0.00    +0.002 A 
ATOM     15  C   UNL     1       0.165  -4.833  -1.230  0.00  0.00    +0.000 A 
ATOM     16  C   UNL     1       1.279  -4.120  -1.634  0.00  0.00    +0.002 A 
ATOM     17  C   UNL     1       1.259  -2.739  -1.621  0.00  0.00    +0.024 A 
ENDBRANCH   6  12
ENDBRANCH   1   9
BRANCH   2  18
ATOM     18  C   UNL     1      -0.218   5.538  -3.108  0.00  0.00    +0.237 C 
ATOM     19  O   UNL     1      -0.138   6.005  -4.230  0.00  0.00    -0.271 OA
ATOM     20  N   UNL     1      -0.400   6.353  -2.050  0.00  0.00    -0.308 N 
ATOM     21  H   UNL     1      -0.463   5.980  -1.156  0.00  0.00    +0.149 HD
BRANCH  20  22
ATOM     22  C   UNL     1      -0.501   7.800  -2.249  0.00  0.00    +0.139 C 
BRANCH  22  23
ATOM     23  C   UNL     1      -0.701   8.478  -0.918  0.00  0.00    -0.030 A 
ATOM     24  C   UNL     1      -1.978   8.683  -0.431  0.00  0.00    +0.007 A 
ATOM     25  C   UNL     1      -2.161   9.305   0.790  0.00  0.00    +0.033 A 
ATOM     26  C   UNL     1      -1.066   9.721   1.524  0.00  0.00    +0.126 A 
ATOM     27  C   UNL     1       0.211   9.515   1.038  0.00  0.00    +0.033 A 
ATOM     28  C   UNL     1       0.394   8.890  -0.181  0.00  0.00    +0.007 A 
BRANCH  26  29
ATOM     29  N   UNL     1      -1.262  10.387   2.831  0.00  0.00    +0.056 N 
ATOM     30  O   UNL     1      -2.379  10.568   3.257  0.00  0.00    -0.126 OA
ATOM     31  O   UNL     1      -0.304  10.752   3.474  0.00  0.00    -0.126 OA
ENDBRANCH  26  29
ENDBRANCH  22  23
ENDBRANCH  20  22
ENDBRANCH   2  18
TORSDOF 6
