REMARK  Name = ZINC09278707
REMARK  10 active torsions:
REMARK  status: ('A' for Active; 'I' for Inactive)
REMARK    1  A    between atoms: C_1  and  C_2
REMARK    2  A    between atoms: C_5  and  N_9
REMARK    3  A    between atoms: C_6  and  C_8
REMARK    4  A    between atoms: C_10  and  C_12
REMARK    5  A    between atoms: C_12  and  S_13
REMARK    6  A    between atoms: S_13  and  C_14
REMARK    7  A    between atoms: C_17  and  C_26
REMARK    8  A    between atoms: N_18  and  C_19
REMARK    9  A    between atoms: C_24  and  C_25
REMARK   10  A    between atoms: C_26  and  N_27
REMARK                            x       y       z     vdW  Elec       q    Type
REMARK                         _______ _______ _______ _____ _____    ______ ____
ROOT
ATOM      1  C   UNL     1      -6.314   2.242  -0.324  0.00  0.00    +0.197 A 
ATOM      2  N   UNL     1      -6.486   3.539  -0.211  0.00  0.00    -0.122 NA
ATOM      3  N   UNL     1      -7.735   3.825  -0.313  0.00  0.00    -0.131 NA
ATOM      4  C   UNL     1      -8.432   2.737  -0.486  0.00  0.00    +0.159 A 
ATOM      5  N   UNL     1      -7.552   1.688  -0.499  0.00  0.00    -0.272 N 
ENDROOT
BRANCH   5   6
ATOM      6  C   UNL     1      -7.857   0.328  -0.658  0.00  0.00    +0.053 A 
ATOM      7  C   UNL     1      -8.269  -0.425   0.433  0.00  0.00    +0.026 A 
ATOM      8  C   UNL     1      -8.569  -1.764   0.273  0.00  0.00    +0.002 A 
ATOM      9  C   UNL     1      -8.459  -2.354  -0.973  0.00  0.00    +0.000 A 
ATOM     10  C   UNL     1      -8.049  -1.607  -2.062  0.00  0.00    +0.005 A 
ATOM     11  C   UNL     1      -7.753  -0.266  -1.909  0.00  0.00    -0.027 A 
ATOM     12  C   UNL     1      -7.312   0.549  -3.097  0.00  0.00    +0.046 C 
ENDBRANCH   5   6
BRANCH   1  13
ATOM     13  S   UNL     1      -4.779   1.379  -0.254  0.00  0.00    -0.076 S 
BRANCH  13  14
ATOM     14  C   UNL     1      -3.647   2.770  -0.009  0.00  0.00    +0.173 C 
BRANCH  14  16
ATOM     15  N   UNL     1      -1.214   3.119   0.266  0.00  0.00    -0.285 N 
ATOM     16  C   UNL     1      -2.233   2.257   0.082  0.00  0.00    +0.227 C 
ATOM     17  O   UNL     1      -2.012   1.068  -0.009  0.00  0.00    -0.275 OA
ATOM     18  H   UNL     1      -1.395   4.061   0.408  0.00  0.00    +0.155 HD
BRANCH  15  23
ATOM     19  C   UNL     1       4.136   1.232   0.191  0.00  0.00    +0.044 C 
ATOM     20  C   UNL     1       2.715   1.734   0.212  0.00  0.00    -0.050 A 
ATOM     21  C   UNL     1       1.708   0.935   0.723  0.00  0.00    +0.005 A 
ATOM     22  C   UNL     1       0.405   1.392   0.744  0.00  0.00    +0.024 A 
ATOM     23  C   UNL     1       0.106   2.655   0.251  0.00  0.00    +0.036 A 
ATOM     24  C   UNL     1       1.119   3.455  -0.261  0.00  0.00    -0.029 A 
ATOM     25  C   UNL     1       2.420   2.992  -0.280  0.00  0.00    +0.008 A 
ATOM     26  C   UNL     1       0.799   4.827  -0.797  0.00  0.00    +0.045 C 
ENDBRANCH  15  23
ENDBRANCH  14  16
ENDBRANCH  13  14
ENDBRANCH   1  13
BRANCH   4  27
ATOM     27  C   UNL     1      -9.928   2.651  -0.643  0.00  0.00    +0.202 C 
BRANCH  27  28
ATOM     28  N   UNL     1     -10.287   2.901  -2.042  0.00  0.00    -0.294 N 
ATOM     29  C   UNL     1     -10.430   4.203  -2.490  0.00  0.00    +0.060 A 
ATOM     30  C   UNL     1     -10.259   5.388  -1.755  0.00  0.00    +0.027 A 
ATOM     31  C   UNL     1     -10.431   6.617  -2.347  0.00  0.00    +0.002 A 
ATOM     32  C   UNL     1     -10.773   6.728  -3.684  0.00  0.00    +0.001 A 
ATOM     33  C   UNL     1     -10.943   5.577  -4.434  0.00  0.00    +0.017 A 
ATOM     34  C   UNL     1     -10.771   4.350  -3.843  0.00  0.00    +0.041 A 
ATOM     35  S   UNL     1     -10.887   2.672  -4.415  0.00  0.00    -0.027 S 
ATOM     36  C   UNL     1     -10.482   1.861  -2.876  0.00  0.00    +0.292 A 
ATOM     37  O   UNL     1     -10.401   0.669  -2.641  0.00  0.00    -0.259 OA
ENDBRANCH  27  28
ENDBRANCH   4  27
TORSDOF 7
