REMARK  Name = ZINC36316153
REMARK  18 active torsions:
REMARK  status: ('A' for Active; 'I' for Inactive)
REMARK    1  A    between atoms: C_1  and  C_2
REMARK    2  A    between atoms: C_2  and  C_3
REMARK    3  A    between atoms: C_3  and  N_4
REMARK    4  A    between atoms: N_4  and  C_5
REMARK    5  A    between atoms: N_4  and  C_27
REMARK    6  A    between atoms: C_5  and  C_6
REMARK    7  A    between atoms: C_7  and  C_21
REMARK    8  A    between atoms: N_9  and  C_20
REMARK    9  A    between atoms: C_10  and  O_11
REMARK   10  A    between atoms: O_11  and  C_12
REMARK   11  A    between atoms: C_27  and  C_28
REMARK   12  A    between atoms: C_28  and  C_30
REMARK   13  A    between atoms: C_28  and  O_36
REMARK   14  A    between atoms: C_30  and  O_31
REMARK   15  A    between atoms: O_31  and  C_32
REMARK   16  A    between atoms: C_32  and  C_33
REMARK   17  A    between atoms: C_32  and  C_34
REMARK   18  A    between atoms: C_32  and  C_35
REMARK                            x       y       z     vdW  Elec       q    Type
REMARK                         _______ _______ _______ _____ _____    ______ ____
ROOT
ATOM      1  C   UNL     1       1.049  -4.035   0.240  0.00  0.00    +0.025 A 
ATOM      2  C   UNL     1       1.950  -5.011   0.707  0.00  0.00    +0.098 A 
ATOM      3  N   UNL     1       1.523  -6.188   0.304  0.00  0.00    -0.168 NA
ATOM      4  N   UNL     1       0.344  -6.002  -0.428  0.00  0.00    -0.235 N 
ATOM      5  C   UNL     1       0.068  -4.672  -0.450  0.00  0.00    +0.221 A 
ATOM      6  C   UNL     1      -0.456  -7.056  -1.056  0.00  0.00    +0.176 C 
ENDROOT
BRANCH   2   7
ATOM      7  C   UNL     1       3.169  -4.755   1.514  0.00  0.00    +0.002 A 
ATOM      8  C   UNL     1       4.014  -3.696   1.189  0.00  0.00    +0.010 A 
ATOM      9  C   UNL     1       5.146  -3.464   1.942  0.00  0.00    +0.001 A 
ATOM     10  C   UNL     1       5.443  -4.280   3.019  0.00  0.00    +0.000 A 
ATOM     11  C   UNL     1       4.608  -5.332   3.347  0.00  0.00    +0.001 A 
ATOM     12  C   UNL     1       3.469  -5.570   2.604  0.00  0.00    +0.010 A 
ENDBRANCH   2   7
BRANCH   1  13
ATOM     13  C   UNL     1       1.151  -2.549   0.471  0.00  0.00    -0.035 C 
BRANCH  13  14
ATOM     14  N   UNL     1       0.314  -2.173   1.618  0.00  0.00    +0.384 N 
ATOM     15  H   UNL     1      -0.628  -2.501   1.469  0.00  0.00    -0.081 HD
BRANCH  14  16
ATOM     16  C   UNL     1       0.307  -0.711   1.760  0.00  0.00    -0.079 C 
BRANCH  16  18
ATOM     17  C   UNL     1      -0.509   1.427   0.757  0.00  0.00    +0.002 C 
ATOM     18  C   UNL     1      -0.385  -0.084   0.548  0.00  0.00    -0.022 C 
ENDBRANCH  16  18
ENDBRANCH  14  16
BRANCH  14  19
ATOM     19  C   UNL     1       0.857  -2.781   2.840  0.00  0.00    -0.044 C 
BRANCH  19  20
ATOM     20  C   UNL     1      -0.081  -2.494   4.014  0.00  0.00    +0.124 C 
BRANCH  20  21
ATOM     21  O   UNL     1      -1.334  -3.144   3.792  0.00  0.00    -0.391 OA
ATOM     22  H   UNL     1      -1.269  -4.105   3.708  0.00  0.00    +0.210 HD
ENDBRANCH  20  21
BRANCH  20  23
ATOM     23  C   UNL     1       0.544  -3.018   5.308  0.00  0.00    +0.189 C 
BRANCH  23  24
ATOM     24  O   UNL     1      -0.276  -2.647   6.418  0.00  0.00    -0.372 OA
BRANCH  24  25
ATOM     25  C   UNL     1       0.221  -3.091   7.681  0.00  0.00    +0.061 C 
ATOM     26  C   UNL     1       1.607  -2.490   7.924  0.00  0.00    +0.041 C 
ATOM     27  C   UNL     1      -0.731  -2.640   8.791  0.00  0.00    +0.041 C 
ATOM     28  C   UNL     1       0.320  -4.618   7.683  0.00  0.00    +0.041 C 
ENDBRANCH  24  25
ENDBRANCH  23  24
ENDBRANCH  20  23
ENDBRANCH  19  20
ENDBRANCH  14  19
ENDBRANCH  13  14
ENDBRANCH   1  13
BRANCH   5  29
ATOM     29  O   UNL     1      -0.995  -4.085  -1.056  0.00  0.00    -0.435 OA
BRANCH  29  30
ATOM     30  C   UNL     1      -0.889  -3.780  -2.377  0.00  0.00    +0.166 A 
ATOM     31  C   UNL     1       0.237  -4.163  -3.090  0.00  0.00    +0.052 A 
ATOM     32  C   UNL     1       0.343  -3.853  -4.432  0.00  0.00    +0.042 A 
ATOM     33  C   UNL     1      -0.673  -3.160  -5.066  0.00  0.00    +0.126 A 
ATOM     34  C   UNL     1      -1.799  -2.776  -4.358  0.00  0.00    +0.080 A 
ATOM     35  C   UNL     1      -1.912  -3.089  -3.015  0.00  0.00    +0.168 A 
ATOM     36  F   UNL     1      -3.012  -2.720  -2.324  0.00  0.00    -0.202 F 
ATOM     37  F   UNL     1      -0.567  -2.857  -6.379  0.00  0.00    -0.205 F 
ENDBRANCH  29  30
ENDBRANCH   5  29
TORSDOF 13
