REMARK  Name = ZINC02452801
REMARK  15 active torsions:
REMARK  status: ('A' for Active; 'I' for Inactive)
REMARK    1  A    between atoms: C_1  and  C_2
REMARK    2  A    between atoms: C_5  and  C_9
REMARK    3  A    between atoms: C_7  and  C_8
REMARK    4  A    between atoms: C_11  and  C_15
REMARK    5  A    between atoms: N_17  and  N_18
REMARK    6  A    between atoms: C_19  and  C_20
REMARK    7  A    between atoms: C_22  and  C_31
REMARK    8  A    between atoms: C_23  and  O_30
REMARK    9  A    between atoms: C_24  and  C_26
REMARK   10  A    between atoms: C_26  and  C_27
REMARK   11  A    between atoms: C_26  and  C_28
REMARK   12  A    between atoms: C_26  and  C_29
REMARK   13  A    between atoms: C_31  and  C_32
REMARK   14  A    between atoms: C_31  and  C_33
REMARK   15  A    between atoms: C_31  and  C_34
REMARK                            x       y       z     vdW  Elec       q    Type
REMARK                         _______ _______ _______ _____ _____    ______ ____
ROOT
ATOM      1  C   UNL     1       7.280   2.658  -0.180  0.00  0.00    +0.281 C 
ATOM      2  O   UNL     1       7.854   1.592  -0.297  0.00  0.00    -0.267 OA
ATOM      3  N   UNL     1       7.989   3.803  -0.127  0.00  0.00    -0.202 N 
ATOM      4  H   UNL     1       7.469   4.767  -0.021  0.00  0.00    +0.178 HD
ENDROOT
BRANCH   1   7
ATOM      5  C   UNL     1       3.660   2.165  -0.022  0.00  0.00    +0.093 A 
ATOM      6  C   UNL     1       4.951   1.616  -0.136  0.00  0.00    +0.062 A 
ATOM      7  C   UNL     1       5.811   2.697  -0.097  0.00  0.00    +0.122 A 
ATOM      8  N   UNL     1       5.029   3.810   0.036  0.00  0.00    -0.272 N 
ATOM      9  H   UNL     1       5.493   4.805   0.094  0.00  0.00    +0.189 HD
ATOM     10  N   UNL     1       3.790   3.471   0.071  0.00  0.00    -0.173 NA
BRANCH   5  15
ATOM     11  C   UNL     1      -1.294  -0.773   0.010  0.00  0.00    +0.044 C 
ATOM     12  C   UNL     1       0.002  -0.004   0.002  0.00  0.00    -0.047 A 
ATOM     13  C   UNL     1       1.206  -0.684  -0.013  0.00  0.00    +0.004 A 
ATOM     14  C   UNL     1       2.397   0.014  -0.021  0.00  0.00    +0.010 A 
ATOM     15  C   UNL     1       2.383   1.408  -0.013  0.00  0.00    +0.002 A 
ATOM     16  C   UNL     1       1.168   2.088   0.002  0.00  0.00    +0.013 A 
ATOM     17  C   UNL     1      -0.017   1.379   0.010  0.00  0.00    -0.047 A 
ATOM     18  C   UNL     1      -1.333   2.113   0.020  0.00  0.00    +0.044 C 
ENDBRANCH   5  15
ENDBRANCH   1   7
BRANCH   3  19
ATOM     19  N   UNL     1       9.387   3.765  -0.206  0.00  0.00    -0.187 NA
ATOM     20  C   UNL     1      10.070   4.868  -0.155  0.00  0.00    +0.138 C 
BRANCH  20  21
ATOM     21  C   UNL     1      11.541   4.829  -0.239  0.00  0.00    -0.005 A 
ATOM     22  C   UNL     1      12.203   3.605  -0.368  0.00  0.00    +0.017 A 
ATOM     23  C   UNL     1      13.578   3.574  -0.451  0.00  0.00    +0.000 A 
ATOM     24  C   UNL     1      14.307   4.755  -0.396  0.00  0.00    +0.124 A 
ATOM     25  C   UNL     1      13.653   5.973  -0.263  0.00  0.00    +0.000 A 
ATOM     26  C   UNL     1      12.278   6.015  -0.184  0.00  0.00    +0.017 A 
BRANCH  25  27
ATOM     27  C   UNL     1      14.449   7.251  -0.203  0.00  0.00    -0.009 C 
ATOM     28  C   UNL     1      13.496   8.439  -0.055  0.00  0.00    +0.015 C 
ATOM     29  C   UNL     1      15.398   7.206   0.997  0.00  0.00    +0.015 C 
ATOM     30  C   UNL     1      15.262   7.407  -1.490  0.00  0.00    +0.015 C 
ENDBRANCH  25  27
BRANCH  23  31
ATOM     31  C   UNL     1      14.293   2.255  -0.595  0.00  0.00    -0.009 C 
ATOM     32  C   UNL     1      13.268   1.120  -0.630  0.00  0.00    +0.015 C 
ATOM     33  C   UNL     1      15.101   2.252  -1.894  0.00  0.00    +0.015 C 
ATOM     34  C   UNL     1      15.236   2.054   0.593  0.00  0.00    +0.015 C 
ENDBRANCH  23  31
BRANCH  24  35
ATOM     35  O   UNL     1      15.662   4.718  -0.473  0.00  0.00    -0.506 OA
ATOM     36  H   UNL     1      16.241   5.653  -0.430  0.00  0.00    +0.292 HD
ENDBRANCH  24  35
ENDBRANCH  20  21
ENDBRANCH   3  19
TORSDOF 7
