REMARK  Name = ZINC03593397
REMARK  10 active torsions:
REMARK  status: ('A' for Active; 'I' for Inactive)
REMARK    1  A    between atoms: C_1  and  C_2
REMARK    2  A    between atoms: C_2  and  C_3
REMARK    3  A    between atoms: C_2  and  C_4
REMARK    4  A    between atoms: C_4  and  N_5
REMARK    5  A    between atoms: N_7  and  C_30
REMARK    6  A    between atoms: C_15  and  C_16
REMARK    7  A    between atoms: C_15  and  N_74
REMARK    8  A    between atoms: C_16  and  C_17
REMARK    9  A    between atoms: C_16  and  C_18
REMARK   10  A    between atoms: C_16  and  C_25
REMARK                            x       y       z     vdW  Elec       q    Type
REMARK                         _______ _______ _______ _____ _____    ______ ____
ROOT
ATOM      1  N   UNL     1       3.381   5.615   2.353  0.00  0.00    -0.284 N 
ATOM      2  C   UNL     1       2.838   4.277   2.087  0.00  0.00    +0.217 C 
ATOM      3  N   UNL     1       2.385   4.290   0.676  0.00  0.00    -0.300 N 
ATOM      4  C   UNL     1       2.082   5.716   0.434  0.00  0.00    +0.109 C 
ATOM      5  C   UNL     1       2.947   6.476   1.409  0.00  0.00    +0.240 C 
ATOM      6  O   UNL     1       3.208   7.659   1.352  0.00  0.00    -0.273 OA
ATOM      7  C   UNL     1       0.606   5.992   0.704  0.00  0.00    +0.017 C 
ATOM      8  C   UNL     1       0.303   7.463   0.406  0.00  0.00    -0.076 C 
ATOM      9  C   UNL     1       2.077   7.560  -1.244  0.00  0.00    -0.076 C 
ATOM     10  C   UNL     1       2.438   6.092  -1.001  0.00  0.00    +0.017 C 
ATOM     11  N   UNL     1       0.628   7.741  -1.009  0.00  0.00    +0.380 N 
ATOM     12  H   UNL     1       0.110   7.085  -1.605  0.00  0.00    -0.082 HD
ENDROOT
BRANCH   3  13
ATOM     13  C   UNL     1       1.244   3.501   0.510  0.00  0.00    +0.032 A 
ATOM     14  C   UNL     1       0.577   3.490  -0.708  0.00  0.00    +0.023 A 
ATOM     15  C   UNL     1      -0.551   2.708  -0.869  0.00  0.00    +0.002 A 
ATOM     16  C   UNL     1      -1.018   1.942   0.182  0.00  0.00    +0.000 A 
ATOM     17  C   UNL     1      -0.353   1.945   1.395  0.00  0.00    +0.002 A 
ATOM     18  C   UNL     1       0.775   2.725   1.562  0.00  0.00    +0.023 A 
ENDBRANCH   3  13
BRANCH   1  19
ATOM     19  C   UNL     1       4.260   5.962   3.473  0.00  0.00    +0.112 C 
BRANCH  19  21
ATOM     20  C   UNL     1       2.584   5.202   5.162  0.00  0.00    +0.009 C 
ATOM     21  C   UNL     1       3.413   6.391   4.672  0.00  0.00    +0.000 C 
ATOM     22  C   UNL     1       4.330   6.872   5.799  0.00  0.00    +0.009 C 
ENDBRANCH  19  21
ENDBRANCH   1  19
BRANCH  11  23
ATOM     23  C   UNL     1       0.229   9.121  -1.357  0.00  0.00    -0.063 C 
BRANCH  23  24
ATOM     24  C   UNL     1      -0.179   9.151  -2.831  0.00  0.00    +0.029 C 
ATOM     25  C   UNL     1      -1.359   8.202  -3.052  0.00  0.00    +0.019 C 
BRANCH  24  26
ATOM     26  C   UNL     1      -0.583  10.552  -3.212  0.00  0.00    -0.038 A 
ATOM     27  C   UNL     1      -0.547  11.562  -2.268  0.00  0.00    +0.007 A 
ATOM     28  C   UNL     1      -0.911  12.848  -2.618  0.00  0.00    +0.038 A 
ATOM     29  C   UNL     1      -1.323  13.123  -3.911  0.00  0.00    +0.123 A 
ATOM     30  C   UNL     1      -1.364  12.109  -4.854  0.00  0.00    +0.038 A 
ATOM     31  C   UNL     1      -0.994  10.825  -4.503  0.00  0.00    +0.007 A 
ATOM     32  F   UNL     1      -1.686  14.379  -4.253  0.00  0.00    -0.205 F 
ENDBRANCH  24  26
BRANCH  24  33
ATOM     33  C   UNL     1       1.002   8.707  -3.696  0.00  0.00    +0.259 C 
ATOM     34  O   UNL     1       2.111   9.618  -3.541  0.00  0.00    -0.348 OA
ATOM     35  C   UNL     1       2.906   9.430  -4.730  0.00  0.00    +0.191 C 
ATOM     36  C   UNL     1       1.926   8.868  -5.779  0.00  0.00    +0.191 C 
ATOM     37  O   UNL     1       0.657   8.786  -5.096  0.00  0.00    -0.348 OA
ENDBRANCH  24  33
ENDBRANCH  23  24
ENDBRANCH  11  23
TORSDOF 7
