REMARK  Name = ZINC27663599
REMARK  7 active torsions:
REMARK  status: ('A' for Active; 'I' for Inactive)
REMARK    1  A    between atoms: C_1  and  C_2
REMARK    2  A    between atoms: C_5  and  C_8
REMARK    3  A    between atoms: C_8  and  C_10
REMARK    4  A    between atoms: C_8  and  N_25
REMARK    5  A    between atoms: C_10  and  N_11
REMARK    6  A    between atoms: C_12  and  C_14
REMARK    7  A    between atoms: C_15  and  C_24
REMARK                            x       y       z     vdW  Elec       q    Type
REMARK                         _______ _______ _______ _____ _____    ______ ____
ROOT
ATOM      1  C   UNL     1       3.639   2.112   0.043  0.00  0.00    -0.020 C 
ENDROOT
BRANCH   1   2
ATOM      2  N   UNL     1       3.561   2.949   1.248  0.00  0.00    +0.385 N 
ATOM      3  C   UNL     1       2.207   3.524   1.407  0.00  0.00    -0.078 C 
ATOM      4  C   UNL     1       2.149   4.596   2.462  0.00  0.00    -0.019 C 
ATOM      5  C   UNL     1       2.347   5.965   1.780  0.00  0.00    -0.002 C 
ATOM      6  C   UNL     1       3.748   6.231   1.474  0.00  0.00    -0.002 C 
ATOM      7  C   UNL     1       4.340   5.189   0.502  0.00  0.00    -0.019 C 
ATOM      8  C   UNL     1       4.660   3.940   1.277  0.00  0.00    -0.078 C 
ATOM      9  H   UNL     1       3.716   2.314   2.132  0.00  0.00    -0.081 HD
ENDBRANCH   1   2
BRANCH   1  14
ATOM     10  C   UNL     1       8.568  -0.904   0.109  0.00  0.00    +0.044 C 
ATOM     11  C   UNL     1       7.282  -0.118   0.092  0.00  0.00    -0.050 A 
ATOM     12  C   UNL     1       6.823   0.429  -1.091  0.00  0.00    +0.003 A 
ATOM     13  C   UNL     1       5.644   1.151  -1.107  0.00  0.00    +0.002 A 
ATOM     14  C   UNL     1       4.924   1.325   0.060  0.00  0.00    -0.059 A 
ATOM     15  C   UNL     1       5.387   0.783   1.245  0.00  0.00    +0.002 A 
ATOM     16  C   UNL     1       6.563   0.057   1.259  0.00  0.00    +0.003 A 
ENDBRANCH   1  14
BRANCH   1  17
ATOM     17  C   UNL     1       2.451   1.148   0.014  0.00  0.00    +0.094 C 
BRANCH  17  18
ATOM     18  N   UNL     1       2.477   0.379  -1.232  0.00  0.00    -0.310 N 
ATOM     19  C   UNL     1       1.587  -0.614  -1.430  0.00  0.00    +0.280 C 
ATOM     20  O   UNL     1       0.763  -0.871  -0.573  0.00  0.00    -0.267 OA
ATOM     21  H   UNL     1       3.223   0.612  -2.007  0.00  0.00    +0.149 HD
BRANCH  19  22
ATOM     22  C   UNL     1       1.617  -1.390  -2.678  0.00  0.00    +0.193 A 
ATOM     23  C   UNL     1       0.776  -2.412  -2.983  0.00  0.00    +0.008 A 
ATOM     24  C   UNL     1       1.172  -2.879  -4.311  0.00  0.00    +0.025 A 
ATOM     25  C   UNL     1       0.712  -3.883  -5.167  0.00  0.00    +0.032 A 
ATOM     26  C   UNL     1       1.317  -4.070  -6.378  0.00  0.00    +0.042 A 
ATOM     27  C   UNL     1       2.385  -3.269  -6.763  0.00  0.00    +0.023 A 
ATOM     28  C   UNL     1       2.853  -2.274  -5.932  0.00  0.00    +0.048 A 
ATOM     29  C   UNL     1       2.253  -2.065  -4.695  0.00  0.00    +0.136 A 
ATOM     30  O   UNL     1       2.479  -1.190  -3.696  0.00  0.00    -0.450 OA
ATOM     31 CL   UNL     1       0.748  -5.318  -7.443  0.00  0.00    -0.084 Cl
ATOM     32  C   UNL     1      -0.339  -2.954  -2.127  0.00  0.00    +0.048 C 
ENDBRANCH  19  22
ENDBRANCH  17  18
ENDBRANCH   1  17
TORSDOF 5
