REMARK  Name = ZINC23473368
REMARK  10 active torsions:
REMARK  status: ('A' for Active; 'I' for Inactive)
REMARK    1  A    between atoms: C_1  and  C_2
REMARK    2  A    between atoms: C_2  and  C_3
REMARK    3  A    between atoms: C_3  and  C_30
REMARK    4  A    between atoms: N_6  and  C_10
REMARK    5  A    between atoms: C_10  and  N_11
REMARK    6  A    between atoms: N_14  and  C_17
REMARK    7  A    between atoms: C_17  and  C_18
REMARK    8  A    between atoms: C_17  and  C_24
REMARK    9  A    between atoms: C_33  and  O_36
REMARK   10  A    between atoms: O_36  and  C_37
REMARK                            x       y       z     vdW  Elec       q    Type
REMARK                         _______ _______ _______ _____ _____    ______ ____
ROOT
ATOM      1  C   UNL     1       7.285   0.914  -4.101  0.00  0.00    +0.205 C 
ENDROOT
BRANCH   1   5
ATOM      2  C   UNL     1       7.005  -0.531  -7.511  0.00  0.00    +0.138 C 
ATOM      3  C   UNL     1       7.588  -0.516  -6.112  0.00  0.00    +0.252 C 
ATOM      4  O   UNL     1       8.403  -1.286  -5.650  0.00  0.00    -0.272 OA
ATOM      5  N   UNL     1       7.009   0.529  -5.487  0.00  0.00    -0.210 N 
ATOM      6  C   UNL     1       6.157   1.174  -6.292  0.00  0.00    +0.311 C 
ATOM      7  O   UNL     1       5.519   2.151  -5.955  0.00  0.00    -0.252 OA
ATOM      8  N   UNL     1       6.085   0.619  -7.516  0.00  0.00    -0.281 N 
ATOM      9  H   UNL     1       5.512   0.862  -8.422  0.00  0.00    +0.152 HD
BRANCH   2  10
ATOM     10  C   UNL     1       8.092  -0.345  -8.539  0.00  0.00    -0.015 A 
ATOM     11  C   UNL     1       8.674  -1.449  -9.135  0.00  0.00    +0.010 A 
ATOM     12  C   UNL     1       9.666  -1.281 -10.082  0.00  0.00    +0.046 A 
ATOM     13  C   UNL     1      10.087  -0.004 -10.425  0.00  0.00    +0.120 A 
ATOM     14  C   UNL     1       9.505   1.101  -9.821  0.00  0.00    +0.046 A 
ATOM     15  C   UNL     1       8.509   0.928  -8.880  0.00  0.00    +0.010 A 
BRANCH  13  16
ATOM     16  O   UNL     1      11.067   0.164 -11.351  0.00  0.00    -0.495 OA
ATOM     17  C   UNL     1      11.620  -1.019 -11.931  0.00  0.00    +0.277 C 
ENDBRANCH  13  16
ENDBRANCH   2  10
BRANCH   2  19
ATOM     18  C   UNL     1       5.101  -1.961  -6.756  0.00  0.00    +0.007 C 
ATOM     19  C   UNL     1       6.242  -1.832  -7.767  0.00  0.00    +0.037 C 
ENDBRANCH   2  19
ENDBRANCH   1   5
BRANCH   1  20
ATOM     20  N   UNL     1       6.348   0.223  -3.205  0.00  0.00    -0.284 NA
ATOM     21  C   UNL     1       6.914   0.087  -1.855  0.00  0.00    +0.101 C 
ATOM     22  C   UNL     1       5.944  -0.706  -0.977  0.00  0.00    +0.101 C 
ATOM     23  N   UNL     1       4.648  -0.015  -0.935  0.00  0.00    -0.289 NA
ATOM     24  C   UNL     1       4.082   0.120  -2.284  0.00  0.00    +0.101 C 
ATOM     25  C   UNL     1       5.052   0.913  -3.163  0.00  0.00    +0.101 C 
BRANCH  23  26
ATOM     26  C   UNL     1       3.711  -0.707  -0.039  0.00  0.00    +0.117 C 
BRANCH  26  27
ATOM     27  C   UNL     1       2.396   0.029  -0.022  0.00  0.00    -0.026 A 
ATOM     28  C   UNL     1       1.208  -0.679  -0.014  0.00  0.00    +0.005 A 
ATOM     29  C   UNL     1       0.002  -0.004   0.002  0.00  0.00    +0.000 A 
ATOM     30  C   UNL     1      -0.017   1.378   0.010  0.00  0.00    +0.000 A 
ATOM     31  C   UNL     1       1.171   2.086   0.002  0.00  0.00    +0.000 A 
ATOM     32  C   UNL     1       2.377   1.411  -0.014  0.00  0.00    +0.005 A 
ENDBRANCH  26  27
BRANCH  26  33
ATOM     33  C   UNL     1       4.284  -0.745   1.355  0.00  0.00    -0.026 A 
ATOM     34  C   UNL     1       4.952   0.356   1.857  0.00  0.00    +0.005 A 
ATOM     35  C   UNL     1       5.473   0.324   3.137  0.00  0.00    +0.000 A 
ATOM     36  C   UNL     1       5.335  -0.813   3.911  0.00  0.00    +0.000 A 
ATOM     37  C   UNL     1       4.672  -1.916   3.406  0.00  0.00    +0.000 A 
ATOM     38  C   UNL     1       4.146  -1.882   2.128  0.00  0.00    +0.005 A 
ENDBRANCH  26  33
ENDBRANCH  23  26
ENDBRANCH   1  20
TORSDOF 8
