REMARK  Name = ZINC20919050
REMARK  12 active torsions:
REMARK  status: ('A' for Active; 'I' for Inactive)
REMARK    1  A    between atoms: C_1  and  C_2
REMARK    2  A    between atoms: C_5  and  N_8
REMARK    3  A    between atoms: C_9  and  C_11
REMARK    4  A    between atoms: C_11  and  C_12
REMARK    5  A    between atoms: C_12  and  S_13
REMARK    6  A    between atoms: S_13  and  C_14
REMARK    7  A    between atoms: N_18  and  N_19
REMARK    8  A    between atoms: N_20  and  N_21
REMARK    9  A    between atoms: C_22  and  C_23
REMARK   10  A    between atoms: C_22  and  C_30
REMARK   11  A    between atoms: C_23  and  C_24
REMARK   12  A    between atoms: C_30  and  C_31
REMARK                            x       y       z     vdW  Elec       q    Type
REMARK                         _______ _______ _______ _____ _____    ______ ____
ROOT
ATOM      1  C   UNL     1      -2.081   1.753  -1.032  0.00  0.00    +0.210 A 
ATOM      2  N   UNL     1      -2.410   2.212  -2.216  0.00  0.00    -0.119 NA
ATOM      3  N   UNL     1      -1.256   2.232  -3.009  0.00  0.00    -0.109 NA
ATOM      4  C   UNL     1      -0.258   1.792  -2.283  0.00  0.00    +0.254 A 
ATOM      5  N   UNL     1      -0.743   1.479  -1.044  0.00  0.00    -0.211 N 
ATOM      6  N   UNL     1       1.060   1.662  -2.700  0.00  0.00    -0.204 N 
ATOM      7  H   UNL     1       1.822   1.277  -2.005  0.00  0.00    +0.177 HD
ENDROOT
BRANCH   5   8
ATOM      8  N   UNL     1      -0.016   0.984   0.002  0.00  0.00    -0.294 N 
ATOM      9  H   UNL     1       1.062   0.799  -0.117  0.00  0.00    +0.163 HD
ATOM     10  H   UNL     1      -0.508   0.770   0.962  0.00  0.00    +0.163 HD
ENDBRANCH   5   8
BRANCH   6  11
ATOM     11  N   UNL     1       1.421   2.023  -4.005  0.00  0.00    -0.188 NA
ATOM     12  C   UNL     1       2.636   1.903  -4.389  0.00  0.00    +0.045 C 
BRANCH  12  13
ATOM     13  C   UNL     1       3.679   1.375  -3.438  0.00  0.00    +0.088 C 
BRANCH  13  14
ATOM     14  C   UNL     1       3.758  -0.124  -3.560  0.00  0.00    -0.042 A 
ATOM     15  C   UNL     1       2.964  -0.926  -2.761  0.00  0.00    +0.004 A 
ATOM     16  C   UNL     1       3.033  -2.302  -2.877  0.00  0.00    +0.000 A 
ATOM     17  C   UNL     1       3.902  -2.876  -3.785  0.00  0.00    +0.000 A 
ATOM     18  C   UNL     1       4.700  -2.075  -4.580  0.00  0.00    +0.000 A 
ATOM     19  C   UNL     1       4.628  -0.699  -4.468  0.00  0.00    +0.004 A 
ENDBRANCH  13  14
ENDBRANCH  12  13
BRANCH  12  20
ATOM     20  C   UNL     1       3.024   2.291  -5.793  0.00  0.00    +0.088 C 
BRANCH  20  21
ATOM     21  C   UNL     1       3.966   3.466  -5.747  0.00  0.00    -0.042 A 
ATOM     22  C   UNL     1       3.466   4.755  -5.783  0.00  0.00    +0.004 A 
ATOM     23  C   UNL     1       4.330   5.833  -5.736  0.00  0.00    +0.000 A 
ATOM     24  C   UNL     1       5.694   5.623  -5.664  0.00  0.00    +0.000 A 
ATOM     25  C   UNL     1       6.195   4.334  -5.634  0.00  0.00    +0.000 A 
ATOM     26  C   UNL     1       5.331   3.256  -5.676  0.00  0.00    +0.004 A 
ENDBRANCH  20  21
ENDBRANCH  12  20
ENDBRANCH   6  11
BRANCH   1  27
ATOM     27  S   UNL     1      -3.172   1.531   0.333  0.00  0.00    -0.084 S 
BRANCH  27  28
ATOM     28  C   UNL     1      -4.783   2.074  -0.300  0.00  0.00    +0.086 C 
BRANCH  28  29
ATOM     29  C   UNL     1      -5.838   1.932   0.799  0.00  0.00    +0.107 C 
BRANCH  29  31
ATOM     30  N   UNL     1      -8.261   2.346   1.072  0.00  0.00    -0.285 N 
ATOM     31  C   UNL     1      -7.176   2.383   0.273  0.00  0.00    +0.218 C 
ATOM     32  O   UNL     1      -7.276   2.779  -0.869  0.00  0.00    -0.275 OA
ATOM     33  H   UNL     1      -8.187   1.916   2.082  0.00  0.00    +0.155 HD
BRANCH  30  38
ATOM     34  C   UNL     1     -13.213   4.408  -0.775  0.00  0.00    +0.044 C 
ATOM     35  C   UNL     1     -11.898   3.860  -0.284  0.00  0.00    -0.050 A 
ATOM     36  C   UNL     1     -11.042   3.226  -1.167  0.00  0.00    +0.005 A 
ATOM     37  C   UNL     1      -9.836   2.723  -0.720  0.00  0.00    +0.023 A 
ATOM     38  C   UNL     1      -9.482   2.854   0.616  0.00  0.00    +0.033 A 
ATOM     39  C   UNL     1     -10.346   3.486   1.501  0.00  0.00    +0.023 A 
ATOM     40  C   UNL     1     -11.549   3.993   1.047  0.00  0.00    +0.005 A 
ENDBRANCH  30  38
ENDBRANCH  29  31
ENDBRANCH  28  29
ENDBRANCH  27  28
ENDBRANCH   1  27
TORSDOF 11
