REMARK  Name = ZINC21883830
REMARK  8 active torsions:
REMARK  status: ('A' for Active; 'I' for Inactive)
REMARK    1  A    between atoms: C_1  and  C_2
REMARK    2  A    between atoms: C_5  and  C_28
REMARK    3  A    between atoms: C_6  and  N_8
REMARK    4  A    between atoms: C_9  and  C_11
REMARK    5  A    between atoms: C_11  and  C_12
REMARK    6  A    between atoms: N_18  and  C_19
REMARK    7  A    between atoms: C_21  and  C_26
REMARK    8  A    between atoms: C_23  and  C_25
REMARK                            x       y       z     vdW  Elec       q    Type
REMARK                         _______ _______ _______ _____ _____    ______ ____
ROOT
ATOM      1  C   UNL     1       0.006   0.010   0.011  0.00  0.00    +0.149 C 
ATOM      2  C   UNL     1       1.506  -0.233   0.001  0.00  0.00    +0.232 C 
ATOM      3  O   UNL     1       1.978  -1.349  -0.005  0.00  0.00    -0.274 OA
ATOM      4  N   UNL     1       2.264   0.851  -0.001  0.00  0.00    -0.264 N 
ATOM      5  C   UNL     1       1.733   2.123   0.006  0.00  0.00    +0.161 C 
ATOM      6  N   UNL     1       2.373   3.269   0.006  0.00  0.00    -0.226 NA
ATOM      7  S   UNL     1      -0.032   1.846   0.016  0.00  0.00    -0.077 S 
ATOM      8  H   UNL     1       3.360   0.755  -0.008  0.00  0.00    +0.157 HD
ENDROOT
BRANCH   6   9
ATOM      9  C   UNL     1       1.672   4.445   0.013  0.00  0.00    +0.067 A 
ATOM     10  C   UNL     1       0.578   4.615  -0.837  0.00  0.00    +0.031 A 
ATOM     11  C   UNL     1      -0.126   5.801  -0.821  0.00  0.00    -0.048 A 
ATOM     12  C   UNL     1       0.255   6.824   0.029  0.00  0.00    +0.006 A 
ATOM     13  C   UNL     1       1.341   6.664   0.871  0.00  0.00    -0.048 A 
ATOM     14  C   UNL     1       2.052   5.482   0.868  0.00  0.00    +0.031 A 
ATOM     15  C   UNL     1       1.750   7.785   1.792  0.00  0.00    +0.044 C 
ATOM     16  C   UNL     1      -1.310   5.985  -1.735  0.00  0.00    +0.044 C 
ENDBRANCH   6   9
BRANCH   1  17
ATOM     17  C   UNL     1      -0.641  -0.561   1.274  0.00  0.00    +0.120 C 
BRANCH  17  19
ATOM     18  N   UNL     1      -2.893  -0.651   2.294  0.00  0.00    -0.285 N 
ATOM     19  C   UNL     1      -2.114  -0.244   1.272  0.00  0.00    +0.219 C 
ATOM     20  O   UNL     1      -2.599   0.377   0.350  0.00  0.00    -0.275 OA
ATOM     21  H   UNL     1      -2.473  -1.292   3.084  0.00  0.00    +0.155 HD
BRANCH  18  27
ATOM     22  C   UNL     1      -6.424   2.541   1.066  0.00  0.00    +0.044 C 
ATOM     23  C   UNL     1      -5.974   1.284   1.765  0.00  0.00    -0.049 A 
ATOM     24  C   UNL     1      -6.888   0.516   2.462  0.00  0.00    +0.004 A 
ATOM     25  C   UNL     1      -6.479  -0.639   3.104  0.00  0.00    +0.005 A 
ATOM     26  C   UNL     1      -5.155  -1.029   3.050  0.00  0.00    -0.029 A 
ATOM     27  C   UNL     1      -4.234  -0.259   2.351  0.00  0.00    +0.037 A 
ATOM     28  C   UNL     1      -4.647   0.903   1.712  0.00  0.00    +0.027 A 
ATOM     29  C   UNL     1      -4.710  -2.288   3.749  0.00  0.00    +0.045 C 
ENDBRANCH  18  27
ENDBRANCH  17  19
ENDBRANCH   1  17
TORSDOF 4
