REMARK  Name = ZINC66178793
REMARK  9 active torsions:
REMARK  status: ('A' for Active; 'I' for Inactive)
REMARK    1  A    between atoms: C_1  and  C_2
REMARK    2  A    between atoms: N_5  and  C_8
REMARK    3  A    between atoms: C_8  and  C_10
REMARK    4  A    between atoms: C_8  and  C_27
REMARK    5  A    between atoms: C_10  and  N_11
REMARK    6  A    between atoms: C_17  and  N_20
REMARK    7  A    between atoms: C_21  and  C_23
REMARK    8  A    between atoms: C_27  and  C_28
REMARK    9  A    between atoms: C_27  and  C_29
REMARK                            x       y       z     vdW  Elec       q    Type
REMARK                         _______ _______ _______ _____ _____    ______ ____
ROOT
ATOM      1  N   UNL     1       1.256  -3.443   2.261  0.00  0.00    -0.301 N 
ATOM      2  C   UNL     1       2.142  -3.517   3.274  0.00  0.00    +0.302 C 
ATOM      3  O   UNL     1       1.907  -4.223   4.236  0.00  0.00    -0.253 OA
ATOM      4  N   UNL     1       3.288  -2.810   3.220  0.00  0.00    -0.286 N 
ATOM      5  C   UNL     1       4.311  -2.962   4.263  0.00  0.00    +0.111 C 
ATOM      6  C   UNL     1       5.650  -3.292   3.595  0.00  0.00    +0.041 C 
ATOM      7  C   UNL     1       5.972  -2.222   2.550  0.00  0.00    +0.076 C 
ATOM      8  C   UNL     1       4.884  -2.214   1.474  0.00  0.00    +0.041 C 
ATOM      9  C   UNL     1       3.540  -1.876   2.114  0.00  0.00    +0.111 C 
ATOM     10  H   UNL     1       1.473  -2.936   1.463  0.00  0.00    +0.150 HD
ENDROOT
BRANCH   7  11
ATOM     11  N   UNL     1       7.268  -2.516   1.933  0.00  0.00    -0.312 N 
ATOM     12  C   UNL     1       7.995  -1.522   1.387  0.00  0.00    +0.216 C 
ATOM     13  O   UNL     1       7.577  -0.384   1.406  0.00  0.00    -0.276 OA
ATOM     14  H   UNL     1       7.602  -3.427   1.918  0.00  0.00    +0.149 HD
BRANCH  12  15
ATOM     15  C   UNL     1       9.328  -1.825   0.752  0.00  0.00    +0.075 C 
ATOM     16  C   UNL     1      10.485  -1.915   1.761  0.00  0.00    +0.013 C 
ATOM     17  C   UNL     1      11.343  -1.171   0.724  0.00  0.00    +0.001 C 
ATOM     18  C   UNL     1      10.031  -0.585   0.175  0.00  0.00    +0.013 C 
ENDBRANCH  12  15
ENDBRANCH   7  11
BRANCH   1  19
ATOM     19  C   UNL     1      -0.036  -4.127   2.366  0.00  0.00    +0.091 C 
BRANCH  19  20
ATOM     20  C   UNL     1      -0.915  -3.741   1.175  0.00  0.00    -0.048 C 
BRANCH  20  25
ATOM     21  C   UNL     1      -2.017   1.629   2.746  0.00  0.00    +0.007 C 
ATOM     22  C   UNL     1      -1.484   0.196   2.703  0.00  0.00    -0.018 C 
ATOM     23  C   UNL     1      -0.658  -0.006   1.429  0.00  0.00    -0.016 C 
ATOM     24  C   UNL     1      -0.195  -1.462   1.353  0.00  0.00    -0.078 C 
ATOM     25  N   UNL     1      -1.363  -2.350   1.326  0.00  0.00    +0.383 N 
ATOM     26  C   UNL     1      -2.120  -2.215   2.576  0.00  0.00    -0.078 C 
ATOM     27  C   UNL     1      -2.658  -0.788   2.699  0.00  0.00    -0.016 C 
ATOM     28  H   UNL     1      -1.954  -2.103   0.547  0.00  0.00    -0.081 HD
ENDBRANCH  20  25
BRANCH  20  29
ATOM     29  C   UNL     1      -2.133  -4.666   1.120  0.00  0.00    -0.029 C 
ATOM     30  C   UNL     1      -2.987  -4.312  -0.100  0.00  0.00    +0.005 C 
ATOM     31  C   UNL     1      -1.666  -6.119   1.012  0.00  0.00    +0.005 C 
ENDBRANCH  20  29
ENDBRANCH  19  20
ENDBRANCH   1  19
TORSDOF 6
