REMARK  Name = ZINC03296319
REMARK  12 active torsions:
REMARK  status: ('A' for Active; 'I' for Inactive)
REMARK    1  A    between atoms: C_1  and  C_2
REMARK    2  A    between atoms: C_2  and  N_49
REMARK    3  A    between atoms: C_3  and  C_4
REMARK    4  A    between atoms: C_3  and  N_49
REMARK    5  A    between atoms: C_5  and  C_6
REMARK    6  A    between atoms: C_5  and  N_49
REMARK    7  A    between atoms: N_8  and  C_9
REMARK    8  A    between atoms: C_10  and  C_21
REMARK    9  A    between atoms: C_11  and  C_14
REMARK   10  A    between atoms: C_21  and  O_23
REMARK   11  A    between atoms: O_23  and  C_24
REMARK   12  A    between atoms: C_24  and  C_25
REMARK                            x       y       z     vdW  Elec       q    Type
REMARK                         _______ _______ _______ _____ _____    ______ ____
ROOT
ATOM      1  C   UNL     1      -2.378   1.155   0.023  0.00  0.00    +0.086 A 
ATOM      2  C   UNL     1      -3.674   1.653   0.001  0.00  0.00    +0.095 A 
ATOM      3  C   UNL     1      -4.748   0.679   0.044  0.00  0.00    +0.005 A 
ATOM      4  C   UNL     1      -4.385  -0.628   0.100  0.00  0.00    +0.056 A 
ATOM      5  S   UNL     1      -2.606  -0.559   0.090  0.00  0.00    -0.080 S 
ENDROOT
BRANCH   3   6
ATOM      6  C   UNL     1      -6.173   1.090   0.026  0.00  0.00    -0.016 A 
ATOM      7  C   UNL     1      -6.630   2.064   0.913  0.00  0.00    +0.009 A 
ATOM      8  C   UNL     1      -7.956   2.446   0.890  0.00  0.00    +0.016 A 
ATOM      9  C   UNL     1      -8.833   1.858  -0.005  0.00  0.00    +0.018 A 
ATOM     10  C   UNL     1      -8.385   0.887  -0.884  0.00  0.00    +0.016 A 
ATOM     11  C   UNL     1      -7.060   0.501  -0.873  0.00  0.00    +0.009 A 
ATOM     12 BR   UNL     1     -10.650   2.381  -0.026  0.00  0.00    -0.050 Br
ENDBRANCH   3   6
BRANCH   1  15
ATOM     13  C   UNL     1      -0.011   1.203   0.020  0.00  0.00    +0.201 C 
ATOM     14  O   UNL     1       0.003  -0.009   0.073  0.00  0.00    -0.278 OA
ATOM     15  N   UNL     1      -1.187   1.862  -0.008  0.00  0.00    -0.281 N 
ATOM     16  H   UNL     1      -1.199   2.831  -0.051  0.00  0.00    +0.155 HD
BRANCH  13  17
ATOM     17  C   UNL     1       1.284   1.971  -0.020  0.00  0.00    +0.019 C 
BRANCH  17  18
ATOM     18  N   UNL     1       2.405   1.018   0.127  0.00  0.00    +0.385 N 
ATOM     19  H   UNL     1       2.161   0.326   0.845  0.00  0.00    -0.081 HD
BRANCH  18  21
ATOM     20  C   UNL     1       3.648  -0.811  -0.917  0.00  0.00    -0.017 C 
ATOM     21  C   UNL     1       2.644   0.319  -1.153  0.00  0.00    -0.082 C 
ENDBRANCH  18  21
BRANCH  18  22
ATOM     22  C   UNL     1       3.627   1.736   0.547  0.00  0.00    -0.082 C 
ATOM     23  C   UNL     1       3.526   2.042   2.042  0.00  0.00    -0.017 C 
ENDBRANCH  18  22
ENDBRANCH  17  18
ENDBRANCH  13  17
ENDBRANCH   1  15
BRANCH   2  24
ATOM     24  C   UNL     1      -3.943   3.090  -0.060  0.00  0.00    +0.342 C 
ATOM     25  O   UNL     1      -4.056   3.642  -1.139  0.00  0.00    -0.245 OA
BRANCH  24  26
ATOM     26  O   UNL     1      -4.067   3.802   1.078  0.00  0.00    -0.461 OA
BRANCH  26  27
ATOM     27  C   UNL     1      -4.334   5.223   0.941  0.00  0.00    +0.229 C 
ATOM     28  C   UNL     1      -4.441   5.858   2.329  0.00  0.00    +0.048 C 
ENDBRANCH  26  27
ENDBRANCH  24  26
ENDBRANCH   2  24
TORSDOF 9
