REMARK  Name = ZINC09963350
REMARK  10 active torsions:
REMARK  status: ('A' for Active; 'I' for Inactive)
REMARK    1  A    between atoms: C_1  and  C_2
REMARK    2  A    between atoms: C_2  and  N_3
REMARK    3  A    between atoms: N_3  and  C_4
REMARK    4  A    between atoms: N_3  and  C_31
REMARK    5  A    between atoms: C_4  and  C_5
REMARK    6  A    between atoms: C_5  and  N_6
REMARK    7  A    between atoms: C_7  and  C_9
REMARK    8  A    between atoms: C_9  and  N_10
REMARK    9  A    between atoms: C_13  and  S_21
REMARK   10  A    between atoms: S_21  and  N_24
REMARK                            x       y       z     vdW  Elec       q    Type
REMARK                         _______ _______ _______ _____ _____    ______ ____
ROOT
ATOM      1  N   UNL     1      -5.285  -3.109  -3.955  0.00  0.00    -0.256 N 
ATOM      2  C   UNL     1      -6.118  -2.192  -4.612  0.00  0.00    +0.081 A 
ATOM      3  C   UNL     1      -6.282  -0.907  -4.117  0.00  0.00    +0.055 A 
ATOM      4  C   UNL     1      -7.104  -0.015  -4.782  0.00  0.00    +0.107 A 
ATOM      5  C   UNL     1      -7.756  -0.400  -5.939  0.00  0.00    +0.032 A 
ATOM      6  C   UNL     1      -7.591  -1.678  -6.440  0.00  0.00    +0.049 A 
ATOM      7  C   UNL     1      -6.770  -2.576  -5.780  0.00  0.00    +0.143 A 
ATOM      8  O   UNL     1      -6.596  -3.837  -6.259  0.00  0.00    -0.481 OA
ATOM      9  C   UNL     1      -5.316  -4.436  -6.043  0.00  0.00    +0.325 C 
ATOM     10  C   UNL     1      -4.892  -4.222  -4.612  0.00  0.00    +0.258 C 
ATOM     11  O   UNL     1      -4.200  -5.047  -4.052  0.00  0.00    -0.271 OA
ENDROOT
BRANCH   4  12
ATOM     12  S   UNL     1      -7.321   1.616  -4.152  0.00  0.00    +0.061 S 
ATOM     13  O   UNL     1      -6.176   1.901  -3.360  0.00  0.00    -0.153 OA
ATOM     14  O   UNL     1      -7.708   2.428  -5.252  0.00  0.00    -0.153 OA
BRANCH  12  15
ATOM     15  N   UNL     1      -8.613   1.574  -3.117  0.00  0.00    -0.177 NA
ATOM     16  C   UNL     1      -9.934   1.830  -3.647  0.00  0.00    +0.109 C 
ATOM     17  C   UNL     1     -10.238   3.342  -3.592  0.00  0.00    +0.017 C 
ATOM     18  C   UNL     1     -10.447   3.770  -2.200  0.00  0.00    +0.001 C 
ATOM     19  C   UNL     1      -9.228   3.595  -1.299  0.00  0.00    +0.001 C 
ATOM     20  C   UNL     1      -9.201   2.185  -0.763  0.00  0.00    +0.017 C 
ATOM     21  C   UNL     1      -8.369   1.282  -1.691  0.00  0.00    +0.109 C 
ENDBRANCH  12  15
ENDBRANCH   4  12
BRANCH   1  22
ATOM     22  C   UNL     1      -4.852  -2.866  -2.577  0.00  0.00    +0.209 C 
BRANCH  22  24
ATOM     23  N   UNL     1      -2.967  -1.757  -1.422  0.00  0.00    -0.313 N 
ATOM     24  C   UNL     1      -3.557  -2.095  -2.585  0.00  0.00    +0.231 C 
ATOM     25  O   UNL     1      -3.046  -1.779  -3.639  0.00  0.00    -0.274 OA
ATOM     26  H   UNL     1      -3.376  -2.009  -0.579  0.00  0.00    +0.149 HD
BRANCH  23  27
ATOM     27  C   UNL     1      -1.708  -1.007  -1.430  0.00  0.00    +0.123 C 
BRANCH  27  28
ATOM     28  C   UNL     1      -1.256  -0.754   0.010  0.00  0.00    +0.124 C 
BRANCH  28  29
ATOM     29  N   UNL     1       0.002  -0.004   0.002  0.00  0.00    -0.329 N 
BRANCH  29  30
ATOM     30  C   UNL     1      -0.017   1.393   0.010  0.00  0.00    +0.030 A 
ATOM     31  C   UNL     1      -1.228   2.072   0.019  0.00  0.00    +0.023 A 
ATOM     32  C   UNL     1      -1.243   3.453   0.031  0.00  0.00    +0.002 A 
ATOM     33  C   UNL     1      -0.054   4.159   0.024  0.00  0.00    +0.000 A 
ATOM     34  C   UNL     1       1.153   3.486   0.009  0.00  0.00    +0.002 A 
ATOM     35  C   UNL     1       1.176   2.105   0.002  0.00  0.00    +0.023 A 
ENDBRANCH  29  30
BRANCH  29  37
ATOM     36  C   UNL     1       1.739  -0.976   1.423  0.00  0.00    +0.024 C 
ATOM     37  C   UNL     1       1.281  -0.719  -0.014  0.00  0.00    +0.102 C 
ENDBRANCH  29  37
ENDBRANCH  28  29
ENDBRANCH  27  28
ENDBRANCH  23  27
ENDBRANCH  22  24
ENDBRANCH   1  22
TORSDOF 9
