REMARK  Name = ZINC05763289
REMARK  11 active torsions:
REMARK  status: ('A' for Active; 'I' for Inactive)
REMARK    1  A    between atoms: C_1  and  C_2
REMARK    2  A    between atoms: C_2  and  C_4
REMARK    3  A    between atoms: C_2  and  N_75
REMARK    4  A    between atoms: C_6  and  O_32
REMARK    5  A    between atoms: C_9  and  C_31
REMARK    6  A    between atoms: C_10  and  C_30
REMARK    7  A    between atoms: C_24  and  N_72
REMARK    8  A    between atoms: C_26  and  C_27
REMARK    9  A    between atoms: C_26  and  C_28
REMARK   10  A    between atoms: C_29  and  N_72
REMARK   11  A    between atoms: C_33  and  N_75
REMARK                            x       y       z     vdW  Elec       q    Type
REMARK                         _______ _______ _______ _____ _____    ______ ____
ROOT
ATOM      1  C   UNL     1      -1.412  -1.527   0.759  0.00  0.00    +0.010 C 
ATOM      2  C   UNL     1      -1.279  -0.829  -0.617  0.00  0.00    +0.117 C 
ATOM      3  C   UNL     1      -1.605  -1.905  -1.687  0.00  0.00    +0.039 C 
ATOM      4  C   UNL     1      -2.471  -2.910  -0.918  0.00  0.00    -0.021 C 
ATOM      5  C   UNL     1      -1.726  -2.986   0.445  0.00  0.00    -0.023 C 
ATOM      6  C   UNL     1      -2.599  -3.718   1.440  0.00  0.00    +0.008 C 
ATOM      7  C   UNL     1      -2.764  -5.173   0.956  0.00  0.00    +0.008 C 
ATOM      8  C   UNL     1      -3.300  -5.168  -0.482  0.00  0.00    -0.019 C 
ATOM      9  C   UNL     1      -2.483  -4.321  -1.470  0.00  0.00    +0.002 C 
ATOM     10  C   UNL     1      -3.111  -4.412  -2.854  0.00  0.00    +0.005 C 
ATOM     11  C   UNL     1      -3.069  -5.886  -3.281  0.00  0.00    +0.005 C 
ATOM     12  C   UNL     1      -4.096  -6.681  -2.486  0.00  0.00    -0.000 C 
ATOM     13  C   UNL     1      -4.067  -6.376  -1.007  0.00  0.00    -0.020 C 
ATOM     14  C   UNL     1      -4.828  -5.091  -0.605  0.00  0.00    +0.015 C 
ATOM     15  C   UNL     1      -4.212  -7.548  -0.026  0.00  0.00    +0.006 C 
ATOM     16  C   UNL     1      -3.573  -8.798  -0.627  0.00  0.00    -0.015 C 
ATOM     17  C   UNL     1      -4.354  -9.161  -1.889  0.00  0.00    -0.066 C 
ATOM     18  C   UNL     1      -4.192  -8.097  -2.949  0.00  0.00    -0.044 C 
ATOM     19  C   UNL     1      -2.927  -8.417  -3.747  0.00  0.00    +0.009 C 
ATOM     20  C   UNL     1      -5.383  -8.199  -3.903  0.00  0.00    +0.009 C 
ATOM     21  C   UNL     1      -0.421  -3.758   0.244  0.00  0.00    +0.012 C 
ATOM     22  C   UNL     1      -3.898  -2.387  -0.734  0.00  0.00    +0.012 C 
ENDROOT
BRANCH  17  24
ATOM     23  C   UNL     1      -4.389 -11.568  -1.631  0.00  0.00    -0.100 C 
ATOM     24  N   UNL     1      -3.853 -10.443  -2.420  0.00  0.00    +0.379 N 
ATOM     25  H   UNL     1      -2.827 -10.452  -2.370  0.00  0.00    -0.086 HD
ATOM     26  H   UNL     1      -4.149 -10.543  -3.398  0.00  0.00    -0.086 HD
ENDBRANCH  17  24
BRANCH   1  28
ATOM     27  C   UNL     1      -0.265  -2.071   2.911  0.00  0.00    -0.013 C 
ATOM     28  C   UNL     1      -0.097  -1.424   1.535  0.00  0.00    -0.069 C 
BRANCH  28  30
ATOM     29  C   UNL     1       1.715   0.145   1.878  0.00  0.00    -0.100 C 
ATOM     30  N   UNL     1       0.258  -0.002   1.699  0.00  0.00    +0.379 N 
ATOM     31  H   UNL     1      -0.224   0.375   2.523  0.00  0.00    -0.086 HD
ATOM     32  H   UNL     1      -0.034   0.519   0.863  0.00  0.00    -0.086 HD
ENDBRANCH  28  30
ENDBRANCH   1  28
BRANCH   2  33
ATOM     33  O   UNL     1      -2.208   0.252  -0.710  0.00  0.00    -0.392 OA
ATOM     34  H   UNL     1      -2.174   0.730  -1.550  0.00  0.00    +0.210 HD
ENDBRANCH   2  33
TORSDOF 4
