REMARK  Name = ZINC36569625
REMARK  9 active torsions:
REMARK  status: ('A' for Active; 'I' for Inactive)
REMARK    1  A    between atoms: C_1  and  O_2
REMARK    2  A    between atoms: O_2  and  C_3
REMARK    3  A    between atoms: C_3  and  C_5
REMARK    4  A    between atoms: C_5  and  C_7
REMARK    5  A    between atoms: C_5  and  N_11
REMARK    6  A    between atoms: C_7  and  C_8
REMARK    7  A    between atoms: C_8  and  S_9
REMARK    8  A    between atoms: S_9  and  C_10
REMARK    9  A    between atoms: C_23  and  C_25
REMARK                            x       y       z     vdW  Elec       q    Type
REMARK                         _______ _______ _______ _____ _____    ______ ____
ROOT
ATOM      1  N   UNL     1       3.740  -2.338  -1.063  0.00  0.00    -0.286 N 
ATOM      2  C   UNL     1       2.888  -2.524  -2.091  0.00  0.00    +0.304 C 
ATOM      3  O   UNL     1       1.688  -2.478  -1.902  0.00  0.00    -0.253 OA
ATOM      4  N   UNL     1       3.367  -2.761  -3.329  0.00  0.00    -0.273 N 
ATOM      5  C   UNL     1       2.459  -2.848  -4.483  0.00  0.00    +0.116 C 
ATOM      6  C   UNL     1       2.514  -4.269  -5.058  0.00  0.00    +0.074 C 
ATOM      7  C   UNL     1       3.953  -4.702  -5.148  0.00  0.00    +0.040 A 
ATOM      8  C   UNL     1       4.976  -4.122  -4.484  0.00  0.00    +0.062 A 
ATOM      9  N   UNL     1       6.099  -4.770  -4.803  0.00  0.00    -0.348 N 
ATOM     10  C   UNL     1       5.814  -5.730  -5.643  0.00  0.00    +0.171 A 
ATOM     11  N   UNL     1       4.483  -5.718  -5.884  0.00  0.00    -0.349 N 
ATOM     12  H   UNL     1       3.998  -6.320  -6.470  0.00  0.00    +0.166 HD
ATOM     13  C   UNL     1       4.812  -2.934  -3.559  0.00  0.00    +0.156 C 
ATOM     14  H   UNL     1       4.695  -2.446  -1.199  0.00  0.00    +0.151 HD
ATOM     15  H   UNL     1       6.984  -4.562  -4.465  0.00  0.00    +0.167 HD
ENDROOT
BRANCH  13  16
ATOM     16  C   UNL     1       5.381  -1.696  -4.202  0.00  0.00    -0.020 A 
ATOM     17  C   UNL     1       6.332  -0.946  -3.535  0.00  0.00    +0.006 A 
ATOM     18  C   UNL     1       6.855   0.190  -4.124  0.00  0.00    +0.002 A 
ATOM     19  C   UNL     1       6.426   0.578  -5.380  0.00  0.00    +0.020 A 
ATOM     20  C   UNL     1       5.474  -0.172  -6.047  0.00  0.00    +0.041 A 
ATOM     21  C   UNL     1       4.956  -1.313  -5.460  0.00  0.00    +0.025 A 
ATOM     22 CL   UNL     1       4.934   0.314  -7.624  0.00  0.00    -0.084 Cl
ENDBRANCH  13  16
BRANCH   1  23
ATOM     23  C   UNL     1       3.225  -1.974   0.259  0.00  0.00    +0.184 C 
BRANCH  23  24
ATOM     24  C   UNL     1       2.826  -3.221   1.004  0.00  0.00    +0.327 C 
ATOM     25  O   UNL     1       2.959  -4.304   0.484  0.00  0.00    -0.249 OA
BRANCH  24  27
ATOM     26  C   UNL     1       1.967  -4.353   2.892  0.00  0.00    +0.280 C 
ATOM     27  O   UNL     1       2.324  -3.130   2.245  0.00  0.00    -0.467 OA
ENDBRANCH  24  27
ENDBRANCH  23  24
BRANCH  23  28
ATOM     28  C   UNL     1       4.311  -1.236   1.044  0.00  0.00    +0.044 C 
BRANCH  28  29
ATOM     29  C   UNL     1       4.628   0.092   0.352  0.00  0.00    +0.071 C 
BRANCH  29  30
ATOM     30  S   UNL     1       5.916   0.967   1.283  0.00  0.00    -0.164 S 
ATOM     31  C   UNL     1       6.171   2.498   0.345  0.00  0.00    +0.084 C 
ENDBRANCH  29  30
ENDBRANCH  28  29
ENDBRANCH  23  28
ENDBRANCH   1  23
TORSDOF 7
