REMARK  Name = ZINC37436231
REMARK  10 active torsions:
REMARK  status: ('A' for Active; 'I' for Inactive)
REMARK    1  A    between atoms: C_1  and  N_2
REMARK    2  A    between atoms: N_2  and  C_3
REMARK    3  A    between atoms: N_2  and  C_4
REMARK    4  A    between atoms: C_4  and  C_5
REMARK    5  A    between atoms: C_5  and  N_6
REMARK    6  A    between atoms: C_7  and  C_9
REMARK    7  A    between atoms: C_12  and  C_14
REMARK    8  A    between atoms: C_14  and  N_15
REMARK    9  A    between atoms: N_20  and  C_21
REMARK   10  A    between atoms: C_21  and  C_23
REMARK                            x       y       z     vdW  Elec       q    Type
REMARK                         _______ _______ _______ _____ _____    ______ ____
ROOT
ATOM      1  C   UNL     1      -7.966  -3.981  -0.035  0.00  0.00    +0.197 C 
ENDROOT
BRANCH   1   2
ATOM      2  N   UNL     1      -8.379  -3.949   1.370  0.00  0.00    -0.321 N 
ATOM      3  C   UNL     1      -8.923  -5.049   1.957  0.00  0.00    +0.095 A 
ATOM      4  C   UNL     1      -9.277  -4.947   3.243  0.00  0.00    +0.066 A 
ATOM      5  S   UNL     1      -8.826  -3.263   3.618  0.00  0.00    -0.061 S 
ATOM      6  C   UNL     1      -8.219  -2.820   2.114  0.00  0.00    +0.166 A 
ATOM      7  N   UNL     1      -7.708  -1.648   1.740  0.00  0.00    -0.152 NA
BRANCH   7   8
ATOM      8  C   UNL     1      -7.631  -0.644   2.616  0.00  0.00    +0.269 C 
ATOM      9  O   UNL     1      -8.028  -0.799   3.758  0.00  0.00    -0.268 OA
BRANCH   8  10
ATOM     10  C   UNL     1      -7.063   0.659   2.200  0.00  0.00    +0.040 A 
ATOM     11  C   UNL     1      -6.613   0.841   0.892  0.00  0.00    +0.014 A 
ATOM     12  C   UNL     1      -6.084   2.056   0.510  0.00  0.00    +0.022 A 
ATOM     13  C   UNL     1      -5.999   3.095   1.421  0.00  0.00    +0.059 A 
ATOM     14  C   UNL     1      -6.444   2.921   2.722  0.00  0.00    +0.060 A 
ATOM     15  C   UNL     1      -6.980   1.710   3.114  0.00  0.00    +0.034 A 
ATOM     16 CL   UNL     1      -6.334   4.228   3.859  0.00  0.00    -0.082 Cl
ATOM     17 CL   UNL     1      -5.332   4.622   0.933  0.00  0.00    -0.082 Cl
ENDBRANCH   8  10
ENDBRANCH   7   8
ENDBRANCH   1   2
BRANCH   1  21
ATOM     18  C   UNL     1      -4.340  -4.375  -0.207  0.00  0.00    +0.189 A 
ATOM     19  C   UNL     1      -4.712  -5.685  -0.302  0.00  0.00    +0.055 A 
ATOM     20  C   UNL     1      -6.114  -5.711  -0.250  0.00  0.00    +0.047 A 
ATOM     21  C   UNL     1      -6.531  -4.431  -0.127  0.00  0.00    +0.126 A 
ATOM     22  O   UNL     1      -5.459  -3.630  -0.097  0.00  0.00    -0.453 OA
BRANCH  18  24
ATOM     23  N   UNL     1      -2.733  -2.544  -0.111  0.00  0.00    -0.311 N 
ATOM     24  C   UNL     1      -2.964  -3.867  -0.218  0.00  0.00    +0.279 C 
ATOM     25  O   UNL     1      -2.030  -4.641  -0.323  0.00  0.00    -0.267 OA
ATOM     26  H   UNL     1      -3.477  -1.927  -0.028  0.00  0.00    +0.149 HD
BRANCH  23  27
ATOM     27  C   UNL     1      -1.358  -2.037  -0.122  0.00  0.00    +0.086 C 
BRANCH  27  28
ATOM     28  C   UNL     1      -1.376  -0.512   0.012  0.00  0.00    -0.061 C 
BRANCH  28  30
ATOM     29  C   UNL     1      -0.018   1.465   0.010  0.00  0.00    -0.097 C 
ATOM     30  N   UNL     1       0.002  -0.004   0.002  0.00  0.00    +0.377 N 
ATOM     31  C   UNL     1       0.713  -0.491   1.192  0.00  0.00    -0.097 C 
ATOM     32  H   UNL     1       0.474  -0.330  -0.828  0.00  0.00    -0.083 HD
ENDBRANCH  28  30
ENDBRANCH  27  28
ENDBRANCH  23  27
ENDBRANCH  18  24
ENDBRANCH   1  21
TORSDOF 8
