REMARK  Name = ZINC58826779
REMARK  8 active torsions:
REMARK  status: ('A' for Active; 'I' for Inactive)
REMARK    1  A    between atoms: C_1  and  C_2
REMARK    2  A    between atoms: C_5  and  C_11
REMARK    3  A    between atoms: C_7  and  N_8
REMARK    4  A    between atoms: C_14  and  C_16
REMARK    5  A    between atoms: N_17  and  C_18
REMARK    6  A    between atoms: C_19  and  C_27
REMARK    7  A    between atoms: N_29  and  C_30
REMARK    8  A    between atoms: C_30  and  C_31
REMARK                            x       y       z     vdW  Elec       q    Type
REMARK                         _______ _______ _______ _____ _____    ______ ____
ROOT
ATOM      1  C   UNL     1       1.996  -8.164   3.387  0.00  0.00    +0.114 A 
ATOM      2  C   UNL     1       2.275  -8.201   4.833  0.00  0.00    +0.073 A 
ATOM      3  C   UNL     1       2.615  -9.438   5.329  0.00  0.00    -0.023 A 
ATOM      4  C   UNL     1       2.654 -10.498   4.413  0.00  0.00    -0.004 A 
ATOM      5  S   UNL     1       2.238  -9.868   2.925  0.00  0.00    -0.073 S 
ATOM      6  C   UNL     1       3.001 -11.926   4.730  0.00  0.00    +0.043 C 
ATOM      7  C   UNL     1       3.671 -11.964   6.110  0.00  0.00    +0.005 C 
ATOM      8  C   UNL     1       2.818 -11.166   7.100  0.00  0.00    +0.005 C 
ATOM      9  C   UNL     1       2.937  -9.671   6.804  0.00  0.00    +0.037 C 
ENDROOT
BRANCH   2  10
ATOM     10  C   UNL     1       2.197  -6.997   5.688  0.00  0.00    +0.247 C 
ATOM     11  O   UNL     1       1.150  -6.704   6.231  0.00  0.00    -0.270 OA
ATOM     12  N   UNL     1       3.288  -6.224   5.865  0.00  0.00    -0.307 N 
ATOM     13  H   UNL     1       4.123  -6.458   5.432  0.00  0.00    +0.149 HD
BRANCH  12  14
ATOM     14  C   UNL     1       3.210  -5.031   6.713  0.00  0.00    +0.139 C 
BRANCH  14  15
ATOM     15  C   UNL     1       4.554  -4.350   6.745  0.00  0.00    -0.030 A 
ATOM     16  C   UNL     1       5.483  -4.698   7.708  0.00  0.00    +0.005 A 
ATOM     17  C   UNL     1       6.715  -4.073   7.737  0.00  0.00    +0.000 A 
ATOM     18  C   UNL     1       7.020  -3.100   6.803  0.00  0.00    +0.000 A 
ATOM     19  C   UNL     1       6.091  -2.753   5.839  0.00  0.00    +0.000 A 
ATOM     20  C   UNL     1       4.860  -3.381   5.807  0.00  0.00    +0.005 A 
ENDBRANCH  14  15
ENDBRANCH  12  14
ENDBRANCH   2  10
BRANCH   1  22
ATOM     21  C   UNL     1       1.433  -7.311   1.329  0.00  0.00    +0.158 C 
ATOM     22  N   UNL     1       1.650  -7.136   2.631  0.00  0.00    -0.244 NA
BRANCH  21  26
ATOM     23  C   UNL     1       0.550  -4.191  -0.094  0.00  0.00    +0.136 A 
ATOM     24  C   UNL     1       0.488  -5.002  -1.240  0.00  0.00    +0.050 A 
ATOM     25  C   UNL     1       0.810  -6.271  -0.857  0.00  0.00    +0.051 A 
ATOM     26  C   UNL     1       1.070  -6.230   0.534  0.00  0.00    +0.147 A 
ATOM     27  O   UNL     1       0.907  -4.955   0.952  0.00  0.00    -0.454 OA
BRANCH  23  32
ATOM     28  C   UNL     1      -0.518   1.451   0.085  0.00  0.00    +0.046 C 
ATOM     29  C   UNL     1      -0.238  -0.029   0.038  0.00  0.00    -0.020 A 
ATOM     30  C   UNL     1      -0.342  -0.712  -1.164  0.00  0.00    +0.006 A 
ATOM     31  C   UNL     1      -0.087  -2.064  -1.218  0.00  0.00    +0.012 A 
ATOM     32  C   UNL     1       0.278  -2.751  -0.049  0.00  0.00    +0.019 A 
ATOM     33  C   UNL     1       0.381  -2.051   1.164  0.00  0.00    +0.044 A 
ATOM     34  C   UNL     1       0.128  -0.697   1.196  0.00  0.00    +0.130 A 
BRANCH  34  35
ATOM     35  N   UNL     1       0.240   0.045   2.471  0.00  0.00    +0.057 N 
ATOM     36  O   UNL     1       0.713   1.274   2.478  0.00  0.00    -0.126 OA
ATOM     37  O   UNL     1      -0.131  -0.525   3.599  0.00  0.00    -0.126 OA
ENDBRANCH  34  35
ENDBRANCH  23  32
ENDBRANCH  21  26
ENDBRANCH   1  22
TORSDOF 7
