REMARK  Name = ZINC02130271
REMARK  5 active torsions:
REMARK  status: ('A' for Active; 'I' for Inactive)
REMARK    1  A    between atoms: C_1  and  C_2
REMARK    2  A    between atoms: C_2  and  C_3
REMARK    3  A    between atoms: C_17  and  C_19
REMARK    4  A    between atoms: C_19  and  C_20
REMARK    5  A    between atoms: N_28  and  C_31
REMARK                            x       y       z     vdW  Elec       q    Type
REMARK                         _______ _______ _______ _____ _____    ______ ____
ROOT
ATOM      1  C   UNL     1      -0.074   0.823   7.678  0.00  0.00    -0.026 A 
ATOM      2  C   UNL     1      -0.682  -0.101   6.853  0.00  0.00    +0.005 A 
ATOM      3  C   UNL     1       0.041  -0.731   5.857  0.00  0.00    +0.001 A 
ATOM      4  C   UNL     1       1.382  -0.433   5.687  0.00  0.00    +0.004 A 
ATOM      5  C   UNL     1       1.993   0.488   6.507  0.00  0.00    -0.027 A 
ATOM      6  C   UNL     1       1.274   1.129   7.513  0.00  0.00    +0.039 A 
ATOM      7  N   UNL     1       2.101   2.014   8.208  0.00  0.00    -0.286 N 
ATOM      8  C   UNL     1       3.360   2.016   7.729  0.00  0.00    +0.211 C 
ATOM      9  O   UNL     1       4.288   2.683   8.135  0.00  0.00    -0.277 OA
ATOM     10  C   UNL     1       3.391   1.030   6.593  0.00  0.00    +0.050 C 
ATOM     11  C   UNL     1       3.817   1.701   5.282  0.00  0.00    +0.088 C 
ATOM     12  C   UNL     1       4.679   0.640   4.542  0.00  0.00    +0.073 C 
ATOM     13  C   UNL     1       4.652  -0.598   5.488  0.00  0.00    -0.053 C 
ATOM     14  C   UNL     1       3.865   0.331   3.305  0.00  0.00    +0.224 C 
ATOM     15  O   UNL     1       4.178  -0.457   2.439  0.00  0.00    -0.275 OA
ATOM     16  N   UNL     1       2.747   1.066   3.314  0.00  0.00    -0.239 N 
ATOM     17  C   UNL     1       2.616   1.866   4.378  0.00  0.00    +0.225 C 
ATOM     18  O   UNL     1       1.680   2.607   4.586  0.00  0.00    -0.275 OA
ATOM     19  H   UNL     1       1.803   2.563   8.950  0.00  0.00    +0.155 HD
ATOM     20  N   UNL     1       4.360  -0.031   6.807  0.00  0.00    +0.394 N 
ATOM     21  H   UNL     1       3.967  -0.751   7.424  0.00  0.00    -0.083 HD
ATOM     22  H   UNL     1       5.216   0.349   7.227  0.00  0.00    -0.083 HD
ENDROOT
BRANCH  16  23
ATOM     23  C   UNL     1       1.745   0.995   2.247  0.00  0.00    +0.084 C 
ATOM     24  C   UNL     1       2.374   1.367   0.932  0.00  0.00    +0.023 C 
ATOM     25  C   UNL     1       1.397   2.109   0.000  0.00  0.00    +0.002 C 
ATOM     26  C   UNL     1      -0.018   1.500   0.010  0.00  0.00    +0.000 C 
ATOM     27  C   UNL     1       0.002  -0.004   0.002  0.00  0.00    +0.000 C 
ATOM     28  C   UNL     1      -0.083  -0.503   1.459  0.00  0.00    +0.002 C 
ATOM     29  C   UNL     1       1.201  -0.444   2.142  0.00  0.00    +0.023 C 
ENDBRANCH  16  23
BRANCH   1  31
ATOM     30  C   UNL     1      -1.390   2.847   8.245  0.00  0.00    +0.009 C 
ATOM     31  C   UNL     1      -0.872   1.503   8.761  0.00  0.00    +0.033 C 
ENDBRANCH   1  31
BRANCH  13  32
ATOM     32  C   UNL     1       6.009  -1.304   5.473  0.00  0.00    +0.020 C 
BRANCH  32  33
ATOM     33  C   UNL     1       5.952  -2.523   6.357  0.00  0.00    -0.049 A 
ATOM     34  C   UNL     1       6.285  -2.422   7.695  0.00  0.00    +0.003 A 
ATOM     35  C   UNL     1       6.228  -3.539   8.508  0.00  0.00    +0.000 A 
ATOM     36  C   UNL     1       5.847  -4.759   7.980  0.00  0.00    +0.000 A 
ATOM     37  C   UNL     1       5.519  -4.861   6.641  0.00  0.00    +0.000 A 
ATOM     38  C   UNL     1       5.571  -3.743   5.830  0.00  0.00    +0.003 A 
ENDBRANCH  32  33
ENDBRANCH  13  32
TORSDOF 4
