REMARK  Name = ZINC32961878
REMARK  5 active torsions:
REMARK  status: ('A' for Active; 'I' for Inactive)
REMARK    1  A    between atoms: C_4  and  S_7
REMARK    2  A    between atoms: S_7  and  N_10
REMARK    3  A    between atoms: N_10  and  C_11
REMARK    4  A    between atoms: C_13  and  C_29
REMARK    5  A    between atoms: C_16  and  N_17
REMARK                            x       y       z     vdW  Elec       q    Type
REMARK                         _______ _______ _______ _____ _____    ______ ____
ROOT
ATOM      1  C   UNL     1       4.525   0.040  -2.474  0.00  0.00    +0.070 A 
ATOM      2  C   UNL     1       5.158   1.175  -2.004  0.00  0.00    +0.041 A 
ATOM      3  C   UNL     1       5.340   2.272  -2.852  0.00  0.00    +0.065 A 
ATOM      4  C   UNL     1       4.870   2.221  -4.168  0.00  0.00    +0.017 A 
ATOM      5  C   UNL     1       4.235   1.090  -4.630  0.00  0.00    +0.026 A 
ATOM      6  C   UNL     1       4.058  -0.004  -3.790  0.00  0.00    +0.052 A 
ENDROOT
BRANCH   6   7
ATOM      7  N   UNL     1       3.415  -1.146  -4.262  0.00  0.00    -0.325 N 
ATOM      8  C   UNL     1       4.181  -1.772  -5.349  0.00  0.00    +0.124 C 
ATOM      9  C   UNL     1       3.484  -3.062  -5.784  0.00  0.00    +0.125 C 
ATOM     10  N   UNL     1       2.114  -2.753  -6.219  0.00  0.00    -0.314 N 
ATOM     11  C   UNL     1       1.348  -2.128  -5.133  0.00  0.00    +0.125 C 
ATOM     12  C   UNL     1       2.046  -0.837  -4.697  0.00  0.00    +0.124 C 
ATOM     13  C   UNL     1       1.472  -3.893  -6.690  0.00  0.00    +0.099 A 
ATOM     14  C   UNL     1       2.043  -4.629  -7.723  0.00  0.00    +0.042 A 
ATOM     15  C   UNL     1       1.394  -5.760  -8.182  0.00  0.00    +0.005 A 
ATOM     16  C   UNL     1       0.190  -6.120  -7.589  0.00  0.00    +0.018 A 
ATOM     17  C   UNL     1      -0.319  -5.343  -6.568  0.00  0.00    +0.084 A 
ATOM     18  N   UNL     1       0.326  -4.271  -6.147  0.00  0.00    -0.350 N 
ATOM     19  H   UNL     1      -0.113  -3.687  -5.324  0.00  0.00    +0.166 HD
ENDBRANCH   6   7
BRANCH   3  20
ATOM     20  C   UNL     1       6.019   3.483  -2.358  0.00  0.00    +0.387 C 
ATOM     21  O   UNL     1       6.427   3.527  -1.214  0.00  0.00    -0.241 OA
ATOM     22  O   UNL     1       6.189   4.542  -3.174  0.00  0.00    -0.241 OA
ENDBRANCH   3  20
BRANCH   1  23
ATOM     23  N   UNL     1       4.345  -1.062  -1.629  0.00  0.00    -0.214 N 
ATOM     24  H   UNL     1       4.410  -2.082  -2.035  0.00  0.00    +0.174 HD
BRANCH  23  25
ATOM     25  S   UNL     1       4.036  -0.830  -0.019  0.00  0.00    +0.072 S 
ATOM     26  O   UNL     1       5.065   0.016   0.475  0.00  0.00    -0.150 OA
ATOM     27  O   UNL     1       3.774  -2.113   0.533  0.00  0.00    -0.150 OA
BRANCH  25  31
ATOM     28  C   UNL     1       0.177   1.518   0.278  0.00  0.00    +0.000 A 
ATOM     29  C   UNL     1       1.387   2.183   0.205  0.00  0.00    +0.002 A 
ATOM     30  C   UNL     1       2.565   1.466   0.114  0.00  0.00    +0.029 A 
ATOM     31  C   UNL     1       2.534   0.084   0.097  0.00  0.00    +0.108 A 
ATOM     32  C   UNL     1       1.324  -0.581   0.170  0.00  0.00    +0.029 A 
ATOM     33  C   UNL     1       0.146   0.136   0.261  0.00  0.00    +0.002 A 
ENDBRANCH  25  31
ENDBRANCH  23  25
ENDBRANCH   1  23
TORSDOF 5
