REMARK  Name = ZINC39678658
REMARK  8 active torsions:
REMARK  status: ('A' for Active; 'I' for Inactive)
REMARK    1  A    between atoms: C_1  and  C_2
REMARK    2  A    between atoms: C_2  and  C_3
REMARK    3  A    between atoms: C_2  and  O_4
REMARK    4  A    between atoms: O_4  and  C_5
REMARK    5  A    between atoms: C_5  and  C_7
REMARK    6  A    between atoms: C_7  and  N_8
REMARK    7  A    between atoms: C_9  and  C_11
REMARK    8  A    between atoms: C_22  and  C_24
REMARK                            x       y       z     vdW  Elec       q    Type
REMARK                         _______ _______ _______ _____ _____    ______ ____
ROOT
ATOM      1  C   UNL     1      -4.282  -5.000  -2.532  0.00  0.00    +0.100 C 
ATOM      2  C   UNL     1      -3.788  -5.086  -3.993  0.00  0.00    +0.121 C 
ATOM      3  N   UNL     1      -4.630  -6.137  -4.611  0.00  0.00    -0.296 N 
ATOM      4  C   UNL     1      -5.980  -5.910  -4.043  0.00  0.00    +0.115 C 
ATOM      5  C   UNL     1      -5.721  -5.541  -2.568  0.00  0.00    -0.004 C 
ATOM      6  C   UNL     1      -5.843  -6.779  -1.685  0.00  0.00    -0.010 C 
ATOM      7  C   UNL     1      -7.295  -7.265  -1.693  0.00  0.00    -0.082 C 
ATOM      8  N   UNL     1      -8.173  -6.197  -1.198  0.00  0.00    +0.379 N 
ATOM      9  C   UNL     1      -8.120  -5.044  -2.105  0.00  0.00    -0.082 C 
ATOM     10  C   UNL     1      -6.703  -4.465  -2.115  0.00  0.00    -0.010 C 
ATOM     11  C   UNL     1      -4.253  -7.085  -5.492  0.00  0.00    +0.247 C 
ATOM     12  O   UNL     1      -3.078  -7.226  -5.768  0.00  0.00    -0.270 OA
ATOM     13  H   UNL     1      -9.121  -6.540  -1.147  0.00  0.00    -0.086 HD
ATOM     14  H   UNL     1      -7.870  -5.914  -0.279  0.00  0.00    -0.086 HD
ENDROOT
BRANCH  11  15
ATOM     15  C   UNL     1      -5.270  -7.955  -6.122  0.00  0.00    +0.038 A 
ATOM     16  C   UNL     1      -6.606  -7.553  -6.165  0.00  0.00    +0.013 A 
ATOM     17  C   UNL     1      -7.550  -8.369  -6.754  0.00  0.00    +0.002 A 
ATOM     18  C   UNL     1      -7.175  -9.583  -7.301  0.00  0.00    +0.015 A 
ATOM     19  C   UNL     1      -5.852  -9.988  -7.261  0.00  0.00    +0.019 A 
ATOM     20  C   UNL     1      -4.897  -9.178  -6.681  0.00  0.00    +0.028 A 
ATOM     21 BR   UNL     1      -5.351 -11.650  -8.011  0.00  0.00    -0.050 Br
ENDBRANCH  11  15
BRANCH   1  23
ATOM     22  N   UNL     1      -4.066  -3.292  -0.755  0.00  0.00    -0.305 N 
ATOM     23  C   UNL     1      -4.271  -3.569  -2.058  0.00  0.00    +0.219 C 
ATOM     24  O   UNL     1      -4.448  -2.667  -2.849  0.00  0.00    -0.275 OA
ATOM     25  H   UNL     1      -3.925  -4.014  -0.122  0.00  0.00    +0.149 HD
BRANCH  22  26
ATOM     26  C   UNL     1      -4.056  -1.902  -0.294  0.00  0.00    +0.224 C 
BRANCH  26  27
ATOM     27  C   UNL     1      -3.807  -1.866   1.192  0.00  0.00    +0.325 C 
ATOM     28  O   UNL     1      -3.655  -2.897   1.803  0.00  0.00    -0.249 OA
BRANCH  27  29
ATOM     29  O   UNL     1      -3.756  -0.690   1.836  0.00  0.00    -0.461 OA
BRANCH  29  31
ATOM     30  C   UNL     1      -2.774   0.535   3.673  0.00  0.00    +0.052 C 
ATOM     31  C   UNL     1      -3.517  -0.731   3.244  0.00  0.00    +0.170 C 
ATOM     32  C   UNL     1      -4.853  -0.815   3.986  0.00  0.00    +0.052 C 
ENDBRANCH  29  31
ENDBRANCH  27  29
ENDBRANCH  26  27
ENDBRANCH  22  26
ENDBRANCH   1  23
TORSDOF 6
