REMARK  Name = ZINC13740444
REMARK  13 active torsions:
REMARK  status: ('A' for Active; 'I' for Inactive)
REMARK    1  A    between atoms: C_1  and  C_2
REMARK    2  A    between atoms: C_2  and  C_3
REMARK    3  A    between atoms: C_3  and  C_4
REMARK    4  A    between atoms: C_4  and  C_5
REMARK    5  A    between atoms: C_11  and  C_34
REMARK    6  A    between atoms: C_16  and  C_33
REMARK    7  A    between atoms: C_17  and  C_18
REMARK    8  A    between atoms: C_18  and  C_19
REMARK    9  A    between atoms: C_19  and  N_20
REMARK   10  A    between atoms: C_28  and  C_32
REMARK   11  A    between atoms: C_34  and  C_36
REMARK   12  A    between atoms: C_36  and  C_37
REMARK   13  A    between atoms: C_36  and  C_38
REMARK                            x       y       z     vdW  Elec       q    Type
REMARK                         _______ _______ _______ _____ _____    ______ ____
ROOT
ATOM      1  C   UNL     1      -1.122  -0.645   0.388  0.00  0.00    +0.088 C 
ATOM      2  C   UNL     1      -1.644  -0.541   1.827  0.00  0.00    +0.030 C 
ATOM      3  C   UNL     1      -3.094  -1.023   1.954  0.00  0.00    +0.039 C 
ATOM      4  C   UNL     1      -3.200  -2.431   1.445  0.00  0.00    -0.023 A 
ATOM      5  C   UNL     1      -4.095  -3.373   1.833  0.00  0.00    +0.017 A 
ATOM      6  C   UNL     1      -4.080  -4.662   1.263  0.00  0.00    +0.019 A 
ATOM      7  C   UNL     1      -3.159  -5.049   0.276  0.00  0.00    +0.021 A 
ATOM      8  C   UNL     1      -2.237  -4.085  -0.126  0.00  0.00    +0.004 A 
ATOM      9  C   UNL     1      -2.279  -2.810   0.466  0.00  0.00    +0.053 A 
ATOM     10  N   UNL     1      -1.290  -2.030  -0.070  0.00  0.00    -0.341 N 
ATOM     11  C   UNL     1      -0.615  -2.769  -0.994  0.00  0.00    +0.020 A 
ATOM     12  C   UNL     1      -1.139  -4.018  -1.073  0.00  0.00    -0.018 A 
ATOM     13  C   UNL     1       0.548  -2.269  -1.812  0.00  0.00    +0.064 C 
ENDROOT
BRANCH   6  14
ATOM     14  C   UNL     1      -5.073  -5.643   1.721  0.00  0.00    +0.166 C 
ATOM     15  O   UNL     1      -5.085  -6.760   1.248  0.00  0.00    -0.292 OA
BRANCH  14  16
ATOM     16  C   UNL     1      -6.077  -5.263   2.779  0.00  0.00    +0.054 C 
ATOM     17  C   UNL     1      -7.319  -6.145   2.644  0.00  0.00    +0.015 C 
ATOM     18  C   UNL     1      -5.458  -5.461   4.164  0.00  0.00    +0.015 C 
ENDBRANCH  14  16
ENDBRANCH   6  14
BRANCH   1  19
ATOM     19  C   UNL     1       0.361  -0.268   0.351  0.00  0.00    +0.025 C 
BRANCH  19  20
ATOM     20  C   UNL     1       0.523   1.203   0.742  0.00  0.00    +0.002 C 
BRANCH  20  22
ATOM     21  C   UNL     1       2.168   3.050   1.095  0.00  0.00    +0.004 C 
ATOM     22  C   UNL     1       2.005   1.580   0.704  0.00  0.00    -0.003 C 
ENDBRANCH  20  22
ENDBRANCH  19  20
ENDBRANCH   1  19
BRANCH  12  23
ATOM     23  C   UNL     1      -0.668  -5.128  -1.976  0.00  0.00    +0.053 C 
BRANCH  23  24
ATOM     24  C   UNL     1       0.402  -5.951  -1.257  0.00  0.00    +0.089 C 
BRANCH  24  25
ATOM     25  N   UNL     1       0.861  -7.034  -2.138  0.00  0.00    -0.299 NA
ATOM     26  C   UNL     1      -0.214  -8.004  -2.384  0.00  0.00    +0.103 C 
ATOM     27  C   UNL     1       0.278  -9.070  -3.366  0.00  0.00    +0.122 C 
ATOM     28  N   UNL     1       1.465  -9.734  -2.809  0.00  0.00    -0.314 N 
ATOM     29  C   UNL     1       2.541  -8.764  -2.563  0.00  0.00    +0.122 C 
ATOM     30  C   UNL     1       2.048  -7.698  -1.581  0.00  0.00    +0.103 C 
ATOM     31  C   UNL     1       1.900 -10.758  -3.643  0.00  0.00    +0.099 A 
ATOM     32  C   UNL     1       1.024 -11.782  -3.990  0.00  0.00    +0.045 A 
ATOM     33  C   UNL     1       1.468 -12.792  -4.825  0.00  0.00    -0.046 A 
ATOM     34  C   UNL     1       2.780 -12.750  -5.276  0.00  0.00    +0.021 A 
ATOM     35  C   UNL     1       3.596 -11.707  -4.887  0.00  0.00    +0.084 A 
ATOM     36  N   UNL     1       3.144 -10.754  -4.094  0.00  0.00    -0.350 N 
ATOM     37  C   UNL     1       0.549 -13.916  -5.230  0.00  0.00    +0.044 C 
ATOM     38  H   UNL     1       3.829  -9.942  -3.809  0.00  0.00    +0.166 HD
ENDBRANCH  24  25
ENDBRANCH  23  24
ENDBRANCH  12  23
TORSDOF 8
