REMARK  Name = ZINC35038948
REMARK  9 active torsions:
REMARK  status: ('A' for Active; 'I' for Inactive)
REMARK    1  A    between atoms: C_1  and  C_2
REMARK    2  A    between atoms: C_2  and  C_4
REMARK    3  A    between atoms: C_2  and  N_22
REMARK    4  A    between atoms: N_14  and  C_15
REMARK    5  A    between atoms: N_22  and  C_23
REMARK    6  A    between atoms: C_23  and  C_24
REMARK    7  A    between atoms: C_24  and  C_25
REMARK    8  A    between atoms: C_24  and  C_26
REMARK    9  A    between atoms: N_29  and  C_30
REMARK                            x       y       z     vdW  Elec       q    Type
REMARK                         _______ _______ _______ _____ _____    ______ ____
ROOT
ATOM      1  C   UNL     1       1.961   0.825   2.864  0.00  0.00    +0.036 C 
ATOM      2  C   UNL     1       1.778  -0.497   2.115  0.00  0.00    +0.141 C 
ENDROOT
BRANCH   2   3
ATOM      3  C   UNL     1       0.325  -0.672   1.753  0.00  0.00    +0.138 A 
ATOM      4  N   UNL     1      -0.559  -0.598   2.701  0.00  0.00    -0.231 NA
ATOM      5  C   UNL     1      -1.884  -0.745   2.450  0.00  0.00    +0.078 A 
ATOM      6  C   UNL     1      -2.836  -0.664   3.469  0.00  0.00    +0.028 A 
ATOM      7  C   UNL     1      -4.170  -0.819   3.170  0.00  0.00    +0.002 A 
ATOM      8  C   UNL     1      -4.584  -1.056   1.865  0.00  0.00    +0.001 A 
ATOM      9  C   UNL     1      -3.664  -1.140   0.843  0.00  0.00    +0.015 A 
ATOM     10  C   UNL     1      -2.308  -0.985   1.125  0.00  0.00    +0.065 A 
ATOM     11  C   UNL     1      -1.282  -1.064   0.075  0.00  0.00    +0.266 A 
ATOM     12  O   UNL     1      -1.582  -1.269  -1.087  0.00  0.00    -0.267 OA
ATOM     13  N   UNL     1       0.007  -0.895   0.450  0.00  0.00    -0.263 N 
BRANCH  13  14
ATOM     14  C   UNL     1       1.024  -0.957  -0.513  0.00  0.00    +0.051 A 
ATOM     15  C   UNL     1       1.526  -2.187  -0.916  0.00  0.00    +0.029 A 
ATOM     16  C   UNL     1       2.528  -2.245  -1.865  0.00  0.00    +0.040 A 
ATOM     17  C   UNL     1       3.031  -1.077  -2.415  0.00  0.00    +0.124 A 
ATOM     18  C   UNL     1       2.531   0.150  -2.014  0.00  0.00    +0.040 A 
ATOM     19  C   UNL     1       1.525   0.212  -1.069  0.00  0.00    +0.029 A 
ATOM     20  F   UNL     1       4.011  -1.136  -3.343  0.00  0.00    -0.205 F 
ENDBRANCH  13  14
ENDBRANCH   2   3
BRANCH   2  21
ATOM     21  N   UNL     1       2.205  -1.607   2.970  0.00  0.00    -0.275 N 
ATOM     22  C   UNL     1       3.127  -2.484   2.526  0.00  0.00    +0.307 C 
ATOM     23  O   UNL     1       3.603  -2.354   1.415  0.00  0.00    -0.252 OA
ATOM     24  N   UNL     1       3.520  -3.505   3.313  0.00  0.00    -0.267 N 
ATOM     25  H   UNL     1       3.080  -3.659   4.163  0.00  0.00    +0.156 HD
BRANCH  24  26
ATOM     26  C   UNL     1       4.565  -4.343   2.903  0.00  0.00    +0.070 A 
ATOM     27  C   UNL     1       5.445  -3.925   1.914  0.00  0.00    +0.026 A 
ATOM     28  C   UNL     1       6.474  -4.754   1.512  0.00  0.00    +0.002 A 
ATOM     29  C   UNL     1       6.630  -5.999   2.092  0.00  0.00    +0.003 A 
ATOM     30  C   UNL     1       5.755  -6.420   3.077  0.00  0.00    +0.040 A 
ATOM     31  C   UNL     1       4.726  -5.593   3.489  0.00  0.00    +0.145 A 
ATOM     32  F   UNL     1       3.875  -6.002   4.456  0.00  0.00    -0.204 F 
ENDBRANCH  24  26
BRANCH  21  33
ATOM     33  C   UNL     1       1.631  -1.762   4.309  0.00  0.00    +0.113 C 
BRANCH  33  34
ATOM     34  C   UNL     1       2.473  -0.980   5.319  0.00  0.00    +0.000 C 
ATOM     35  C   UNL     1       1.792  -1.018   6.689  0.00  0.00    +0.009 C 
ATOM     36  C   UNL     1       3.863  -1.611   5.423  0.00  0.00    +0.009 C 
ENDBRANCH  33  34
ENDBRANCH  21  33
ENDBRANCH   2  21
TORSDOF 6
