REMARK  Name = ZINC06115912
REMARK  5 active torsions:
REMARK  status: ('A' for Active; 'I' for Inactive)
REMARK    1  A    between atoms: C_4  and  C_7
REMARK    2  A    between atoms: C_10  and  C_27
REMARK    3  A    between atoms: C_15  and  N_17
REMARK    4  A    between atoms: N_17  and  S_18
REMARK    5  A    between atoms: S_18  and  C_21
REMARK                            x       y       z     vdW  Elec       q    Type
REMARK                         _______ _______ _______ _____ _____    ______ ____
ROOT
ATOM      1  C   UNL     1       3.711  -0.707  -0.038  0.00  0.00    +0.147 C 
ATOM      2  C   UNL     1       3.817  -1.609   1.198  0.00  0.00    +0.087 C 
ATOM      3  C   UNL     1       4.878  -2.658   1.012  0.00  0.00    +0.055 C 
ATOM      4  N   UNL     1       5.141  -3.194  -0.150  0.00  0.00    -0.217 NA
ATOM      5  C   UNL     1       4.480  -2.736  -1.246  0.00  0.00    +0.228 A 
ATOM      6  N   UNL     1       3.787  -1.556  -1.226  0.00  0.00    -0.221 N 
ATOM      7  N   UNL     1       3.236  -1.393  -2.493  0.00  0.00    -0.130 NA
ATOM      8  C   UNL     1       3.619  -2.430  -3.210  0.00  0.00    +0.255 A 
ATOM      9  N   UNL     1       4.378  -3.234  -2.454  0.00  0.00    -0.293 N 
ATOM     10  H   UNL     1       4.791  -4.058  -2.756  0.00  0.00    +0.172 HD
ENDROOT
BRANCH   3  11
ATOM     11  C   UNL     1       5.650  -3.096   2.184  0.00  0.00    -0.003 A 
ATOM     12  C   UNL     1       5.390  -2.546   3.443  0.00  0.00    +0.011 A 
ATOM     13  C   UNL     1       6.118  -2.961   4.537  0.00  0.00    +0.020 A 
ATOM     14  C   UNL     1       7.106  -3.922   4.392  0.00  0.00    +0.041 A 
ATOM     15  C   UNL     1       7.370  -4.471   3.147  0.00  0.00    +0.020 A 
ATOM     16  C   UNL     1       6.645  -4.070   2.046  0.00  0.00    +0.011 A 
ATOM     17 CL   UNL     1       8.019  -4.439   5.775  0.00  0.00    -0.084 Cl
ENDBRANCH   3  11
BRANCH   1  21
ATOM     18  C   UNL     1      -0.017   1.378   0.010  0.00  0.00    +0.000 A 
ATOM     19  C   UNL     1       1.171   2.086   0.002  0.00  0.00    +0.000 A 
ATOM     20  C   UNL     1       2.377   1.411  -0.013  0.00  0.00    +0.006 A 
ATOM     21  C   UNL     1       2.396   0.029  -0.020  0.00  0.00    -0.023 A 
ATOM     22  C   UNL     1       1.208  -0.679  -0.012  0.00  0.00    +0.006 A 
ATOM     23  C   UNL     1       0.002  -0.004   0.002  0.00  0.00    +0.000 A 
ENDBRANCH   1  21
BRANCH   8  24
ATOM     24  N   UNL     1       3.284  -2.656  -4.546  0.00  0.00    -0.058 NA
BRANCH  24  25
ATOM     25  S   UNL     1       2.331  -1.571  -5.355  0.00  0.00    +0.094 S 
ATOM     26  O   UNL     1       1.051  -1.617  -4.740  0.00  0.00    -0.148 OA
ATOM     27  O   UNL     1       3.083  -0.369  -5.461  0.00  0.00    -0.148 OA
BRANCH  25  28
ATOM     28  C   UNL     1       2.124  -2.181  -6.995  0.00  0.00    +0.110 A 
ATOM     29  C   UNL     1       3.022  -1.825  -7.984  0.00  0.00    +0.029 A 
ATOM     30  C   UNL     1       2.860  -2.304  -9.270  0.00  0.00    +0.002 A 
ATOM     31  C   UNL     1       1.799  -3.139  -9.568  0.00  0.00    +0.000 A 
ATOM     32  C   UNL     1       0.901  -3.495  -8.580  0.00  0.00    +0.002 A 
ATOM     33  C   UNL     1       1.066  -3.020  -7.292  0.00  0.00    +0.029 A 
ENDBRANCH  25  28
ENDBRANCH  24  25
ENDBRANCH   8  24
TORSDOF 5
