REMARK  Name = ZINC39464357
REMARK  4 active torsions:
REMARK  status: ('A' for Active; 'I' for Inactive)
REMARK    1  A    between atoms: C_1  and  S_2
REMARK    2  A    between atoms: S_2  and  C_3
REMARK    3  A    between atoms: P_14  and  C_20
REMARK    4  A    between atoms: C_25  and  O_26
REMARK                            x       y       z     vdW  Elec       q    Type
REMARK                         _______ _______ _______ _____ _____    ______ ____
ROOT
ATOM      1  C   UNL     1      -1.702  -0.454   0.016  0.00  0.00    +0.043 A 
ATOM      2  C   UNL     1      -2.682   0.528   0.025  0.00  0.00    +0.021 A 
ATOM      3  C   UNL     1      -4.022   0.176   0.035  0.00  0.00    -0.040 A 
ATOM      4  C   UNL     1      -4.388  -1.153   0.037  0.00  0.00    -0.021 A 
ATOM      5  C   UNL     1      -3.409  -2.137   0.028  0.00  0.00    +0.045 A 
ATOM      6  C   UNL     1      -2.072  -1.795   0.012  0.00  0.00    +0.137 A 
ATOM      7  F   UNL     1      -1.125  -2.759  -0.002  0.00  0.00    -0.204 F 
ATOM      8  C   UNL     1      -5.831  -1.585   0.051  0.00  0.00    +0.129 C 
ATOM      9  C   UNL     1      -6.011  -2.752  -0.925  0.00  0.00    +0.194 C 
ATOM     10  O   UNL     1      -7.365  -3.236  -0.820  0.00  0.00    -0.311 OA
ATOM     11  P   UNL     1      -8.579  -2.157  -0.905  0.00  0.00    +0.318 P 
ATOM     12  O   UNL     1      -8.867  -1.822  -2.318  0.00  0.00    -0.266 OA
ATOM     13  N   UNL     1      -8.040  -0.817  -0.100  0.00  0.00    -0.175 NA
ATOM     14  N   UNL     1      -6.718  -0.479  -0.308  0.00  0.00    -0.225 NA
ATOM     15  C   UNL     1      -6.399   0.725   0.474  0.00  0.00    +0.108 C 
ATOM     16  C   UNL     1      -5.053   1.276   0.042  0.00  0.00    +0.052 C 
ATOM     17  H   UNL     1      -8.624  -0.299   0.476  0.00  0.00    +0.151 HD
ENDROOT
BRANCH  11  18
ATOM     18  C   UNL     1     -10.065  -2.820  -0.103  0.00  0.00    +0.094 A 
ATOM     19  C   UNL     1     -10.284  -2.592   1.242  0.00  0.00    +0.018 A 
ATOM     20  C   UNL     1     -11.416  -3.098   1.854  0.00  0.00    +0.001 A 
ATOM     21  C   UNL     1     -12.331  -3.831   1.122  0.00  0.00    +0.004 A 
ATOM     22  C   UNL     1     -12.117  -4.061  -0.223  0.00  0.00    +0.046 A 
ATOM     23  C   UNL     1     -10.984  -3.551  -0.841  0.00  0.00    +0.131 A 
BRANCH  23  24
ATOM     24  O   UNL     1     -10.774  -3.771  -2.166  0.00  0.00    -0.506 OA
ATOM     25  H   UNL     1     -10.276  -4.578  -2.356  0.00  0.00    +0.292 HD
ENDBRANCH  23  24
ENDBRANCH  11  18
BRANCH   1  27
ATOM     26  C   UNL     1      -0.022   1.810   0.012  0.00  0.00    +0.090 C 
ATOM     27  S   UNL     1       0.002  -0.004   0.002  0.00  0.00    -0.126 S 
ENDBRANCH   1  27
TORSDOF 3
