REMARK  Name = ZINC09234302
REMARK  5 active torsions:
REMARK  status: ('A' for Active; 'I' for Inactive)
REMARK    1  A    between atoms: C_1  and  C_2
REMARK    2  A    between atoms: C_9  and  C_27
REMARK    3  A    between atoms: C_11  and  C_18
REMARK    4  A    between atoms: C_21  and  N_24
REMARK    5  A    between atoms: C_27  and  C_29
REMARK                            x       y       z     vdW  Elec       q    Type
REMARK                         _______ _______ _______ _____ _____    ______ ____
ROOT
ATOM      1  C   UNL     1       2.469   4.248   0.067  0.00  0.00    +0.044 C 
ATOM      2  C   UNL     1       1.205   3.429   0.114  0.00  0.00    -0.050 A 
ATOM      3  C   UNL     1       1.275   2.050   0.194  0.00  0.00    +0.005 A 
ATOM      4  C   UNL     1       0.121   1.295   0.236  0.00  0.00    +0.024 A 
ATOM      5  C   UNL     1      -1.125   1.917   0.194  0.00  0.00    +0.036 A 
ATOM      6  C   UNL     1      -1.183   3.304   0.120  0.00  0.00    -0.027 A 
ATOM      7  C   UNL     1      -0.029   4.054   0.077  0.00  0.00    +0.008 A 
ATOM      8  C   UNL     1      -2.645   3.658   0.101  0.00  0.00    +0.052 C 
ATOM      9  C   UNL     1      -3.013   4.414  -1.180  0.00  0.00    +0.069 C 
ATOM     10  C   UNL     1      -3.531   5.791  -0.705  0.00  0.00    +0.016 C 
ATOM     11  C   UNL     1      -3.008   5.895   0.740  0.00  0.00    -0.047 C 
ATOM     12  C   UNL     1      -4.301   4.063   1.754  0.00  0.00    -0.005 C 
ATOM     13  S   UNL     1      -5.014   5.621   2.420  0.00  0.00    -0.181 S 
ATOM     14  C   UNL     1      -3.908   6.823   1.572  0.00  0.00    +0.052 C 
ATOM     15  C   UNL     1      -3.362   2.334   0.159  0.00  0.00    +0.212 C 
ATOM     16  O   UNL     1      -4.563   2.161   0.163  0.00  0.00    -0.277 OA
ATOM     17  N   UNL     1      -2.414   1.381   0.218  0.00  0.00    -0.286 N 
ATOM     18  H   UNL     1      -2.604   0.431   0.270  0.00  0.00    +0.155 HD
ATOM     19  N   UNL     1      -2.983   4.498   1.225  0.00  0.00    +0.401 N 
ATOM     20  H   UNL     1      -2.275   4.406   1.963  0.00  0.00    -0.078 HD
ENDROOT
BRANCH  10  21
ATOM     21  C   UNL     1      -2.959   6.895  -1.556  0.00  0.00    -0.045 A 
ATOM     22  C   UNL     1      -1.591   7.081  -1.620  0.00  0.00    +0.006 A 
ATOM     23  C   UNL     1      -1.067   8.090  -2.405  0.00  0.00    +0.033 A 
ATOM     24  C   UNL     1      -1.911   8.921  -3.118  0.00  0.00    +0.126 A 
ATOM     25  C   UNL     1      -3.280   8.739  -3.049  0.00  0.00    +0.033 A 
ATOM     26  C   UNL     1      -3.804   7.726  -2.268  0.00  0.00    +0.006 A 
BRANCH  24  27
ATOM     27  N   UNL     1      -1.350  10.005  -3.954  0.00  0.00    +0.056 N 
ATOM     28  O   UNL     1      -2.094  10.737  -4.582  0.00  0.00    -0.126 OA
ATOM     29  O   UNL     1      -0.144  10.166  -4.015  0.00  0.00    -0.126 OA
ENDBRANCH  24  27
ENDBRANCH  10  21
BRANCH   9  30
ATOM     30  C   UNL     1      -1.798   4.584  -2.054  0.00  0.00    +0.166 C 
ATOM     31  O   UNL     1      -0.724   4.153  -1.691  0.00  0.00    -0.292 OA
BRANCH  30  32
ATOM     32  C   UNL     1      -1.913   5.274  -3.349  0.00  0.00    +0.018 A 
ATOM     33  C   UNL     1      -3.151   5.767  -3.775  0.00  0.00    +0.011 A 
ATOM     34  C   UNL     1      -3.250   6.416  -4.987  0.00  0.00    +0.001 A 
ATOM     35  C   UNL     1      -2.131   6.571  -5.787  0.00  0.00    +0.000 A 
ATOM     36  C   UNL     1      -0.904   6.080  -5.376  0.00  0.00    +0.001 A 
ATOM     37  C   UNL     1      -0.788   5.434  -4.163  0.00  0.00    +0.011 A 
ENDBRANCH  30  32
ENDBRANCH   9  30
TORSDOF 4
