REMARK  Name = ZINC08833717
REMARK  4 active torsions:
REMARK  status: ('A' for Active; 'I' for Inactive)
REMARK    1  A    between atoms: C_4  and  S_10
REMARK    2  A    between atoms: C_5  and  N_7
REMARK    3  A    between atoms: S_10  and  N_13
REMARK    4  A    between atoms: N_13  and  C_14
REMARK                            x       y       z     vdW  Elec       q    Type
REMARK                         _______ _______ _______ _____ _____    ______ ____
ROOT
ATOM      1  S   UNL     1       3.858  -0.946  -0.222  0.00  0.00    +0.094 S 
ATOM      2  O   UNL     1       3.618  -1.984  -1.162  0.00  0.00    -0.148 OA
ATOM      3  O   UNL     1       4.907  -0.001  -0.382  0.00  0.00    -0.148 OA
ENDROOT
BRANCH   1   7
ATOM      4  C   UNL     1       0.016   1.428   0.089  0.00  0.00    +0.002 A 
ATOM      5  C   UNL     1       1.224   2.084  -0.062  0.00  0.00    +0.002 A 
ATOM      6  C   UNL     1       2.397   1.359  -0.157  0.00  0.00    +0.031 A 
ATOM      7  C   UNL     1       2.363  -0.022  -0.100  0.00  0.00    +0.140 A 
ATOM      8  C   UNL     1       1.156  -0.678   0.052  0.00  0.00    +0.153 A 
ATOM      9  C   UNL     1      -0.018   0.047   0.146  0.00  0.00    +0.035 A 
BRANCH   8  10
ATOM     10  N   UNL     1       1.119  -2.156   0.113  0.00  0.00    +0.058 N 
ATOM     11  O   UNL     1       0.221  -2.761  -0.425  0.00  0.00    -0.126 OA
ATOM     12  O   UNL     1       1.988  -2.759   0.699  0.00  0.00    -0.126 OA
ENDBRANCH   8  10
ENDBRANCH   1   7
BRANCH   1  13
ATOM     13  N   UNL     1       4.101  -1.680   1.242  0.00  0.00    -0.091 NA
BRANCH  13  14
ATOM     14  C   UNL     1       5.230  -2.492   1.442  0.00  0.00    +0.157 A 
ATOM     15  C   UNL     1       6.139  -2.681   0.439  0.00  0.00    +0.148 A 
ATOM     16  N   UNL     1       7.206  -3.455   0.642  0.00  0.00    -0.199 NA
ATOM     17  C   UNL     1       7.412  -4.049   1.795  0.00  0.00    +0.349 A 
ATOM     18  O   UNL     1       8.507  -4.823   1.954  0.00  0.00    -0.245 OA
ATOM     19  N   UNL     1       6.546  -3.901   2.832  0.00  0.00    -0.272 N 
ATOM     20  H   UNL     1       6.716  -4.348   3.676  0.00  0.00    +0.174 HD
ATOM     21  C   UNL     1       5.450  -3.125   2.686  0.00  0.00    +0.279 A 
ATOM     22  O   UNL     1       4.665  -2.977   3.607  0.00  0.00    -0.266 OA
ENDBRANCH  13  14
ENDBRANCH   1  13
TORSDOF 4
