REMARK  Name = ZINC01440357
REMARK  6 active torsions:
REMARK  status: ('A' for Active; 'I' for Inactive)
REMARK    1  A    between atoms: C_4  and  C_7
REMARK    2  A    between atoms: C_9  and  C_28
REMARK    3  A    between atoms: C_10  and  N_20
REMARK    4  A    between atoms: N_13  and  C_14
REMARK    5  A    between atoms: N_20  and  C_21
REMARK    6  A    between atoms: C_28  and  C_30
REMARK                            x       y       z     vdW  Elec       q    Type
REMARK                         _______ _______ _______ _____ _____    ______ ____
ROOT
ATOM      1  C   UNL     1      -3.203   2.709  -0.835  0.00  0.00    +0.148 C 
ATOM      2  C   UNL     1      -2.335   1.592  -0.303  0.00  0.00    +0.054 C 
ATOM      3  C   UNL     1      -1.063   1.869  -0.689  0.00  0.00    +0.104 C 
ATOM      4  C   UNL     1      -1.056   3.126  -1.465  0.00  0.00    +0.266 C 
ATOM      5  O   UNL     1      -0.068   3.638  -1.954  0.00  0.00    -0.268 OA
ATOM      6  N   UNL     1      -2.304   3.620  -1.553  0.00  0.00    -0.255 N 
ENDROOT
BRANCH   1  10
ATOM      7  C   UNL     1      -5.112   4.765   2.386  0.00  0.00    +0.000 A 
ATOM      8  C   UNL     1      -5.851   3.942   1.557  0.00  0.00    +0.000 A 
ATOM      9  C   UNL     1      -5.233   3.277   0.515  0.00  0.00    +0.006 A 
ATOM     10  C   UNL     1      -3.877   3.435   0.302  0.00  0.00    -0.022 A 
ATOM     11  C   UNL     1      -3.137   4.254   1.134  0.00  0.00    +0.006 A 
ATOM     12  C   UNL     1      -3.755   4.923   2.174  0.00  0.00    +0.000 A 
ENDBRANCH   1  10
BRANCH   6  13
ATOM     13  C   UNL     1      -2.679   4.794  -2.212  0.00  0.00    +0.038 A 
ATOM     14  C   UNL     1      -4.011   5.187  -2.230  0.00  0.00    +0.023 A 
ATOM     15  C   UNL     1      -4.378   6.351  -2.877  0.00  0.00    +0.002 A 
ATOM     16  C   UNL     1      -3.421   7.118  -3.517  0.00  0.00    +0.000 A 
ATOM     17  C   UNL     1      -2.095   6.727  -3.505  0.00  0.00    +0.002 A 
ATOM     18  C   UNL     1      -1.721   5.568  -2.855  0.00  0.00    +0.023 A 
ENDBRANCH   6  13
BRANCH   3  19
ATOM     19  N   UNL     1       0.045   1.098  -0.407  0.00  0.00    -0.310 N 
ATOM     20  H   UNL     1      -0.035   0.332   0.182  0.00  0.00    +0.152 HD
BRANCH  19  21
ATOM     21  C   UNL     1       1.281   1.416  -0.974  0.00  0.00    +0.031 A 
ATOM     22  C   UNL     1       1.368   1.722  -2.326  0.00  0.00    +0.024 A 
ATOM     23  C   UNL     1       2.591   2.041  -2.883  0.00  0.00    +0.017 A 
ATOM     24  C   UNL     1       3.730   2.046  -2.098  0.00  0.00    +0.018 A 
ATOM     25  C   UNL     1       3.647   1.738  -0.751  0.00  0.00    +0.017 A 
ATOM     26  C   UNL     1       2.426   1.423  -0.188  0.00  0.00    +0.024 A 
ATOM     27 BR   UNL     1       5.403   2.477  -2.865  0.00  0.00    -0.050 Br
ENDBRANCH  19  21
ENDBRANCH   3  19
BRANCH   2  28
ATOM     28  C   UNL     1      -2.779   0.437   0.479  0.00  0.00    +0.228 C 
ATOM     29  O   UNL     1      -2.422   0.312   1.638  0.00  0.00    -0.284 OA
BRANCH  28  30
ATOM     30  C   UNL     1      -3.652  -0.570  -0.133  0.00  0.00    +0.174 A 
ATOM     31  C   UNL     1      -4.221  -1.636   0.508  0.00  0.00    +0.053 A 
ATOM     32  C   UNL     1      -4.975  -2.328  -0.452  0.00  0.00    +0.042 A 
ATOM     33  C   UNL     1      -4.828  -1.669  -1.624  0.00  0.00    +0.196 A 
ATOM     34  O   UNL     1      -4.030  -0.611  -1.427  0.00  0.00    -0.460 OA
ENDBRANCH  28  30
ENDBRANCH   2  28
TORSDOF 6
