REMARK  Name = ZINC12680527
REMARK  17 active torsions:
REMARK  status: ('A' for Active; 'I' for Inactive)
REMARK    1  A    between atoms: C_1  and  C_2
REMARK    2  A    between atoms: C_2  and  C_4
REMARK    3  A    between atoms: C_2  and  O_33
REMARK    4  A    between atoms: C_4  and  C_6
REMARK    5  A    between atoms: C_4  and  N_13
REMARK    6  A    between atoms: C_6  and  O_8
REMARK    7  A    between atoms: O_8  and  C_9
REMARK    8  A    between atoms: C_9  and  C_10
REMARK    9  A    between atoms: C_9  and  C_11
REMARK   10  A    between atoms: C_9  and  C_12
REMARK   11  A    between atoms: C_14  and  C_16
REMARK   12  A    between atoms: C_20  and  S_22
REMARK   13  A    between atoms: S_22  and  N_25
REMARK   14  A    between atoms: O_33  and  C_34
REMARK   15  A    between atoms: C_34  and  C_35
REMARK   16  A    between atoms: C_34  and  C_36
REMARK   17  A    between atoms: C_34  and  C_37
REMARK                            x       y       z     vdW  Elec       q    Type
REMARK                         _______ _______ _______ _____ _____    ______ ____
ROOT
ATOM      1  N   UNL     1      -1.242   0.886   1.551  0.00  0.00    -0.296 N 
ATOM      2  C   UNL     1      -1.138   0.008   2.568  0.00  0.00    +0.245 C 
ATOM      3  O   UNL     1      -0.410  -0.960   2.463  0.00  0.00    -0.270 OA
ATOM      4  H   UNL     1      -1.823   1.659   1.635  0.00  0.00    +0.150 HD
ENDROOT
BRANCH   2   5
ATOM      5  C   UNL     1      -1.908   0.223   3.811  0.00  0.00    +0.039 A 
ATOM      6  C   UNL     1      -2.740   1.337   3.937  0.00  0.00    +0.014 A 
ATOM      7  C   UNL     1      -3.461   1.528   5.097  0.00  0.00    +0.023 A 
ATOM      8  C   UNL     1      -3.351   0.624   6.141  0.00  0.00    +0.067 A 
ATOM      9  C   UNL     1      -2.523  -0.480   6.024  0.00  0.00    +0.124 A 
ATOM     10  C   UNL     1      -1.802  -0.685   4.866  0.00  0.00    +0.043 A 
ATOM     11 CL   UNL     1      -4.256   0.875   7.601  0.00  0.00    -0.082 Cl
BRANCH   9  12
ATOM     12  S   UNL     1      -2.390  -1.625   7.357  0.00  0.00    +0.062 S 
ATOM     13  O   UNL     1      -3.717  -1.942   7.753  0.00  0.00    -0.153 OA
ATOM     14  O   UNL     1      -1.459  -2.617   6.949  0.00  0.00    -0.153 OA
BRANCH  12  15
ATOM     15  N   UNL     1      -1.697  -0.819   8.627  0.00  0.00    -0.177 NA
ATOM     16  C   UNL     1      -0.257  -0.831   8.752  0.00  0.00    +0.109 C 
ATOM     17  C   UNL     1       0.188  -2.050   9.586  0.00  0.00    +0.017 C 
ATOM     18  C   UNL     1      -0.177  -1.863  10.999  0.00  0.00    +0.001 C 
ATOM     19  C   UNL     1      -1.679  -1.758  11.251  0.00  0.00    +0.001 C 
ATOM     20  C   UNL     1      -2.122  -0.331  11.044  0.00  0.00    +0.017 C 
ATOM     21  C   UNL     1      -2.576  -0.124   9.588  0.00  0.00    +0.109 C 
ENDBRANCH  12  15
ENDBRANCH   9  12
ENDBRANCH   2   5
BRANCH   1  22
ATOM     22  C   UNL     1      -0.479   0.674   0.319  0.00  0.00    +0.211 C 
BRANCH  22  24
ATOM     23  C   UNL     1       1.647   0.533   1.623  0.00  0.00    +0.040 C 
ATOM     24  C   UNL     1       0.926   1.256   0.483  0.00  0.00    +0.147 C 
BRANCH  24  25
ATOM     25  O   UNL     1       1.659   1.080  -0.731  0.00  0.00    -0.369 OA
BRANCH  25  26
ATOM     26  C   UNL     1       2.586   2.132  -1.008  0.00  0.00    +0.062 C 
ATOM     27  C   UNL     1       3.541   2.295   0.175  0.00  0.00    +0.041 C 
ATOM     28  C   UNL     1       3.386   1.789  -2.266  0.00  0.00    +0.041 C 
ATOM     29  C   UNL     1       1.822   3.439  -1.231  0.00  0.00    +0.041 C 
ENDBRANCH  25  26
ENDBRANCH  24  25
ENDBRANCH  22  24
BRANCH  22  30
ATOM     30  C   UNL     1      -1.176   1.360  -0.828  0.00  0.00    +0.331 C 
ATOM     31  O   UNL     1      -1.951   2.261  -0.612  0.00  0.00    -0.249 OA
BRANCH  30  32
ATOM     32  O   UNL     1      -0.936   0.969  -2.090  0.00  0.00    -0.458 OA
BRANCH  32  33
ATOM     33  C   UNL     1      -1.732   1.587  -3.134  0.00  0.00    +0.105 C 
ATOM     34  C   UNL     1      -1.490   3.098  -3.134  0.00  0.00    +0.055 C 
ATOM     35  C   UNL     1      -1.332   1.007  -4.492  0.00  0.00    +0.055 C 
ATOM     36  C   UNL     1      -3.215   1.308  -2.878  0.00  0.00    +0.055 C 
ENDBRANCH  32  33
ENDBRANCH  30  32
ENDBRANCH  22  30
ENDBRANCH   1  22
TORSDOF 10
