REMARK  Name = ZINC40008306
REMARK  18 active torsions:
REMARK  status: ('A' for Active; 'I' for Inactive)
REMARK    1  A    between atoms: C_1  and  C_2
REMARK    2  A    between atoms: C_2  and  N_3
REMARK    3  A    between atoms: N_3  and  C_4
REMARK    4  A    between atoms: N_3  and  C_6
REMARK    5  A    between atoms: C_4  and  C_5
REMARK    6  A    between atoms: C_6  and  C_7
REMARK    7  A    between atoms: C_7  and  C_8
REMARK    8  A    between atoms: C_8  and  N_9
REMARK    9  A    between atoms: C_10  and  C_26
REMARK   10  A    between atoms: C_17  and  C_25
REMARK   11  A    between atoms: C_29  and  O_34
REMARK   12  A    between atoms: C_30  and  O_32
REMARK   13  A    between atoms: O_32  and  C_33
REMARK   14  A    between atoms: O_34  and  C_35
REMARK   15  A    between atoms: C_35  and  C_36
REMARK   16  A    between atoms: C_36  and  C_37
REMARK   17  A    between atoms: C_37  and  C_38
REMARK   18  A    between atoms: C_37  and  C_39
REMARK                            x       y       z     vdW  Elec       q    Type
REMARK                         _______ _______ _______ _____ _____    ______ ____
ROOT
ATOM      1  N   UNL     1      -4.276  -4.652   0.107  0.00  0.00    -0.284 N 
ATOM      2  C   UNL     1      -5.241  -4.803   1.208  0.00  0.00    +0.145 C 
ATOM      3  C   UNL     1      -6.483  -5.353   0.589  0.00  0.00    +0.072 A 
ATOM      4  C   UNL     1      -7.776  -5.720   1.177  0.00  0.00    +0.199 A 
ATOM      5  O   UNL     1      -8.087  -5.450   2.324  0.00  0.00    -0.287 OA
ATOM      6  C   UNL     1      -8.668  -6.451   0.243  0.00  0.00    +0.065 A 
ATOM      7  C   UNL     1      -9.845  -7.040   0.705  0.00  0.00    +0.018 A 
ATOM      8  C   UNL     1     -10.653  -7.714  -0.168  0.00  0.00    -0.050 A 
ATOM      9  C   UNL     1     -10.307  -7.812  -1.508  0.00  0.00    +0.007 A 
ATOM     10  C   UNL     1      -9.150  -7.235  -1.982  0.00  0.00    +0.047 A 
ATOM     11  C   UNL     1      -8.309  -6.540  -1.112  0.00  0.00    +0.139 A 
ATOM     12  O   UNL     1      -7.183  -5.973  -1.601  0.00  0.00    -0.450 OA
ATOM     13  C   UNL     1      -6.252  -5.500  -0.749  0.00  0.00    +0.199 A 
ATOM     14  C   UNL     1      -4.875  -5.057  -1.031  0.00  0.00    +0.283 C 
ATOM     15  O   UNL     1      -4.355  -5.058  -2.129  0.00  0.00    -0.267 OA
ATOM     16  C   UNL     1     -11.926  -8.352   0.328  0.00  0.00    +0.044 C 
ENDROOT
BRANCH   2  17
ATOM     17  C   UNL     1      -5.522  -3.463   1.839  0.00  0.00    -0.019 A 
ATOM     18  C   UNL     1      -5.659  -2.341   1.043  0.00  0.00    +0.009 A 
ATOM     19  C   UNL     1      -5.918  -1.110   1.617  0.00  0.00    +0.050 A 
ATOM     20  C   UNL     1      -6.040  -0.999   2.993  0.00  0.00    +0.162 A 
ATOM     21  C   UNL     1      -5.903  -2.128   3.794  0.00  0.00    +0.162 A 
ATOM     22  C   UNL     1      -5.649  -3.360   3.212  0.00  0.00    +0.055 A 
BRANCH  21  23
ATOM     23  O   UNL     1      -6.022  -2.025   5.144  0.00  0.00    -0.491 OA
ATOM     24  C   UNL     1      -5.869  -3.226   5.904  0.00  0.00    +0.277 C 
ENDBRANCH  21  23
BRANCH  20  25
ATOM     25  O   UNL     1      -6.294   0.211   3.559  0.00  0.00    -0.488 OA
BRANCH  25  26
ATOM     26  C   UNL     1      -6.422   1.327   2.675  0.00  0.00    +0.229 C 
BRANCH  26  27
ATOM     27  C   UNL     1      -6.704   2.592   3.488  0.00  0.00    +0.044 C 
BRANCH  27  28
ATOM     28  C   UNL     1      -6.841   3.786   2.541  0.00  0.00    -0.014 C 
ATOM     29  C   UNL     1      -7.246   5.026   3.341  0.00  0.00    +0.007 C 
ATOM     30  C   UNL     1      -5.503   4.042   1.845  0.00  0.00    +0.007 C 
ENDBRANCH  27  28
ENDBRANCH  26  27
ENDBRANCH  25  26
ENDBRANCH  20  25
ENDBRANCH   2  17
BRANCH   1  31
ATOM     31  C   UNL     1      -2.906  -4.146   0.226  0.00  0.00    +0.107 C 
BRANCH  31  32
ATOM     32  C   UNL     1      -2.906  -2.627   0.040  0.00  0.00    +0.000 C 
BRANCH  32  33
ATOM     33  C   UNL     1      -1.475  -2.099   0.164  0.00  0.00    -0.077 C 
BRANCH  33  34
ATOM     34  N   UNL     1      -1.457  -0.661  -0.135  0.00  0.00    +0.379 N 
ATOM     35  H   UNL     1      -1.869  -0.501  -1.043  0.00  0.00    -0.082 HD
BRANCH  34  37
ATOM     36  C   UNL     1      -2.313   1.542   0.507  0.00  0.00    -0.017 C 
ATOM     37  C   UNL     1      -2.227   0.062   0.886  0.00  0.00    -0.082 C 
ENDBRANCH  34  37
BRANCH  34  38
ATOM     38  C   UNL     1      -0.070  -0.178  -0.136  0.00  0.00    -0.082 C 
ATOM     39  C   UNL     1       0.691  -0.814  -1.301  0.00  0.00    -0.017 C 
ENDBRANCH  34  38
ENDBRANCH  33  34
ENDBRANCH  32  33
ENDBRANCH  31  32
ENDBRANCH   1  31
TORSDOF 12
