REMARK  Name = ZINC63589369
REMARK  14 active torsions:
REMARK  status: ('A' for Active; 'I' for Inactive)
REMARK    1  A    between atoms: C_1  and  C_2
REMARK    2  A    between atoms: C_2  and  O_3
REMARK    3  A    between atoms: O_3  and  C_4
REMARK    4  A    between atoms: C_7  and  C_13
REMARK    5  A    between atoms: C_9  and  O_10
REMARK    6  A    between atoms: O_10  and  C_11
REMARK    7  A    between atoms: C_11  and  C_12
REMARK    8  A    between atoms: C_13  and  N_15
REMARK    9  A    between atoms: N_17  and  C_18
REMARK   10  A    between atoms: C_22  and  C_25
REMARK   11  A    between atoms: C_23  and  C_24
REMARK   12  A    between atoms: N_26  and  C_27
REMARK   13  A    between atoms: C_27  and  C_28
REMARK   14  A    between atoms: C_28  and  C_29
REMARK                            x       y       z     vdW  Elec       q    Type
REMARK                         _______ _______ _______ _____ _____    ______ ____
ROOT
ATOM      1  N   UNL     1      -0.114  -7.346  -0.481  0.00  0.00    -0.143 NA
ATOM      2  C   UNL     1      -1.186  -8.095  -0.693  0.00  0.00    +0.194 C 
ATOM      3  N   UNL     1      -2.334  -7.857   0.006  0.00  0.00    -0.328 N 
ATOM      4  N   UNL     1      -1.142  -9.103  -1.612  0.00  0.00    -0.357 N 
ATOM      5  H   UNL     1      -2.735  -6.974  -0.005  0.00  0.00    +0.169 HD
ATOM      6  H   UNL     1      -0.314  -9.299  -2.077  0.00  0.00    +0.162 HD
ENDROOT
BRANCH   3   7
ATOM      7  C   UNL     1      -2.931  -8.888   0.740  0.00  0.00    +0.045 A 
ATOM      8  C   UNL     1      -2.142  -9.827   1.391  0.00  0.00    +0.026 A 
ATOM      9  C   UNL     1      -2.735 -10.843   2.114  0.00  0.00    +0.002 A 
ATOM     10  C   UNL     1      -4.113 -10.926   2.191  0.00  0.00    +0.004 A 
ATOM     11  C   UNL     1      -4.902  -9.993   1.543  0.00  0.00    -0.046 A 
ATOM     12  C   UNL     1      -4.315  -8.970   0.824  0.00  0.00    -0.024 A 
ATOM     13  C   UNL     1      -5.175  -7.949   0.124  0.00  0.00    +0.046 C 
ATOM     14  C   UNL     1      -6.404 -10.088   1.628  0.00  0.00    +0.044 C 
ENDBRANCH   3   7
BRANCH   1  15
ATOM     15  C   UNL     1      -0.106  -6.458   0.523  0.00  0.00    +0.270 C 
ATOM     16  O   UNL     1      -1.116  -6.268   1.177  0.00  0.00    -0.268 OA
BRANCH  15  20
ATOM     17  C   UNL     1       3.450  -4.305   1.420  0.00  0.00    +0.162 A 
ATOM     18  C   UNL     1       3.439  -5.226   0.381  0.00  0.00    +0.050 A 
ATOM     19  C   UNL     1       2.289  -5.925   0.088  0.00  0.00    +0.017 A 
ATOM     20  C   UNL     1       1.130  -5.709   0.837  0.00  0.00    +0.043 A 
ATOM     21  C   UNL     1       1.140  -4.783   1.882  0.00  0.00    +0.062 A 
ATOM     22  C   UNL     1       2.299  -4.088   2.174  0.00  0.00    +0.163 A 
BRANCH  17  23
ATOM     23  O   UNL     1       4.587  -3.618   1.705  0.00  0.00    -0.489 OA
BRANCH  23  25
ATOM     24  C   UNL     1       6.905  -3.028   1.359  0.00  0.00    +0.048 C 
ATOM     25  C   UNL     1       5.730  -3.889   0.891  0.00  0.00    +0.226 C 
ENDBRANCH  23  25
ENDBRANCH  17  23
BRANCH  22  26
ATOM     26  O   UNL     1       2.314  -3.190   3.195  0.00  0.00    -0.489 OA
BRANCH  26  27
ATOM     27  C   UNL     1       1.098  -3.018   3.926  0.00  0.00    +0.226 C 
ATOM     28  C   UNL     1       1.307  -1.976   5.026  0.00  0.00    +0.048 C 
ENDBRANCH  26  27
ENDBRANCH  22  26
ENDBRANCH  15  20
ENDBRANCH   1  15
BRANCH   4  29
ATOM     29  C   UNL     1      -2.346  -9.888  -1.895  0.00  0.00    +0.120 C 
BRANCH  29  30
ATOM     30  C   UNL     1      -2.043 -10.909  -2.993  0.00  0.00    +0.054 C 
BRANCH  30  31
ATOM     31  C   UNL     1      -3.309 -11.633  -3.369  0.00  0.00    -0.040 C 
ATOM     32  C   UNL     1      -4.165 -11.311  -4.366  0.00  0.00    -0.001 A 
ATOM     33  C   UNL     1      -4.173 -10.231  -5.359  0.00  0.00    +0.010 A 
ATOM     34  C   UNL     1      -5.189 -10.166  -6.250  0.00  0.00    +0.001 A 
ATOM     35  C   UNL     1      -6.231 -11.103  -6.248  0.00  0.00    +0.002 A 
ATOM     36  C   UNL     1      -6.293 -12.124  -5.367  0.00  0.00    +0.026 A 
ATOM     37  C   UNL     1      -5.277 -12.288  -4.386  0.00  0.00    +0.043 A 
ATOM     38  N   UNL     1      -5.115 -13.180  -3.438  0.00  0.00    -0.380 N 
ATOM     39  C   UNL     1      -3.877 -12.872  -2.713  0.00  0.00    +0.144 C 
ATOM     40  H   UNL     1      -5.712 -13.921  -3.250  0.00  0.00    +0.160 HD
ENDBRANCH  30  31
ENDBRANCH  29  30
ENDBRANCH   4  29
TORSDOF 10
