REMARK  Name = ZINC22697546
REMARK  8 active torsions:
REMARK  status: ('A' for Active; 'I' for Inactive)
REMARK    1  A    between atoms: C_1  and  C_2
REMARK    2  A    between atoms: C_2  and  C_3
REMARK    3  A    between atoms: C_2  and  C_4
REMARK    4  A    between atoms: C_4  and  C_6
REMARK    5  A    between atoms: C_4  and  N_23
REMARK    6  A    between atoms: N_11  and  C_14
REMARK    7  A    between atoms: C_14  and  C_15
REMARK    8  A    between atoms: C_24  and  C_26
REMARK                            x       y       z     vdW  Elec       q    Type
REMARK                         _______ _______ _______ _____ _____    ______ ____
ROOT
ATOM      1  C   UNL     1      -2.136   7.232  -0.978  0.00  0.00    +0.162 C 
ENDROOT
BRANCH   1   2
ATOM      2  C   UNL     1      -2.287   7.759  -2.382  0.00  0.00    +0.236 C 
ATOM      3  O   UNL     1      -2.825   7.079  -3.230  0.00  0.00    -0.274 OA
ATOM      4  N   UNL     1      -1.824   8.985  -2.695  0.00  0.00    -0.303 N 
ATOM      5  C   UNL     1      -1.274   9.872  -1.659  0.00  0.00    +0.089 C 
ATOM      6  C   UNL     1       0.104  10.365  -2.127  0.00  0.00    -0.059 C 
ATOM      7  N   UNL     1      -0.026  10.972  -3.458  0.00  0.00    +0.387 N 
ATOM      8  C   UNL     1      -0.464   9.985  -4.454  0.00  0.00    -0.059 C 
ATOM      9  C   UNL     1      -1.860   9.474  -4.082  0.00  0.00    +0.089 C 
ATOM     10  H   UNL     1      -0.800  11.751  -3.397  0.00  0.00    -0.081 HD
BRANCH   7  11
ATOM     11  C   UNL     1       1.231  11.613  -3.870  0.00  0.00    +0.019 C 
BRANCH  11  12
ATOM     12  C   UNL     1       1.520  12.780  -2.962  0.00  0.00    +0.199 C 
ATOM     13  O   UNL     1       0.755  13.052  -2.061  0.00  0.00    -0.278 OA
ATOM     14  N   UNL     1       2.630  13.522  -3.151  0.00  0.00    -0.303 N 
ATOM     15  C   UNL     1       3.569  13.201  -4.234  0.00  0.00    +0.107 C 
ATOM     16  C   UNL     1       3.785  14.464  -5.083  0.00  0.00    +0.019 C 
ATOM     17  C   UNL     1       4.240  15.609  -4.176  0.00  0.00    +0.003 C 
ATOM     18  C   UNL     1       3.152  15.905  -3.141  0.00  0.00    +0.019 C 
ATOM     19  C   UNL     1       2.925  14.663  -2.274  0.00  0.00    +0.107 C 
ENDBRANCH  11  12
ENDBRANCH   7  11
ENDBRANCH   1   2
BRANCH   1  20
ATOM     20  N   UNL     1      -1.957   5.779  -1.018  0.00  0.00    -0.303 N 
ATOM     21  C   UNL     1      -1.320   5.151  -0.010  0.00  0.00    +0.220 C 
ATOM     22  O   UNL     1      -0.895   5.788   0.930  0.00  0.00    -0.275 OA
ATOM     23  H   UNL     1      -2.343   5.200  -1.870  0.00  0.00    +0.149 HD
BRANCH  21  24
ATOM     24  C   UNL     1      -1.136   3.655  -0.051  0.00  0.00    +0.048 C 
ATOM     25  C   UNL     1      -0.328   3.275  -1.294  0.00  0.00    +0.019 C 
ATOM     26  C   UNL     1      -0.141   1.757  -1.335  0.00  0.00    -0.009 C 
ATOM     27  C   UNL     1       0.607   1.301  -0.081  0.00  0.00    +0.007 C 
ATOM     28  C   UNL     1      -0.201   1.681   1.161  0.00  0.00    -0.009 C 
ATOM     29  C   UNL     1      -0.388   3.199   1.203  0.00  0.00    +0.019 C 
ATOM     30  C   UNL     1      -1.569   1.000   1.108  0.00  0.00    +0.007 C 
ATOM     31  C   UNL     1      -2.318   1.456  -0.146  0.00  0.00    -0.009 C 
ATOM     32  C   UNL     1      -1.510   1.076  -1.389  0.00  0.00    +0.007 C 
ATOM     33  C   UNL     1      -2.505   2.974  -0.104  0.00  0.00    +0.019 C 
ENDBRANCH  21  24
ENDBRANCH   1  20
BRANCH   1  35
ATOM     34  C   UNL     1      -3.547   9.089  -0.080  0.00  0.00    +0.009 C 
ATOM     35  C   UNL     1      -3.391   7.570  -0.169  0.00  0.00    +0.012 C 
ATOM     36  C   UNL     1      -4.619   6.971  -0.859  0.00  0.00    +0.009 C 
ENDBRANCH   1  35
TORSDOF 6
