REMARK  Name = ZINC06321414
REMARK  8 active torsions:
REMARK  status: ('A' for Active; 'I' for Inactive)
REMARK    1  A    between atoms: C_1  and  C_2
REMARK    2  A    between atoms: C_6  and  C_15
REMARK    3  A    between atoms: C_13  and  C_14
REMARK    4  A    between atoms: C_15  and  C_17
REMARK    5  A    between atoms: C_15  and  N_68
REMARK    6  A    between atoms: N_21  and  C_22
REMARK    7  A    between atoms: C_22  and  C_23
REMARK    8  A    between atoms: C_34  and  C_36
REMARK                            x       y       z     vdW  Elec       q    Type
REMARK                         _______ _______ _______ _____ _____    ______ ____
ROOT
ATOM      1  C   UNL     1       0.034   4.993   2.116  0.00  0.00    +0.039 C 
ENDROOT
BRANCH   1   7
ATOM      2  C   UNL     1      -5.975   7.210   5.937  0.00  0.00    +0.044 C 
ATOM      3  C   UNL     1      -5.215   7.081   4.643  0.00  0.00    -0.047 A 
ATOM      4  C   UNL     1      -3.986   6.483   4.635  0.00  0.00    +0.013 A 
ATOM      5  C   UNL     1      -3.280   6.364   3.434  0.00  0.00    -0.001 A 
ATOM      6  C   UNL     1      -1.964   5.724   3.389  0.00  0.00    +0.017 A 
ATOM      7  C   UNL     1      -1.325   5.641   2.196  0.00  0.00    +0.011 A 
ATOM      8  C   UNL     1      -1.929   6.154   1.028  0.00  0.00    +0.251 A 
ATOM      9  O   UNL     1      -1.338   6.065  -0.034  0.00  0.00    -0.268 OA
ATOM     10  N   UNL     1      -3.139   6.739   1.059  0.00  0.00    -0.322 N 
ATOM     11  H   UNL     1      -3.525   7.081   0.237  0.00  0.00    +0.169 HD
ATOM     12  C   UNL     1      -3.839   6.859   2.240  0.00  0.00    +0.049 A 
ATOM     13  C   UNL     1      -5.091   7.464   2.272  0.00  0.00    +0.030 A 
ATOM     14  C   UNL     1      -5.769   7.572   3.468  0.00  0.00    -0.046 A 
ATOM     15  C   UNL     1      -7.125   8.228   3.500  0.00  0.00    +0.044 C 
ENDBRANCH   1   7
BRANCH   1  23
ATOM     16  C   UNL     1       1.229   3.107   1.180  0.00  0.00    -0.058 C 
ATOM     17  C   UNL     1       1.240   2.113   0.014  0.00  0.00    +0.089 C 
ATOM     18  N   UNL     1      -0.012   1.343   0.045  0.00  0.00    -0.299 N 
ATOM     19  C   UNL     1      -1.282   2.082   0.118  0.00  0.00    +0.089 C 
ATOM     20  C   UNL     1      -1.193   3.078   1.286  0.00  0.00    -0.058 C 
ATOM     21  C   UNL     1       0.002  -0.004   0.002  0.00  0.00    +0.282 C 
ATOM     22  O   UNL     1       1.056  -0.597  -0.136  0.00  0.00    -0.267 OA
ATOM     23  N   UNL     1       0.002   3.928   1.093  0.00  0.00    +0.391 N 
ATOM     24  H   UNL     1      -0.044   4.360   0.163  0.00  0.00    -0.080 HD
BRANCH  21  25
ATOM     25  C   UNL     1      -1.252  -0.755   0.121  0.00  0.00    +0.189 A 
ATOM     26  C   UNL     1      -1.368  -2.112   0.223  0.00  0.00    +0.054 A 
ATOM     27  C   UNL     1      -2.740  -2.393   0.315  0.00  0.00    +0.042 A 
ATOM     28  C   UNL     1      -3.393  -1.211   0.265  0.00  0.00    +0.196 A 
ATOM     29  O   UNL     1      -2.493  -0.226   0.154  0.00  0.00    -0.458 OA
ENDBRANCH  21  25
ENDBRANCH   1  23
BRANCH   1  30
ATOM     30  C   UNL     1       1.058   6.022   1.711  0.00  0.00    +0.143 A 
ATOM     31  N   UNL     1       1.235   6.520   0.512  0.00  0.00    -0.115 NA
ATOM     32  N   UNL     1       2.202   7.369   0.573  0.00  0.00    -0.023 NA
ATOM     33  N   UNL     1       2.652   7.419   1.778  0.00  0.00    -0.044 NA
ATOM     34  N   UNL     1       1.972   6.603   2.510  0.00  0.00    -0.226 N 
BRANCH  34  35
ATOM     35  C   UNL     1       2.160   6.356   3.942  0.00  0.00    +0.182 C 
BRANCH  35  36
ATOM     36  C   UNL     1       3.147   5.233   4.132  0.00  0.00    -0.026 A 
ATOM     37  C   UNL     1       2.702   3.926   4.205  0.00  0.00    +0.005 A 
ATOM     38  C   UNL     1       3.608   2.896   4.375  0.00  0.00    +0.000 A 
ATOM     39  C   UNL     1       4.958   3.174   4.482  0.00  0.00    +0.000 A 
ATOM     40  C   UNL     1       5.403   4.481   4.413  0.00  0.00    +0.000 A 
ATOM     41  C   UNL     1       4.497   5.510   4.238  0.00  0.00    +0.005 A 
ENDBRANCH  35  36
ENDBRANCH  34  35
ENDBRANCH   1  30
TORSDOF 6
