REMARK  Name = ZINC48856040
REMARK  3 active torsions:
REMARK  status: ('A' for Active; 'I' for Inactive)
REMARK    1  A    between atoms: C_8  and  C_10
REMARK    2  A    between atoms: C_12  and  C_15
REMARK    3  A    between atoms: C_18  and  N_21
REMARK                            x       y       z     vdW  Elec       q    Type
REMARK                         _______ _______ _______ _____ _____    ______ ____
ROOT
ATOM      1  C   UNL     1       3.122  -4.015  -0.049  0.00  0.00    +0.265 A 
ATOM      2  N   UNL     1       4.365  -4.444  -0.058  0.00  0.00    -0.187 NA
ATOM      3  C   UNL     1       4.386  -5.786  -0.065  0.00  0.00    +0.202 A 
ATOM      4  N   UNL     1       3.151  -6.229  -0.061  0.00  0.00    -0.056 NA
ATOM      5  O   UNL     1       2.308  -5.087  -0.045  0.00  0.00    -0.332 OA
ENDROOT
BRANCH   1  13
ATOM      6  C   UNL     1      -0.016   1.354   0.009  0.00  0.00    +0.001 A 
ATOM      7  C   UNL     1       1.157   2.098   0.002  0.00  0.00    +0.001 A 
ATOM      8  C   UNL     1       2.374   1.448  -0.013  0.00  0.00    +0.015 A 
ATOM      9  C   UNL     1       2.409   0.070  -0.021  0.00  0.00    +0.020 A 
ATOM     10  C   UNL     1       1.230  -0.713  -0.014  0.00  0.00    -0.010 A 
ATOM     11  C   UNL     1       0.002  -0.004   0.002  0.00  0.00    +0.009 A 
ATOM     12  C   UNL     1       1.433  -2.106  -0.023  0.00  0.00    +0.029 A 
ATOM     13  C   UNL     1       2.695  -2.608  -0.038  0.00  0.00    +0.078 A 
ATOM     14  S   UNL     1       3.708  -1.139  -0.040  0.00  0.00    -0.083 S 
ENDBRANCH   1  13
BRANCH   3  15
ATOM     15  C   UNL     1       5.606  -6.630  -0.076  0.00  0.00    +0.023 A 
ATOM     16  C   UNL     1       6.866  -6.035  -0.074  0.00  0.00    +0.013 A 
ATOM     17  C   UNL     1       7.998  -6.821  -0.084  0.00  0.00    +0.023 A 
ATOM     18  C   UNL     1       7.884  -8.207  -0.096  0.00  0.00    +0.025 A 
ATOM     19  C   UNL     1       6.627  -8.802  -0.099  0.00  0.00    +0.023 A 
ATOM     20  C   UNL     1       5.493  -8.020  -0.084  0.00  0.00    +0.013 A 
BRANCH  18  21
ATOM     21  N   UNL     1       9.030  -9.000  -0.107  0.00  0.00    -0.358 N 
ATOM     22  H   UNL     1       9.907  -8.585  -0.105  0.00  0.00    +0.142 HD
ATOM     23  H   UNL     1       8.951  -9.967  -0.116  0.00  0.00    +0.142 HD
ENDBRANCH  18  21
ENDBRANCH   3  15
TORSDOF 3
