REMARK  Name = ZINC13074457
REMARK  6 active torsions:
REMARK  status: ('A' for Active; 'I' for Inactive)
REMARK    1  A    between atoms: C_1  and  C_2
REMARK    2  A    between atoms: C_2  and  C_4
REMARK    3  A    between atoms: C_2  and  N_14
REMARK    4  A    between atoms: N_14  and  S_15
REMARK    5  A    between atoms: S_15  and  C_18
REMARK    6  A    between atoms: C_22  and  C_24
REMARK                            x       y       z     vdW  Elec       q    Type
REMARK                         _______ _______ _______ _____ _____    ______ ____
ROOT
ATOM      1  N   UNL     1       2.276  -0.308  -0.603  0.00  0.00    -0.183 NA
ATOM      2  H   UNL     1       1.446  -0.787  -0.452  0.00  0.00    +0.149 HD
ENDROOT
BRANCH   1   3
ATOM      3  S   UNL     1       3.469  -0.990  -1.528  0.00  0.00    +0.059 S 
ATOM      4  O   UNL     1       2.994  -2.269  -1.925  0.00  0.00    -0.153 OA
ATOM      5  O   UNL     1       3.871  -0.002  -2.466  0.00  0.00    -0.153 OA
BRANCH   3   6
ATOM      6  C   UNL     1       4.850  -1.272  -0.470  0.00  0.00    +0.106 A 
ATOM      7  C   UNL     1       5.817  -0.292  -0.321  0.00  0.00    +0.029 A 
ATOM      8  C   UNL     1       6.901  -0.502   0.511  0.00  0.00    +0.018 A 
ATOM      9  C   UNL     1       7.032  -1.697   1.190  0.00  0.00    +0.032 A 
ATOM     10  C   UNL     1       6.063  -2.692   1.040  0.00  0.00    +0.079 A 
ATOM     11  C   UNL     1       4.968  -2.470   0.202  0.00  0.00    +0.044 A 
ATOM     12 BR   UNL     1       8.520  -1.986   2.322  0.00  0.00    -0.049 Br
BRANCH  10  13
ATOM     13  C   UNL     1       6.196  -3.973   1.764  0.00  0.00    +0.388 C 
ATOM     14  O   UNL     1       7.150  -4.163   2.491  0.00  0.00    -0.241 OA
ATOM     15  O   UNL     1       5.259  -4.930   1.616  0.00  0.00    -0.241 OA
ENDBRANCH  10  13
ENDBRANCH   3   6
ENDBRANCH   1   3
BRANCH   1  17
ATOM     16  C   UNL     1       2.993   0.870   1.417  0.00  0.00    +0.031 C 
ATOM     17  C   UNL     1       2.474   1.019  -0.015  0.00  0.00    +0.104 C 
BRANCH  17  18
ATOM     18  C   UNL     1       1.163   1.762   0.000  0.00  0.00    -0.021 A 
ATOM     19  C   UNL     1      -0.013   1.076   0.008  0.00  0.00    +0.006 A 
ATOM     20  C   UNL     1      -1.234   1.746   0.017  0.00  0.00    +0.001 A 
ATOM     21  C   UNL     1      -1.288   3.106   0.031  0.00  0.00    +0.008 A 
ATOM     22  C   UNL     1      -0.095   3.848   0.023  0.00  0.00    -0.018 A 
ATOM     23  C   UNL     1       1.147   3.167   0.008  0.00  0.00    -0.013 A 
ATOM     24  C   UNL     1       2.340   3.910   0.001  0.00  0.00    +0.009 A 
ATOM     25  C   UNL     1       2.287   5.270   0.009  0.00  0.00    +0.001 A 
ATOM     26  C   UNL     1       1.064   5.940   0.023  0.00  0.00    +0.001 A 
ATOM     27  C   UNL     1      -0.111   5.254   0.030  0.00  0.00    +0.008 A 
ENDBRANCH  17  18
ENDBRANCH   1  17
TORSDOF 5
