REMARK  Name = ZINC13799145
REMARK  17 active torsions:
REMARK  status: ('A' for Active; 'I' for Inactive)
REMARK    1  A    between atoms: C_1  and  C_2
REMARK    2  A    between atoms: C_2  and  C_3
REMARK    3  A    between atoms: C_3  and  C_4
REMARK    4  A    between atoms: C_4  and  C_5
REMARK    5  A    between atoms: C_5  and  C_6
REMARK    6  A    between atoms: C_6  and  C_7
REMARK    7  A    between atoms: C_7  and  O_36
REMARK    8  A    between atoms: C_8  and  C_35
REMARK    9  A    between atoms: C_10  and  C_26
REMARK   10  A    between atoms: C_12  and  C_17
REMARK   11  A    between atoms: C_14  and  C_16
REMARK   12  A    between atoms: C_20  and  N_23
REMARK   13  A    between atoms: N_23  and  C_24
REMARK   14  A    between atoms: N_23  and  C_25
REMARK   15  A    between atoms: C_29  and  N_32
REMARK   16  A    between atoms: N_32  and  C_33
REMARK   17  A    between atoms: N_32  and  C_34
REMARK                            x       y       z     vdW  Elec       q    Type
REMARK                         _______ _______ _______ _____ _____    ______ ____
ROOT
ATOM      1  C   UNL     1       0.381   0.702   7.445  0.00  0.00    +0.069 C 
ATOM      2  C   UNL     1       0.657  -0.798   7.579  0.00  0.00    +0.008 C 
ATOM      3  C   UNL     1       1.338  -1.069   8.922  0.00  0.00    -0.034 C 
ATOM      4  C   UNL     1       0.230   0.834   9.934  0.00  0.00    -0.034 C 
ATOM      5  C   UNL     1      -0.485   1.161   8.621  0.00  0.00    +0.008 C 
ATOM      6  C   UNL     1      -1.832   0.436   8.578  0.00  0.00    +0.009 C 
ATOM      7  C   UNL     1       1.573  -1.252   6.440  0.00  0.00    +0.009 C 
ATOM      8  N   UNL     1       0.465  -0.620  10.024  0.00  0.00    +0.389 N 
ATOM      9  H   UNL     1       0.915  -0.835  10.921  0.00  0.00    -0.084 HD
ATOM     10  H   UNL     1      -0.434  -1.112   9.964  0.00  0.00    -0.084 HD
ENDROOT
BRANCH   4  11
ATOM     11  C   UNL     1       1.548   1.565   9.983  0.00  0.00    -0.061 A 
ATOM     12  C   UNL     1       2.667   0.934  10.494  0.00  0.00    +0.004 A 
ATOM     13  C   UNL     1       3.877   1.598  10.535  0.00  0.00    +0.023 A 
ATOM     14  C   UNL     1       3.966   2.905  10.074  0.00  0.00    +0.029 A 
ATOM     15  C   UNL     1       2.838   3.538   9.568  0.00  0.00    +0.023 A 
ATOM     16  C   UNL     1       1.633   2.866   9.524  0.00  0.00    +0.004 A 
BRANCH  14  17
ATOM     17  N   UNL     1       5.187   3.582  10.120  0.00  0.00    -0.336 N 
ATOM     18  C   UNL     1       5.279   4.961   9.633  0.00  0.00    +0.129 C 
ATOM     19  C   UNL     1       6.376   2.913  10.654  0.00  0.00    +0.129 C 
ENDBRANCH  14  17
ENDBRANCH   4  11
BRANCH   3  20
ATOM     20  C   UNL     1       1.593  -2.547   9.068  0.00  0.00    -0.061 A 
ATOM     21  C   UNL     1       0.569  -3.388   9.464  0.00  0.00    +0.004 A 
ATOM     22  C   UNL     1       0.797  -4.744   9.592  0.00  0.00    +0.023 A 
ATOM     23  C   UNL     1       2.060  -5.261   9.334  0.00  0.00    +0.029 A 
ATOM     24  C   UNL     1       3.088  -4.413   8.941  0.00  0.00    +0.023 A 
ATOM     25  C   UNL     1       2.851  -3.059   8.809  0.00  0.00    +0.004 A 
BRANCH  23  26
ATOM     26  N   UNL     1       2.295  -6.631   9.468  0.00  0.00    -0.336 N 
ATOM     27  C   UNL     1       3.628  -7.176   9.194  0.00  0.00    +0.129 C 
ATOM     28  C   UNL     1       1.210  -7.524   9.882  0.00  0.00    +0.129 C 
ENDBRANCH  23  26
ENDBRANCH   3  20
BRANCH   1  29
ATOM     29  O   UNL     1       1.618   1.418   7.455  0.00  0.00    -0.388 OA
ATOM     30  H   UNL     1       2.218   1.175   6.736  0.00  0.00    +0.210 HD
ENDBRANCH   1  29
BRANCH   1  31
ATOM     31  C   UNL     1      -0.356   0.971   6.132  0.00  0.00    +0.035 C 
BRANCH  31  32
ATOM     32  C   UNL     1      -0.659   2.466   6.014  0.00  0.00    +0.003 C 
BRANCH  32  33
ATOM     33  C   UNL     1      -1.273   2.756   4.643  0.00  0.00    +0.000 C 
BRANCH  33  34
ATOM     34  C   UNL     1      -1.576   4.251   4.526  0.00  0.00    -0.000 C 
BRANCH  34  36
ATOM     35  C   UNL     1      -2.493   6.035   3.037  0.00  0.00    +0.004 C 
ATOM     36  C   UNL     1      -2.190   4.540   3.154  0.00  0.00    -0.003 C 
ENDBRANCH  34  36
ENDBRANCH  33  34
ENDBRANCH  32  33
ENDBRANCH  31  32
ENDBRANCH   1  31
TORSDOF 10
