REMARK  Name = ZINC22342899
REMARK  15 active torsions:
REMARK  status: ('A' for Active; 'I' for Inactive)
REMARK    1  A    between atoms: C_1  and  C_2
REMARK    2  A    between atoms: C_5  and  N_8
REMARK    3  A    between atoms: N_8  and  C_9
REMARK    4  A    between atoms: N_8  and  S_23
REMARK    5  A    between atoms: C_9  and  C_10
REMARK    6  A    between atoms: N_12  and  C_13
REMARK    7  A    between atoms: C_13  and  C_14
REMARK    8  A    between atoms: C_14  and  C_15
REMARK    9  A    between atoms: C_15  and  S_16
REMARK   10  A    between atoms: S_16  and  C_17
REMARK   11  A    between atoms: S_23  and  C_26
REMARK   12  A    between atoms: C_29  and  O_34
REMARK   13  A    between atoms: C_30  and  O_32
REMARK   14  A    between atoms: O_32  and  C_33
REMARK   15  A    between atoms: O_34  and  C_35
REMARK                            x       y       z     vdW  Elec       q    Type
REMARK                         _______ _______ _______ _____ _____    ______ ____
ROOT
ATOM      1  N   UNL     1      -0.343   1.625  -0.034  0.00  0.00    -0.194 N 
ENDROOT
BRANCH   1   6
ATOM      2  C   UNL     1       4.244   4.855  -0.863  0.00  0.00    +0.044 C 
ATOM      3  C   UNL     1       3.025   3.997  -0.642  0.00  0.00    -0.050 A 
ATOM      4  C   UNL     1       1.768   4.497  -0.929  0.00  0.00    +0.005 A 
ATOM      5  C   UNL     1       0.649   3.713  -0.729  0.00  0.00    +0.025 A 
ATOM      6  C   UNL     1       0.787   2.421  -0.239  0.00  0.00    +0.052 A 
ATOM      7  C   UNL     1       2.051   1.923   0.053  0.00  0.00    +0.025 A 
ATOM      8  C   UNL     1       3.166   2.711  -0.154  0.00  0.00    +0.005 A 
ENDBRANCH   1   6
BRANCH   1   9
ATOM      9  S   UNL     1      -0.490   0.177  -0.825  0.00  0.00    +0.075 S 
ATOM     10  O   UNL     1      -1.880  -0.106  -0.898  0.00  0.00    -0.150 OA
ATOM     11  O   UNL     1       0.333   0.260  -1.980  0.00  0.00    -0.150 OA
BRANCH   9  12
ATOM     12  C   UNL     1       0.222  -1.057   0.213  0.00  0.00    +0.112 A 
ATOM     13  C   UNL     1       1.527  -1.462   0.007  0.00  0.00    +0.032 A 
ATOM     14  C   UNL     1       2.092  -2.426   0.822  0.00  0.00    +0.051 A 
ATOM     15  C   UNL     1       1.345  -2.997   1.840  0.00  0.00    +0.162 A 
ATOM     16  C   UNL     1       0.029  -2.593   2.043  0.00  0.00    +0.163 A 
ATOM     17  C   UNL     1      -0.529  -1.622   1.227  0.00  0.00    +0.078 A 
BRANCH  16  18
ATOM     18  O   UNL     1      -0.709  -3.149   3.042  0.00  0.00    -0.491 OA
ATOM     19  C   UNL     1      -2.052  -2.686   3.192  0.00  0.00    +0.277 C 
ENDBRANCH  16  18
BRANCH  15  20
ATOM     20  O   UNL     1       1.896  -3.949   2.638  0.00  0.00    -0.491 OA
ATOM     21  C   UNL     1       3.252  -4.314   2.371  0.00  0.00    +0.277 C 
ENDBRANCH  15  20
ENDBRANCH   9  12
ENDBRANCH   1   9
BRANCH   1  22
ATOM     22  C   UNL     1      -1.400   2.074   0.874  0.00  0.00    +0.227 C 
BRANCH  22  23
ATOM     23  C   UNL     1      -1.052   1.678   2.286  0.00  0.00    +0.232 C 
ATOM     24  O   UNL     1      -0.021   1.080   2.511  0.00  0.00    -0.274 OA
ATOM     25  N   UNL     1      -1.885   1.989   3.298  0.00  0.00    -0.314 N 
ATOM     26  H   UNL     1      -2.820   2.532   3.094  0.00  0.00    +0.149 HD
BRANCH  25  27
ATOM     27  C   UNL     1      -1.546   1.604   4.671  0.00  0.00    +0.105 C 
BRANCH  27  28
ATOM     28  C   UNL     1      -2.651   2.074   5.620  0.00  0.00    +0.030 C 
BRANCH  28  29
ATOM     29  C   UNL     1      -2.297   1.672   7.053  0.00  0.00    +0.076 C 
BRANCH  29  30
ATOM     30  S   UNL     1      -3.606   2.228   8.178  0.00  0.00    -0.125 S 
BRANCH  30  31
ATOM     31  C   UNL     1      -3.058   1.697   9.766  0.00  0.00    +0.008 A 
ATOM     32  C   UNL     1      -1.856   1.012   9.895  0.00  0.00    +0.015 A 
ATOM     33  C   UNL     1      -1.427   0.602  11.142  0.00  0.00    +0.001 A 
ATOM     34  C   UNL     1      -2.196   0.863  12.260  0.00  0.00    +0.000 A 
ATOM     35  C   UNL     1      -3.396   1.540  12.135  0.00  0.00    +0.001 A 
ATOM     36  C   UNL     1      -3.829   1.957  10.892  0.00  0.00    +0.015 A 
ENDBRANCH  30  31
ENDBRANCH  29  30
ENDBRANCH  28  29
ENDBRANCH  27  28
ENDBRANCH  25  27
ENDBRANCH  22  23
ENDBRANCH   1  22
TORSDOF 12
