REMARK  Name = ZINC12462982
REMARK  5 active torsions:
REMARK  status: ('A' for Active; 'I' for Inactive)
REMARK    1  A    between atoms: C_1  and  C_2
REMARK    2  A    between atoms: C_7  and  O_34
REMARK    3  A    between atoms: C_8  and  C_14
REMARK    4  A    between atoms: C_16  and  C_28
REMARK    5  A    between atoms: N_19  and  C_22
REMARK                            x       y       z     vdW  Elec       q    Type
REMARK                         _______ _______ _______ _____ _____    ______ ____
ROOT
ATOM      1  C   UNL     1       0.688  -2.947   4.035  0.00  0.00    +0.004 C 
ATOM      2  C   UNL     1       0.904  -3.166   5.329  0.00  0.00    +0.036 C 
ATOM      3  C   UNL     1      -0.125  -3.263   6.439  0.00  0.00    +0.138 C 
ATOM      4  N   UNL     1       0.671  -3.513   7.654  0.00  0.00    -0.221 NA
ATOM      5  N   UNL     1       1.987  -3.558   7.316  0.00  0.00    -0.200 N 
ATOM      6  C   UNL     1       2.198  -3.374   6.006  0.00  0.00    +0.262 C 
ATOM      7  O   UNL     1       3.285  -3.377   5.460  0.00  0.00    -0.269 OA
ATOM      8  H   UNL     1       0.500  -2.803   8.350  0.00  0.00    +0.146 HD
ENDROOT
BRANCH   1  16
ATOM      9  C   UNL     1      -2.094  -0.618  -0.903  0.00  0.00    +0.045 C 
ATOM     10  C   UNL     1      -1.857  -2.043  -0.475  0.00  0.00    -0.029 A 
ATOM     11  C   UNL     1      -2.009  -3.058  -1.371  0.00  0.00    +0.005 A 
ATOM     12  C   UNL     1      -1.801  -4.387  -1.017  0.00  0.00    +0.001 A 
ATOM     13  C   UNL     1      -1.434  -4.732   0.248  0.00  0.00    +0.013 A 
ATOM     14  C   UNL     1      -1.260  -3.727   1.220  0.00  0.00    +0.035 A 
ATOM     15  C   UNL     1      -0.884  -4.053   2.525  0.00  0.00    +0.119 C 
ATOM     16  C   UNL     1      -0.722  -2.905   3.503  0.00  0.00    +0.164 C 
ATOM     17  C   UNL     1      -0.979  -1.509   2.984  0.00  0.00    +0.231 C 
ATOM     18  O   UNL     1      -0.862  -0.553   3.728  0.00  0.00    -0.274 OA
ATOM     19  N   UNL     1      -1.330  -1.327   1.727  0.00  0.00    -0.284 N 
ATOM     20  C   UNL     1      -1.474  -2.326   0.847  0.00  0.00    +0.047 A 
ATOM     21  H   UNL     1      -1.489  -0.420   1.422  0.00  0.00    +0.155 HD
BRANCH  15  22
ATOM     22  O   UNL     1      -0.678  -5.321   2.896  0.00  0.00    -0.509 OA
ATOM     23  H   UNL     1      -0.812  -5.965   2.187  0.00  0.00    +0.292 HD
ENDBRANCH  15  22
ENDBRANCH   1  16
BRANCH   5  24
ATOM     24  C   UNL     1       3.013  -3.779   8.240  0.00  0.00    +0.053 A 
ATOM     25  C   UNL     1       4.280  -3.257   8.011  0.00  0.00    +0.025 A 
ATOM     26  C   UNL     1       5.291  -3.477   8.925  0.00  0.00    +0.002 A 
ATOM     27  C   UNL     1       5.044  -4.217  10.067  0.00  0.00    +0.000 A 
ATOM     28  C   UNL     1       3.785  -4.739  10.297  0.00  0.00    +0.002 A 
ATOM     29  C   UNL     1       2.767  -4.516   9.391  0.00  0.00    +0.025 A 
ENDBRANCH   5  24
BRANCH   3  30
ATOM     30  C   UNL     1      -0.889  -1.970   6.563  0.00  0.00    -0.024 A 
ATOM     31  C   UNL     1      -0.273  -0.850   7.088  0.00  0.00    +0.005 A 
ATOM     32  C   UNL     1      -0.974   0.336   7.202  0.00  0.00    +0.000 A 
ATOM     33  C   UNL     1      -2.292   0.401   6.790  0.00  0.00    +0.000 A 
ATOM     34  C   UNL     1      -2.909  -0.719   6.264  0.00  0.00    +0.000 A 
ATOM     35  C   UNL     1      -2.206  -1.903   6.146  0.00  0.00    +0.005 A 
ENDBRANCH   3  30
TORSDOF 4
