REMARK  Name = ZINC59876478
REMARK  15 active torsions:
REMARK  status: ('A' for Active; 'I' for Inactive)
REMARK    1  A    between atoms: C_1  and  C_2
REMARK    2  A    between atoms: C_2  and  O_3
REMARK    3  A    between atoms: O_3  and  C_4
REMARK    4  A    between atoms: N_6  and  C_7
REMARK    5  A    between atoms: C_7  and  C_9
REMARK    6  A    between atoms: C_7  and  C_13
REMARK    7  A    between atoms: C_9  and  C_10
REMARK    8  A    between atoms: C_10  and  C_11
REMARK    9  A    between atoms: C_10  and  C_12
REMARK   10  A    between atoms: C_13  and  N_14
REMARK   11  A    between atoms: C_15  and  C_17
REMARK   12  A    between atoms: C_17  and  C_18
REMARK   13  A    between atoms: C_18  and  C_19
REMARK   14  A    between atoms: C_19  and  C_20
REMARK   15  A    between atoms: C_20  and  C_21
REMARK                            x       y       z     vdW  Elec       q    Type
REMARK                         _______ _______ _______ _____ _____    ______ ____
ROOT
ATOM      1  N   UNL     1      -4.553  -3.487  -1.940  0.00  0.00    -0.314 N 
ATOM      2  C   UNL     1      -5.668  -3.689  -2.671  0.00  0.00    +0.213 C 
ATOM      3  O   UNL     1      -6.516  -4.464  -2.281  0.00  0.00    -0.276 OA
ATOM      4  H   UNL     1      -3.875  -2.868  -2.252  0.00  0.00    +0.149 HD
ENDROOT
BRANCH   1   5
ATOM      5  C   UNL     1      -4.366  -4.204  -0.676  0.00  0.00    +0.126 C 
BRANCH   5   6
ATOM      6  C   UNL     1      -3.030  -3.796  -0.052  0.00  0.00    +0.093 C 
BRANCH   6   9
ATOM      7  C   UNL     1      -1.795  -1.699   0.067  0.00  0.00    +0.401 C 
ATOM      8  O   UNL     1      -0.761  -2.337   0.026  0.00  0.00    -0.226 OA
ATOM      9  N   UNL     1      -2.981  -2.339   0.090  0.00  0.00    -0.277 N 
ATOM     10  H   UNL     1      -3.802  -1.835   0.200  0.00  0.00    +0.152 HD
BRANCH   7  11
ATOM     11  O   UNL     1      -1.755  -0.354   0.091  0.00  0.00    -0.451 OA
BRANCH  11  13
ATOM     12  C   UNL     1      -0.620   1.780   0.097  0.00  0.00    +0.048 C 
ATOM     13  C   UNL     1      -0.464   0.258   0.065  0.00  0.00    +0.230 C 
ENDBRANCH  11  13
ENDBRANCH   7  11
ENDBRANCH   6   9
BRANCH   6  14
ATOM     14  C   UNL     1      -2.890  -4.448   1.325  0.00  0.00    +0.027 C 
BRANCH  14  15
ATOM     15  C   UNL     1      -2.840  -5.969   1.168  0.00  0.00    -0.015 C 
ATOM     16  C   UNL     1      -1.559  -6.362   0.429  0.00  0.00    +0.007 C 
ATOM     17  C   UNL     1      -2.854  -6.626   2.549  0.00  0.00    +0.007 C 
ENDBRANCH  14  15
ENDBRANCH   6  14
ENDBRANCH   5   6
ENDBRANCH   1   5
BRANCH   2  18
ATOM     18  C   UNL     1      -5.860  -2.952  -3.971  0.00  0.00    +0.096 C 
BRANCH  18  19
ATOM     19  C   UNL     1      -7.197  -3.359  -4.595  0.00  0.00    +0.009 C 
BRANCH  19  20
ATOM     20  C   UNL     1      -7.392  -2.611  -5.915  0.00  0.00    +0.002 C 
BRANCH  20  21
ATOM     21  C   UNL     1      -8.728  -3.018  -6.539  0.00  0.00    +0.016 C 
BRANCH  21  22
ATOM     22  C   UNL     1      -8.924  -2.270  -7.859  0.00  0.00    +0.069 C 
ATOM     23  C   UNL     1     -10.244  -2.687  -8.543  0.00  0.00    +0.108 C 
ATOM     24  C   UNL     1     -10.998  -1.520  -9.187  0.00  0.00    +0.105 C 
ATOM     25  C   UNL     1     -10.294  -0.157  -9.017  0.00  0.00    +0.093 C 
ATOM     26  S   UNL     1      -9.216  -0.472  -7.565  0.00  0.00    -0.154 S 
ATOM     27  N   UNL     1     -12.281  -1.483  -8.466  0.00  0.00    -0.294 N 
ATOM     28  C   UNL     1     -12.294  -2.458  -7.548  0.00  0.00    +0.300 C 
ATOM     29  O   UNL     1     -13.237  -2.659  -6.807  0.00  0.00    -0.253 OA
ATOM     30  N   UNL     1     -11.178  -3.184  -7.520  0.00  0.00    -0.294 N 
ATOM     31  H   UNL     1     -13.000  -0.853  -8.630  0.00  0.00    +0.151 HD
ATOM     32  H   UNL     1     -11.012  -3.927  -6.919  0.00  0.00    +0.151 HD
ENDBRANCH  21  22
ENDBRANCH  20  21
ENDBRANCH  19  20
ENDBRANCH  18  19
ENDBRANCH   2  18
TORSDOF 12
