REMARK  Name = ZINC13215887
REMARK  7 active torsions:
REMARK  status: ('A' for Active; 'I' for Inactive)
REMARK    1  A    between atoms: C_1  and  C_2
REMARK    2  A    between atoms: C_5  and  C_33
REMARK    3  A    between atoms: C_7  and  N_8
REMARK    4  A    between atoms: C_9  and  C_27
REMARK    5  A    between atoms: C_11  and  C_16
REMARK    6  A    between atoms: C_16  and  C_18
REMARK    7  A    between atoms: C_30  and  C_32
REMARK                            x       y       z     vdW  Elec       q    Type
REMARK                         _______ _______ _______ _____ _____    ______ ____
ROOT
ATOM      1  N   UNL     1       0.700   0.436   3.131  0.00  0.00    -0.252 N 
ATOM      2  C   UNL     1      -0.716   0.445   3.516  0.00  0.00    +0.156 C 
ATOM      3  C   UNL     1      -0.744   0.670   5.010  0.00  0.00    +0.077 C 
ATOM      4  C   UNL     1       0.544   0.776   5.413  0.00  0.00    +0.250 C 
ATOM      5  C   UNL     1       1.433   0.624   4.244  0.00  0.00    +0.292 C 
ATOM      6  O   UNL     1       2.647   0.666   4.280  0.00  0.00    -0.266 OA
ATOM      7  O   UNL     1       0.952   0.983   6.687  0.00  0.00    -0.282 OA
ENDROOT
BRANCH   1  14
ATOM      8  C   UNL     1       1.735   2.707   1.773  0.00  0.00    +0.045 C 
ATOM      9  C   UNL     1       1.716   1.341   1.136  0.00  0.00    -0.029 A 
ATOM     10  C   UNL     1       2.216   1.170  -0.141  0.00  0.00    +0.006 A 
ATOM     11  C   UNL     1       2.202  -0.077  -0.732  0.00  0.00    +0.015 A 
ATOM     12  C   UNL     1       1.681  -1.173  -0.038  0.00  0.00    +0.065 A 
ATOM     13  C   UNL     1       1.176  -0.999   1.252  0.00  0.00    +0.039 A 
ATOM     14  C   UNL     1       1.200   0.258   1.837  0.00  0.00    +0.041 A 
BRANCH  12  15
ATOM     15  C   UNL     1       1.664  -2.507  -0.666  0.00  0.00    +0.387 C 
ATOM     16  O   UNL     1       2.106  -2.656  -1.796  0.00  0.00    -0.241 OA
ATOM     17  O   UNL     1       1.207  -3.464  -0.057  0.00  0.00    -0.241 OA
ENDBRANCH  12  15
ENDBRANCH   1  14
BRANCH   2  18
ATOM     18  C   UNL     1      -1.439   1.562   2.809  0.00  0.00    +0.015 A 
ATOM     19  C   UNL     1      -2.527   1.499   2.002  0.00  0.00    +0.013 A 
ATOM     20  C   UNL     1      -3.025   2.667   1.456  0.00  0.00    +0.011 A 
ATOM     21  C   UNL     1      -2.411   3.841   1.744  0.00  0.00    -0.013 A 
ATOM     22  S   UNL     1      -1.089   3.312   2.821  0.00  0.00    -0.096 S 
ATOM     23  C   UNL     1      -2.758   5.231   1.278  0.00  0.00    +0.051 C 
ENDBRANCH   2  18
BRANCH   3  24
ATOM     24  C   UNL     1      -1.937   0.757   5.859  0.00  0.00    +0.195 C 
ATOM     25  O   UNL     1      -2.206   1.800   6.424  0.00  0.00    -0.287 OA
BRANCH  24  26
ATOM     26  C   UNL     1      -2.810  -0.421   6.028  0.00  0.00    +0.026 A 
ATOM     27  C   UNL     1      -2.510  -1.617   5.367  0.00  0.00    +0.015 A 
ATOM     28  C   UNL     1      -3.326  -2.715   5.527  0.00  0.00    +0.050 A 
ATOM     29  C   UNL     1      -4.447  -2.640   6.343  0.00  0.00    +0.166 A 
ATOM     30  C   UNL     1      -4.752  -1.449   7.005  0.00  0.00    +0.167 A 
ATOM     31  C   UNL     1      -3.935  -0.347   6.854  0.00  0.00    +0.061 A 
ATOM     32  O   UNL     1      -5.892  -1.636   7.734  0.00  0.00    -0.453 OA
ATOM     33  C   UNL     1      -6.505  -2.820   7.191  0.00  0.00    +0.466 C 
ATOM     34  O   UNL     1      -5.395  -3.568   6.659  0.00  0.00    -0.453 OA
ENDBRANCH  24  26
ENDBRANCH   3  24
TORSDOF 5
