REMARK  Name = ZINC33959364
REMARK  9 active torsions:
REMARK  status: ('A' for Active; 'I' for Inactive)
REMARK    1  A    between atoms: C_1  and  C_2
REMARK    2  A    between atoms: C_2  and  C_3
REMARK    3  A    between atoms: C_3  and  N_4
REMARK    4  A    between atoms: C_8  and  O_31
REMARK    5  A    between atoms: N_12  and  N_13
REMARK    6  A    between atoms: C_14  and  C_16
REMARK    7  A    between atoms: C_16  and  O_17
REMARK    8  A    between atoms: O_17  and  C_18
REMARK    9  A    between atoms: O_31  and  C_32
REMARK                            x       y       z     vdW  Elec       q    Type
REMARK                         _______ _______ _______ _____ _____    ______ ____
ROOT
ATOM      1  N   UNL     1      -1.454  -6.516   0.881  0.00  0.00    -0.203 N 
ATOM      2  C   UNL     1      -1.537  -7.603   1.673  0.00  0.00    +0.270 C 
ATOM      3  O   UNL     1      -1.533  -7.478   2.878  0.00  0.00    -0.270 OA
ATOM      4  H   UNL     1      -1.457  -6.616  -0.084  0.00  0.00    +0.177 HD
ENDROOT
BRANCH   1  13
ATOM      5  N   UNL     1      -1.324  -2.002  -0.004  0.00  0.00    -0.266 N 
ATOM      6  C   UNL     1      -1.607  -2.769  -1.132  0.00  0.00    +0.046 A 
ATOM      7  C   UNL     1      -1.820  -2.414  -2.459  0.00  0.00    +0.028 A 
ATOM      8  C   UNL     1      -2.088  -3.384  -3.403  0.00  0.00    +0.047 A 
ATOM      9  C   UNL     1      -2.149  -4.724  -3.042  0.00  0.00    +0.121 A 
ATOM     10  C   UNL     1      -1.939  -5.095  -1.724  0.00  0.00    +0.057 A 
ATOM     11  C   UNL     1      -1.669  -4.120  -0.769  0.00  0.00    +0.032 A 
ATOM     12  C   UNL     1      -1.403  -4.175   0.688  0.00  0.00    +0.153 C 
ATOM     13  N   UNL     1      -1.363  -5.239   1.452  0.00  0.00    -0.174 NA
ATOM     14  C   UNL     1      -1.188  -2.770   1.090  0.00  0.00    +0.271 C 
ATOM     15  O   UNL     1      -0.936  -2.378   2.214  0.00  0.00    -0.268 OA
BRANCH   9  16
ATOM     16  O   UNL     1      -2.414  -5.671  -3.981  0.00  0.00    -0.495 OA
ATOM     17  C   UNL     1      -2.621  -5.217  -5.320  0.00  0.00    +0.277 C 
ENDBRANCH   9  16
BRANCH   5  18
ATOM     18  C   UNL     1      -1.186  -0.544  -0.011  0.00  0.00    +0.114 C 
BRANCH  18  20
ATOM     19  C   UNL     1       0.416   1.352  -0.290  0.00  0.00    +0.005 C 
ATOM     20  C   UNL     1       0.272  -0.171  -0.283  0.00  0.00    +0.016 C 
ENDBRANCH  18  20
ENDBRANCH   5  18
ENDBRANCH   1  13
BRANCH   2  21
ATOM     21  C   UNL     1      -1.635  -8.976   1.059  0.00  0.00    +0.326 C 
BRANCH  21  22
ATOM     22  O   UNL     1      -1.711  -9.957   2.095  0.00  0.00    -0.483 OA
BRANCH  22  23
ATOM     23  C   UNL     1      -1.804 -11.257   1.709  0.00  0.00    +0.122 A 
ATOM     24  C   UNL     1      -1.816 -11.572   0.347  0.00  0.00    +0.046 A 
ATOM     25  C   UNL     1      -1.908 -12.863  -0.071  0.00  0.00    +0.012 A 
ATOM     26  C   UNL     1      -1.993 -13.898   0.877  0.00  0.00    -0.017 A 
ATOM     27  C   UNL     1      -2.089 -15.243   0.480  0.00  0.00    +0.023 A 
ATOM     28  C   UNL     1      -2.170 -16.220   1.425  0.00  0.00    +0.018 A 
ATOM     29  C   UNL     1      -2.158 -15.907   2.784  0.00  0.00    +0.016 A 
ATOM     30  C   UNL     1      -2.067 -14.617   3.205  0.00  0.00    +0.010 A 
ATOM     31  C   UNL     1      -1.982 -13.581   2.258  0.00  0.00    -0.014 A 
ATOM     32  C   UNL     1      -1.880 -12.237   2.656  0.00  0.00    +0.054 A 
ATOM     33 BR   UNL     1      -2.299 -18.028   0.887  0.00  0.00    -0.050 Br
ENDBRANCH  22  23
ENDBRANCH  21  22
ENDBRANCH   2  21
TORSDOF 7
