REMARK  Name = ZINC50866178
REMARK  2 active torsions:
REMARK  status: ('A' for Active; 'I' for Inactive)
REMARK    1  A    between atoms: C_2  and  C_12
REMARK    2  A    between atoms: C_16  and  N_18
REMARK                            x       y       z     vdW  Elec       q    Type
REMARK                         _______ _______ _______ _____ _____    ______ ____
ROOT
ATOM      1  C   UNL     1       1.163   3.575   0.010  0.00  0.00    +0.162 A 
ATOM      2  N   UNL     1       2.313   4.236  -0.003  0.00  0.00    -0.232 NA
ATOM      3  C   UNL     1       2.338   5.561   0.004  0.00  0.00    +0.050 A 
ATOM      4  C   UNL     1       1.145   6.256   0.024  0.00  0.00    +0.013 A 
ATOM      5  C   UNL     1      -0.051   5.535   0.038  0.00  0.00    +0.123 A 
ATOM      6  N   UNL     1      -0.003   4.207   0.025  0.00  0.00    -0.213 NA
ATOM      7  C   UNL     1       1.416   7.742   0.028  0.00  0.00    +0.041 C 
ATOM      8  C   UNL     1       2.896   7.882   0.444  0.00  0.00    +0.011 C 
ATOM      9  C   UNL     1       3.496   6.533  -0.009  0.00  0.00    +0.056 C 
ENDROOT
BRANCH   1  11
ATOM     10  C   UNL     1      -0.017   1.380   0.010  0.00  0.00    +0.061 A 
ATOM     11  C   UNL     1       1.181   2.093   0.002  0.00  0.00    +0.024 A 
ATOM     12  C   UNL     1       2.396   1.410  -0.014  0.00  0.00    +0.035 A 
ATOM     13  C   UNL     1       2.410   0.030  -0.023  0.00  0.00    +0.087 A 
ATOM     14  C   UNL     1       1.217  -0.682  -0.017  0.00  0.00    +0.180 A 
ATOM     15  C   UNL     1       0.002  -0.004   0.002  0.00  0.00    +0.164 A 
ATOM     16  O   UNL     1      -1.176  -0.686   0.017  0.00  0.00    -0.485 OA
ATOM     17  C   UNL     1      -1.127  -2.065  -0.367  0.00  0.00    +0.270 C 
ATOM     18  C   UNL     1       0.055  -2.723   0.358  0.00  0.00    +0.270 C 
ATOM     19  O   UNL     1       1.254  -2.042  -0.030  0.00  0.00    -0.483 OA
ATOM     20 CL   UNL     1       3.924  -0.820  -0.043  0.00  0.00    -0.080 Cl
ENDBRANCH   1  11
BRANCH   5  21
ATOM     21  N   UNL     1      -1.269   6.194   0.059  0.00  0.00    -0.343 N 
ATOM     22  H   UNL     1      -1.296   7.164   0.064  0.00  0.00    +0.144 HD
ATOM     23  H   UNL     1      -2.095   5.686   0.068  0.00  0.00    +0.144 HD
ENDBRANCH   5  21
TORSDOF 2
