REMARK  Name = ZINC58385775
REMARK  5 active torsions:
REMARK  status: ('A' for Active; 'I' for Inactive)
REMARK    1  A    between atoms: C_1  and  C_2
REMARK    2  A    between atoms: C_2  and  C_3
REMARK    3  A    between atoms: C_2  and  N_15
REMARK    4  A    between atoms: C_16  and  C_18
REMARK    5  A    between atoms: C_18  and  C_21
REMARK                            x       y       z     vdW  Elec       q    Type
REMARK                         _______ _______ _______ _____ _____    ______ ____
ROOT
ATOM      1  C   UNL     1      -0.704   1.579   1.309  0.00  0.00    +0.033 C 
ATOM      2  C   UNL     1      -0.743   0.052   1.397  0.00  0.00    +0.100 C 
ENDROOT
BRANCH   2   3
ATOM      3  C   UNL     1      -2.026  -0.381   2.058  0.00  0.00    -0.025 A 
ATOM      4  C   UNL     1      -2.144  -0.326   3.436  0.00  0.00    +0.007 A 
ATOM      5  C   UNL     1      -3.316  -0.721   4.051  0.00  0.00    +0.028 A 
ATOM      6  C   UNL     1      -4.379  -1.173   3.284  0.00  0.00    +0.067 A 
ATOM      7  C   UNL     1      -4.260  -1.228   1.893  0.00  0.00    +0.067 A 
ATOM      8  C   UNL     1      -3.081  -0.824   1.285  0.00  0.00    +0.033 A 
ATOM      9  N   UNL     1      -5.470  -1.714   1.405  0.00  0.00    -0.306 N 
ATOM     10  H   UNL     1      -5.687  -1.862   0.471  0.00  0.00    +0.170 HD
ATOM     11  C   UNL     1      -6.288  -1.945   2.449  0.00  0.00    +0.325 A 
ATOM     12  O   UNL     1      -7.423  -2.375   2.369  0.00  0.00    -0.247 OA
ATOM     13  N   UNL     1      -5.658  -1.628   3.596  0.00  0.00    -0.306 N 
ATOM     14  H   UNL     1      -6.032  -1.704   4.488  0.00  0.00    +0.170 HD
ENDBRANCH   2   3
BRANCH   2  15
ATOM     15  N   UNL     1       0.397  -0.421   2.187  0.00  0.00    -0.308 N 
ATOM     16  C   UNL     1       1.593  -0.614   1.597  0.00  0.00    +0.224 C 
ATOM     17  O   UNL     1       1.704  -0.485   0.396  0.00  0.00    -0.275 OA
ATOM     18  H   UNL     1       0.291  -0.595   3.136  0.00  0.00    +0.149 HD
BRANCH  16  19
ATOM     19  C   UNL     1       2.792  -0.991   2.428  0.00  0.00    +0.072 C 
ATOM     20  C   UNL     1       4.031  -0.099   2.326  0.00  0.00    +0.022 C 
ATOM     21  C   UNL     1       3.166  -0.065   3.588  0.00  0.00    +0.022 C 
BRANCH  19  22
ATOM     22  C   UNL     1       3.012  -2.469   2.619  0.00  0.00    -0.032 A 
ATOM     23  C   UNL     1       2.885  -3.030   3.875  0.00  0.00    +0.006 A 
ATOM     24  C   UNL     1       3.087  -4.386   4.051  0.00  0.00    +0.020 A 
ATOM     25  C   UNL     1       3.417  -5.182   2.968  0.00  0.00    +0.041 A 
ATOM     26  C   UNL     1       3.545  -4.620   1.710  0.00  0.00    +0.020 A 
ATOM     27  C   UNL     1       3.337  -3.265   1.535  0.00  0.00    +0.006 A 
ATOM     28 CL   UNL     1       3.672  -6.885   3.188  0.00  0.00    -0.084 Cl
ENDBRANCH  19  22
ENDBRANCH  16  19
ENDBRANCH   2  15
TORSDOF 4
