REMARK  Name = ZINC04380029
REMARK  4 active torsions:
REMARK  status: ('A' for Active; 'I' for Inactive)
REMARK    1  A    between atoms: C_4  and  C_7
REMARK    2  A    between atoms: C_9  and  C_14
REMARK    3  A    between atoms: N_16  and  C_17
REMARK    4  A    between atoms: C_22  and  N_23
REMARK                            x       y       z     vdW  Elec       q    Type
REMARK                         _______ _______ _______ _____ _____    ______ ____
ROOT
ATOM      1  C   UNL     1       3.477   3.189   0.078  0.00  0.00    +0.224 C 
ATOM      2  O   UNL     1       3.479   1.976   0.058  0.00  0.00    -0.275 OA
ATOM      3  N   UNL     1       2.311   3.861   0.005  0.00  0.00    -0.283 N 
ATOM      4  H   UNL     1       2.312   4.830  -0.044  0.00  0.00    +0.155 HD
ENDROOT
BRANCH   3   5
ATOM      5  C   UNL     1       1.099   3.162   0.001  0.00  0.00    +0.064 A 
ATOM      6  C   UNL     1       1.007   1.932  -0.637  0.00  0.00    +0.025 A 
ATOM      7  C   UNL     1      -0.190   1.244  -0.639  0.00  0.00    +0.002 A 
ATOM      8  C   UNL     1      -1.299   1.781  -0.011  0.00  0.00    +0.002 A 
ATOM      9  C   UNL     1      -1.210   3.002   0.631  0.00  0.00    +0.034 A 
ATOM     10  C   UNL     1      -0.015   3.696   0.636  0.00  0.00    +0.147 A 
BRANCH  10  11
ATOM     11  N   UNL     1       0.078   5.006   1.318  0.00  0.00    +0.058 N 
ATOM     12  O   UNL     1      -0.872   5.433   1.950  0.00  0.00    -0.126 OA
ATOM     13  O   UNL     1       1.105   5.658   1.248  0.00  0.00    -0.126 OA
ENDBRANCH  10  11
ENDBRANCH   3   5
BRANCH   1  15
ATOM     14  C   UNL     1       6.065   3.124   0.263  0.00  0.00    +0.070 C 
ATOM     15  C   UNL     1       4.776   3.944   0.183  0.00  0.00    +0.122 C 
ATOM     16  C   UNL     1       5.542   3.852   1.504  0.00  0.00    +0.138 C 
ATOM     17 CL   UNL     1       6.440   5.317   2.050  0.00  0.00    -0.099 Cl
ATOM     18 CL   UNL     1       4.820   2.849   2.817  0.00  0.00    -0.099 Cl
BRANCH  14  22
ATOM     19  C   UNL     1       9.541   4.719  -1.640  0.00  0.00    +0.000 A 
ATOM     20  C   UNL     1       8.531   5.566  -1.223  0.00  0.00    +0.000 A 
ATOM     21  C   UNL     1       7.406   5.049  -0.608  0.00  0.00    +0.004 A 
ATOM     22  C   UNL     1       7.292   3.686  -0.408  0.00  0.00    -0.041 A 
ATOM     23  C   UNL     1       8.304   2.840  -0.820  0.00  0.00    +0.004 A 
ATOM     24  C   UNL     1       9.426   3.356  -1.440  0.00  0.00    +0.000 A 
ENDBRANCH  14  22
ENDBRANCH   1  15
TORSDOF 4
