REMARK  Name = ZINC63373506
REMARK  7 active torsions:
REMARK  status: ('A' for Active; 'I' for Inactive)
REMARK    1  A    between atoms: C_1  and  C_2
REMARK    2  A    between atoms: C_2  and  C_3
REMARK    3  A    between atoms: C_6  and  C_9
REMARK    4  A    between atoms: N_15  and  C_30
REMARK    5  A    between atoms: C_18  and  C_29
REMARK    6  A    between atoms: C_34  and  C_36
REMARK    7  A    between atoms: C_36  and  C_38
REMARK                            x       y       z     vdW  Elec       q    Type
REMARK                         _______ _______ _______ _____ _____    ______ ____
ROOT
ATOM      1  C   UNL     1       2.701  -1.907  -4.759  0.00  0.00    +0.065 C 
ATOM      2  C   UNL     1       3.429  -3.237  -4.478  0.00  0.00    +0.123 C 
ATOM      3  N   UNL     1       4.646  -2.943  -3.714  0.00  0.00    -0.268 N 
ATOM      4  C   UNL     1       5.027  -3.451  -2.535  0.00  0.00    +0.317 C 
ATOM      5  O   UNL     1       4.443  -4.352  -1.966  0.00  0.00    -0.252 OA
ATOM      6  N   UNL     1       6.125  -2.852  -2.056  0.00  0.00    -0.192 N 
ATOM      7  C   UNL     1       6.604  -1.929  -2.915  0.00  0.00    +0.253 C 
ATOM      8  O   UNL     1       7.565  -1.208  -2.753  0.00  0.00    -0.272 OA
ATOM      9  C   UNL     1       5.693  -1.979  -4.122  0.00  0.00    +0.137 C 
ATOM     10  C   UNL     1       4.998  -0.626  -4.314  0.00  0.00    +0.139 C 
ATOM     11  C   UNL     1       3.751  -0.898  -5.152  0.00  0.00    -0.027 C 
ATOM     12  C   UNL     1       3.836  -0.106  -6.216  0.00  0.00    -0.000 A 
ATOM     13  C   UNL     1       2.903   0.140  -7.328  0.00  0.00    +0.010 A 
ATOM     14  C   UNL     1       3.321   1.017  -8.278  0.00  0.00    +0.001 A 
ATOM     15  C   UNL     1       4.559   1.667  -8.233  0.00  0.00    +0.002 A 
ATOM     16  C   UNL     1       5.474   1.508  -7.244  0.00  0.00    +0.026 A 
ATOM     17  C   UNL     1       5.144   0.615  -6.183  0.00  0.00    +0.043 A 
ATOM     18  N   UNL     1       5.822   0.295  -5.101  0.00  0.00    -0.375 N 
ATOM     19  C   UNL     1       6.435  -2.435  -5.380  0.00  0.00    +0.044 C 
ATOM     20  H   UNL     1       6.708   0.608  -4.862  0.00  0.00    +0.160 HD
ENDROOT
BRANCH   1  24
ATOM     21  C   UNL     1       0.662  -0.595  -1.242  0.00  0.00    -0.048 A 
ATOM     22  C   UNL     1      -0.046  -0.826  -2.406  0.00  0.00    +0.004 A 
ATOM     23  C   UNL     1       0.613  -1.251  -3.544  0.00  0.00    +0.004 A 
ATOM     24  C   UNL     1       1.982  -1.443  -3.518  0.00  0.00    -0.039 A 
ATOM     25  C   UNL     1       2.691  -1.211  -2.354  0.00  0.00    +0.004 A 
ATOM     26  C   UNL     1       2.032  -0.782  -1.218  0.00  0.00    +0.004 A 
BRANCH  21  28
ATOM     27  C   UNL     1      -0.105   1.397   0.020  0.00  0.00    +0.009 C 
ATOM     28  C   UNL     1      -0.057  -0.132  -0.001  0.00  0.00    +0.032 C 
ENDBRANCH  21  28
ENDBRANCH   1  24
BRANCH   6  29
ATOM     29  C   UNL     1       6.705  -3.148  -0.814  0.00  0.00    +0.046 A 
ATOM     30  C   UNL     1       6.071  -4.027   0.057  0.00  0.00    +0.024 A 
ATOM     31  C   UNL     1       6.637  -4.323   1.283  0.00  0.00    +0.003 A 
ATOM     32  C   UNL     1       7.836  -3.749   1.652  0.00  0.00    +0.011 A 
ATOM     33  C   UNL     1       8.483  -2.864   0.783  0.00  0.00    +0.019 A 
ATOM     34  C   UNL     1       7.912  -2.570  -0.458  0.00  0.00    +0.035 A 
BRANCH  33  35
ATOM     35  C   UNL     1       9.762  -2.249   1.173  0.00  0.00    +0.160 C 
ATOM     36  O   UNL     1      10.320  -1.482   0.418  0.00  0.00    -0.292 OA
ATOM     37  C   UNL     1      10.377  -2.573   2.510  0.00  0.00    +0.091 C 
ENDBRANCH  33  35
ENDBRANCH   6  29
TORSDOF 4
