REMARK  Name = ZINC13501243
REMARK  8 active torsions:
REMARK  status: ('A' for Active; 'I' for Inactive)
REMARK    1  A    between atoms: C_1  and  C_2
REMARK    2  A    between atoms: C_12  and  C_14
REMARK    3  A    between atoms: C_14  and  N_15
REMARK    4  A    between atoms: N_15  and  C_16
REMARK    5  A    between atoms: N_15  and  C_23
REMARK    6  A    between atoms: C_16  and  C_17
REMARK    7  A    between atoms: C_23  and  C_29
REMARK    8  A    between atoms: N_33  and  C_34
REMARK                            x       y       z     vdW  Elec       q    Type
REMARK                         _______ _______ _______ _____ _____    ______ ____
ROOT
ATOM      1  N   UNL     1       1.629  -3.226   5.350  0.00  0.00    -0.282 NA
ENDROOT
BRANCH   1   2
ATOM      2  C   UNL     1       1.635  -3.477   6.797  0.00  0.00    +0.084 C 
ATOM      3  C   UNL     1       1.092  -2.248   7.530  0.00  0.00    +0.030 C 
ATOM      4  C   UNL     1       1.974  -1.037   7.219  0.00  0.00    +0.002 C 
ATOM      5  C   UNL     1       3.405  -1.317   7.682  0.00  0.00    +0.000 C 
ATOM      6  C   UNL     1       3.948  -2.545   6.949  0.00  0.00    +0.002 C 
ATOM      7  C   UNL     1       3.066  -3.756   7.261  0.00  0.00    +0.030 C 
BRANCH   2   8
ATOM      8  C   UNL     1       0.766  -4.669   7.104  0.00  0.00    +0.172 A 
ATOM      9  N   UNL     1       0.037  -5.347   6.251  0.00  0.00    -0.111 NA
ATOM     10  N   UNL     1      -0.557  -6.290   6.896  0.00  0.00    -0.023 NA
ATOM     11  N   UNL     1      -0.227  -6.232   8.139  0.00  0.00    -0.044 NA
ATOM     12  N   UNL     1       0.592  -5.249   8.306  0.00  0.00    -0.224 N 
BRANCH  12  13
ATOM     13  C   UNL     1       1.213  -4.839   9.568  0.00  0.00    +0.111 C 
ATOM     14  C   UNL     1       2.006  -6.016  10.174  0.00  0.00    +0.027 C 
ATOM     15  C   UNL     1       1.777  -5.881  11.700  0.00  0.00    +0.002 C 
ATOM     16  C   UNL     1       0.298  -5.428  11.786  0.00  0.00    +0.002 C 
ATOM     17  C   UNL     1       0.128  -4.465  10.593  0.00  0.00    +0.027 C 
ENDBRANCH  12  13
ENDBRANCH   2   8
ENDBRANCH   1   2
BRANCH   1  18
ATOM     18  C   UNL     1       0.258  -3.231   4.820  0.00  0.00    +0.126 C 
BRANCH  18  30
ATOM     19  C   UNL     1      -0.051   1.828   0.635  0.00  0.00    +0.046 C 
ATOM     20  C   UNL     1      -0.043   0.340   0.399  0.00  0.00    -0.026 A 
ATOM     21  C   UNL     1      -0.103  -0.157  -0.886  0.00  0.00    +0.005 A 
ATOM     22  C   UNL     1      -0.097  -1.526  -1.117  0.00  0.00    +0.001 A 
ATOM     23  C   UNL     1      -0.030  -2.407  -0.075  0.00  0.00    +0.010 A 
ATOM     24  C   UNL     1       0.032  -1.925   1.237  0.00  0.00    -0.001 A 
ATOM     25  C   UNL     1       0.031  -0.538   1.475  0.00  0.00    +0.052 A 
ATOM     26  N   UNL     1       0.098  -0.069   2.770  0.00  0.00    -0.322 N 
ATOM     27  H   UNL     1       0.093   0.888   2.932  0.00  0.00    +0.169 HD
ATOM     28  C   UNL     1       0.169  -0.917   3.810  0.00  0.00    +0.254 A 
ATOM     29  O   UNL     1       0.225  -0.467   4.941  0.00  0.00    -0.268 OA
ATOM     30  C   UNL     1       0.178  -2.316   3.625  0.00  0.00    +0.032 A 
ATOM     31  C   UNL     1       0.104  -2.841   2.377  0.00  0.00    +0.020 A 
ENDBRANCH  18  30
ENDBRANCH   1  18
BRANCH   1  32
ATOM     32  C   UNL     1       2.470  -4.201   4.643  0.00  0.00    +0.120 C 
BRANCH  32  33
ATOM     33  C   UNL     1       1.797  -5.549   4.658  0.00  0.00    -0.033 A 
ATOM     34  C   UNL     1       1.977  -6.399   5.733  0.00  0.00    +0.005 A 
ATOM     35  C   UNL     1       1.360  -7.636   5.747  0.00  0.00    +0.000 A 
ATOM     36  C   UNL     1       0.562  -8.023   4.686  0.00  0.00    +0.000 A 
ATOM     37  C   UNL     1       0.381  -7.172   3.612  0.00  0.00    +0.000 A 
ATOM     38  C   UNL     1       0.995  -5.933   3.600  0.00  0.00    +0.005 A 
ENDBRANCH  32  33
ENDBRANCH   1  32
TORSDOF 7
