REMARK  Name = ZINC14476158
REMARK  9 active torsions:
REMARK  status: ('A' for Active; 'I' for Inactive)
REMARK    1  A    between atoms: C_1  and  C_2
REMARK    2  A    between atoms: C_2  and  C_3
REMARK    3  A    between atoms: C_3  and  C_5
REMARK    4  A    between atoms: C_3  and  N_6
REMARK    5  A    between atoms: N_6  and  S_7
REMARK    6  A    between atoms: S_7  and  C_10
REMARK    7  A    between atoms: C_23  and  C_26
REMARK    8  A    between atoms: C_28  and  N_33
REMARK    9  A    between atoms: C_31  and  O_32
REMARK                            x       y       z     vdW  Elec       q    Type
REMARK                         _______ _______ _______ _____ _____    ______ ____
ROOT
ATOM      1  C   UNL     1      -4.575  -1.250   0.861  0.00  0.00    +0.106 A 
ATOM      2  C   UNL     1      -4.859  -1.516  -0.467  0.00  0.00    +0.030 A 
ATOM      3  C   UNL     1      -5.555  -2.659  -0.804  0.00  0.00    +0.025 A 
ATOM      4  C   UNL     1      -5.968  -3.544   0.189  0.00  0.00    +0.031 A 
ATOM      5  C   UNL     1      -5.674  -3.284   1.515  0.00  0.00    -0.018 A 
ATOM      6  C   UNL     1      -4.975  -2.131   1.845  0.00  0.00    +0.034 A 
ATOM      7  C   UNL     1      -6.064  -4.222   2.622  0.00  0.00    +0.049 C 
ATOM      8  C   UNL     1      -4.824  -4.495   3.459  0.00  0.00    -0.023 C 
ATOM      9  C   UNL     1      -4.315  -5.662   3.163  0.00  0.00    -0.030 C 
ATOM     10  C   UNL     1      -5.137  -6.355   2.096  0.00  0.00    +0.033 C 
ATOM     11  C   UNL     1      -6.500  -5.595   2.119  0.00  0.00    +0.029 C 
ATOM     12  C   UNL     1      -7.208  -5.618   0.798  0.00  0.00    +0.108 C 
ATOM     13  N   UNL     1      -6.680  -4.681  -0.175  0.00  0.00    -0.336 N 
ATOM     14  H   UNL     1      -6.851  -4.841  -1.116  0.00  0.00    +0.147 HD
ENDROOT
BRANCH  12  15
ATOM     15  C   UNL     1      -7.079  -7.001   0.212  0.00  0.00    +0.017 A 
ATOM     16  C   UNL     1      -6.063  -7.281  -0.682  0.00  0.00    +0.041 A 
ATOM     17  C   UNL     1      -5.945  -8.549  -1.220  0.00  0.00    +0.127 A 
ATOM     18  C   UNL     1      -6.842  -9.540  -0.865  0.00  0.00    +0.036 A 
ATOM     19  C   UNL     1      -7.859  -9.264   0.027  0.00  0.00    +0.048 A 
ATOM     20  C   UNL     1      -7.977  -7.994   0.573  0.00  0.00    +0.122 A 
BRANCH  17  21
ATOM     21  N   UNL     1      -4.856  -8.847  -2.177  0.00  0.00    +0.056 N 
ATOM     22  O   UNL     1      -4.071  -7.981  -2.487  0.00  0.00    -0.126 OA
ATOM     23  O   UNL     1      -4.751  -9.955  -2.648  0.00  0.00    -0.126 OA
ENDBRANCH  17  21
BRANCH  20  24
ATOM     24  O   UNL     1      -8.974  -7.722   1.456  0.00  0.00    -0.506 OA
ATOM     25  H   UNL     1      -9.791  -7.410   1.042  0.00  0.00    +0.292 HD
ENDBRANCH  20  24
ENDBRANCH  12  15
BRANCH   1  26
ATOM     26  S   UNL     1      -3.694   0.213   1.295  0.00  0.00    +0.059 S 
ATOM     27  O   UNL     1      -4.026   0.500   2.647  0.00  0.00    -0.153 OA
ATOM     28  O   UNL     1      -3.910   1.144   0.244  0.00  0.00    -0.153 OA
BRANCH  26  29
ATOM     29  N   UNL     1      -2.082  -0.162   1.273  0.00  0.00    -0.187 NA
ATOM     30  H   UNL     1      -1.566  -0.135   2.094  0.00  0.00    +0.148 HD
BRANCH  29  31
ATOM     31  C   UNL     1      -1.433  -0.534   0.013  0.00  0.00    +0.073 C 
ATOM     32  C   UNL     1      -1.416  -2.058  -0.121  0.00  0.00    +0.025 C 
BRANCH  31  34
ATOM     33  C   UNL     1      -0.019   1.526   0.010  0.00  0.00    +0.005 C 
ATOM     34  C   UNL     1       0.002  -0.004   0.002  0.00  0.00    +0.017 C 
ENDBRANCH  31  34
ENDBRANCH  29  31
ENDBRANCH  26  29
ENDBRANCH   1  26
TORSDOF 7
