REMARK  Name = ZINC58994114
REMARK  8 active torsions:
REMARK  status: ('A' for Active; 'I' for Inactive)
REMARK    1  A    between atoms: C_3  and  C_9
REMARK    2  A    between atoms: C_4  and  O_8
REMARK    3  A    between atoms: C_6  and  O_7
REMARK    4  A    between atoms: N_10  and  N_11
REMARK    5  A    between atoms: C_14  and  S_17
REMARK    6  A    between atoms: S_17  and  C_18
REMARK    7  A    between atoms: C_18  and  C_19
REMARK    8  A    between atoms: C_19  and  C_21
REMARK                            x       y       z     vdW  Elec       q    Type
REMARK                         _______ _______ _______ _____ _____    ______ ____
ROOT
ATOM      1  N   UNL     1       5.991   2.189   0.708  0.00  0.00    -0.205 N 
ATOM      2  C   UNL     1       7.197   1.524   0.592  0.00  0.00    +0.232 A 
ATOM      3  N   UNL     1       7.353   0.235   0.373  0.00  0.00    -0.186 NA
ATOM      4  C   UNL     1       8.657  -0.058   0.321  0.00  0.00    +0.210 A 
ATOM      5  N   UNL     1       9.349   1.041   0.506  0.00  0.00    -0.144 NA
ATOM      6  N   UNL     1       8.424   2.083   0.679  0.00  0.00    -0.245 N 
ATOM      7  H   UNL     1       5.978   3.146   0.865  0.00  0.00    +0.177 HD
ATOM      8  H   UNL     1       8.626   3.019   0.832  0.00  0.00    +0.192 HD
ENDROOT
BRANCH   1  10
ATOM      9  C   UNL     1       3.654   2.106   0.705  0.00  0.00    +0.142 C 
ATOM     10  N   UNL     1       4.787   1.481   0.596  0.00  0.00    -0.187 NA
BRANCH   9  13
ATOM     11  C   UNL     1      -0.014   1.330   0.593  0.00  0.00    +0.046 A 
ATOM     12  C   UNL     1       1.168   2.030   0.704  0.00  0.00    +0.016 A 
ATOM     13  C   UNL     1       2.388   1.361   0.588  0.00  0.00    +0.036 A 
ATOM     14  C   UNL     1       2.404  -0.022   0.359  0.00  0.00    +0.129 A 
ATOM     15  C   UNL     1       1.211  -0.714   0.250  0.00  0.00    +0.091 A 
ATOM     16  C   UNL     1       0.004  -0.040   0.367  0.00  0.00    +0.120 A 
BRANCH  16  17
ATOM     17  O   UNL     1      -1.166  -0.724   0.259  0.00  0.00    -0.507 OA
ATOM     18  H   UNL     1      -1.508  -0.777  -0.644  0.00  0.00    +0.292 HD
ENDBRANCH  16  17
BRANCH  14  19
ATOM     19  O   UNL     1       3.586  -0.681   0.245  0.00  0.00    -0.506 OA
ATOM     20  H   UNL     1       3.933  -1.015   1.083  0.00  0.00    +0.292 HD
ENDBRANCH  14  19
ENDBRANCH   9  13
ENDBRANCH   1  10
BRANCH   4  21
ATOM     21  S   UNL     1       9.335  -1.662   0.049  0.00  0.00    -0.077 S 
BRANCH  21  22
ATOM     22  C   UNL     1      11.129  -1.392   0.090  0.00  0.00    +0.152 C 
BRANCH  22  23
ATOM     23  C   UNL     1      11.839  -2.702  -0.133  0.00  0.00    +0.147 C 
ATOM     24  O   UNL     1      11.201  -3.714  -0.302  0.00  0.00    -0.296 OA
BRANCH  23  25
ATOM     25  C   UNL     1      13.345  -2.751  -0.144  0.00  0.00    +0.062 C 
ATOM     26  C   UNL     1      13.865  -2.146  -1.449  0.00  0.00    +0.000 C 
ATOM     27  C   UNL     1      15.394  -2.195  -1.461  0.00  0.00    +0.007 C 
ATOM     28  C   UNL     1      15.858  -3.648  -1.352  0.00  0.00    -0.010 C 
ATOM     29  C   UNL     1      15.314  -4.448  -2.537  0.00  0.00    +0.007 C 
ATOM     30  C   UNL     1      13.784  -4.399  -2.526  0.00  0.00    -0.010 C 
ATOM     31  C   UNL     1      13.320  -2.945  -2.635  0.00  0.00    +0.007 C 
ATOM     32  C   UNL     1      13.264  -5.004  -1.220  0.00  0.00    +0.007 C 
ATOM     33  C   UNL     1      13.809  -4.205  -0.035  0.00  0.00    +0.000 C 
ATOM     34  C   UNL     1      15.338  -4.254  -0.046  0.00  0.00    +0.007 C 
ENDBRANCH  23  25
ENDBRANCH  22  23
ENDBRANCH  21  22
ENDBRANCH   4  21
TORSDOF 8
