REMARK  Name = ZINC12484049
REMARK  6 active torsions:
REMARK  status: ('A' for Active; 'I' for Inactive)
REMARK    1  A    between atoms: C_4  and  N_7
REMARK    2  A    between atoms: N_8  and  C_9
REMARK    3  A    between atoms: C_12  and  N_15
REMARK    4  A    between atoms: C_16  and  C_18
REMARK    5  A    between atoms: C_18  and  O_19
REMARK    6  A    between atoms: O_19  and  C_20
REMARK                            x       y       z     vdW  Elec       q    Type
REMARK                         _______ _______ _______ _____ _____    ______ ____
ROOT
ATOM      1  C   UNL     1      -2.134   2.884   5.799  0.00  0.00    +0.086 A 
ATOM      2  C   UNL     1      -0.984   2.103   5.958  0.00  0.00    +0.031 A 
ATOM      3  C   UNL     1      -0.361   1.564   4.854  0.00  0.00    +0.025 A 
ATOM      4  C   UNL     1      -0.875   1.795   3.582  0.00  0.00    +0.034 A 
ATOM      5  C   UNL     1      -2.015   2.575   3.419  0.00  0.00    +0.025 A 
ATOM      6  C   UNL     1      -2.647   3.113   4.518  0.00  0.00    +0.031 A 
ENDROOT
BRANCH   4   7
ATOM      7  N   UNL     1      -0.242   1.246   2.466  0.00  0.00    -0.283 N 
ATOM      8  C   UNL     1      -0.970   0.861   1.399  0.00  0.00    +0.255 C 
ATOM      9  O   UNL     1      -2.181   0.901   1.445  0.00  0.00    -0.272 OA
ATOM     10  H   UNL     1       0.723   1.142   2.458  0.00  0.00    +0.155 HD
BRANCH   8  11
ATOM     11  C   UNL     1      -0.279   0.380   0.149  0.00  0.00    +0.324 C 
BRANCH  11  12
ATOM     12  O   UNL     1      -1.258   0.032  -0.832  0.00  0.00    -0.482 OA
BRANCH  12  13
ATOM     13  C   UNL     1      -0.798  -0.425  -2.027  0.00  0.00    +0.135 A 
ATOM     14  C   UNL     1       0.566  -0.534  -2.251  0.00  0.00    +0.048 A 
ATOM     15  C   UNL     1       1.032  -0.998  -3.466  0.00  0.00    +0.019 A 
ATOM     16  C   UNL     1       0.137  -1.353  -4.460  0.00  0.00    +0.019 A 
ATOM     17  C   UNL     1      -1.224  -1.244  -4.241  0.00  0.00    +0.034 A 
ATOM     18  C   UNL     1      -1.694  -0.786  -3.024  0.00  0.00    +0.061 A 
ATOM     19 BR   UNL     1      -3.555  -0.646  -2.720  0.00  0.00    -0.046 Br
ATOM     20 BR   UNL     1       0.777  -1.988  -6.123  0.00  0.00    -0.050 Br
ENDBRANCH  12  13
ENDBRANCH  11  12
ENDBRANCH   8  11
ENDBRANCH   4   7
BRANCH   1  22
ATOM     21  N   UNL     1      -3.814   4.139   6.741  0.00  0.00    -0.149 NA
ATOM     22  N   UNL     1      -2.753   3.419   6.890  0.00  0.00    -0.149 NA
BRANCH  21  26
ATOM     23  C   UNL     1      -5.694   5.761  10.050  0.00  0.00    +0.000 A 
ATOM     24  C   UNL     1      -6.205   5.993   8.785  0.00  0.00    +0.002 A 
ATOM     25  C   UNL     1      -5.584   5.455   7.677  0.00  0.00    +0.029 A 
ATOM     26  C   UNL     1      -4.435   4.675   7.835  0.00  0.00    +0.086 A 
ATOM     27  C   UNL     1      -3.927   4.442   9.116  0.00  0.00    +0.029 A 
ATOM     28  C   UNL     1      -4.557   4.990  10.213  0.00  0.00    +0.002 A 
ENDBRANCH  21  26
ENDBRANCH   1  22
TORSDOF 6
