REMARK  Name = ZINC43741186
REMARK  9 active torsions:
REMARK  status: ('A' for Active; 'I' for Inactive)
REMARK    1  A    between atoms: C_1  and  C_2
REMARK    2  A    between atoms: C_2  and  C_4
REMARK    3  A    between atoms: C_2  and  N_12
REMARK    4  A    between atoms: C_4  and  C_5
REMARK    5  A    between atoms: C_5  and  C_6
REMARK    6  A    between atoms: C_32  and  C_34
REMARK    7  A    between atoms: C_37  and  C_40
REMARK    8  A    between atoms: C_40  and  C_41
REMARK    9  A    between atoms: C_40  and  C_42
REMARK                            x       y       z     vdW  Elec       q    Type
REMARK                         _______ _______ _______ _____ _____    ______ ____
ROOT
ATOM      1  N   UNL     1       0.182  -0.356   1.628  0.00  0.00    -0.288 N 
ATOM      2  C   UNL     1      -0.118  -0.049   3.016  0.00  0.00    +0.204 C 
ATOM      3  C   UNL     1       0.831  -0.716   3.957  0.00  0.00    +0.234 C 
ATOM      4  O   UNL     1       0.660  -0.548   5.146  0.00  0.00    -0.274 OA
ATOM      5  N   UNL     1       1.854  -1.485   3.578  0.00  0.00    -0.276 N 
ATOM      6  C   UNL     1       2.216  -1.698   2.178  0.00  0.00    +0.167 C 
ATOM      7  C   UNL     1       1.218  -1.097   1.241  0.00  0.00    +0.237 C 
ATOM      8  O   UNL     1       1.364  -1.294   0.053  0.00  0.00    -0.274 OA
ATOM      9  C   UNL     1       3.604  -1.095   1.918  0.00  0.00    +0.069 C 
ATOM     10  C   UNL     1       4.528  -1.504   3.036  0.00  0.00    -0.015 A 
ATOM     11  C   UNL     1       5.976  -1.483   3.058  0.00  0.00    +0.003 A 
ATOM     12  C   UNL     1       6.933  -1.102   2.112  0.00  0.00    +0.010 A 
ATOM     13  C   UNL     1       8.251  -1.217   2.481  0.00  0.00    +0.001 A 
ATOM     14  C   UNL     1       8.627  -1.688   3.728  0.00  0.00    +0.002 A 
ATOM     15  C   UNL     1       7.702  -2.070   4.684  0.00  0.00    +0.026 A 
ATOM     16  C   UNL     1       6.356  -1.963   4.338  0.00  0.00    +0.047 A 
ATOM     17  N   UNL     1       5.209  -2.246   5.022  0.00  0.00    -0.356 N 
ATOM     18  H   UNL     1       5.171  -2.590   5.928  0.00  0.00    +0.166 HD
ATOM     19  C   UNL     1       4.121  -1.972   4.236  0.00  0.00    +0.046 A 
ATOM     20  C   UNL     1       2.669  -2.156   4.612  0.00  0.00    +0.154 C 
ENDROOT
BRANCH  20  21
ATOM     21  C   UNL     1       2.333  -3.625   4.655  0.00  0.00    -0.021 A 
ATOM     22  C   UNL     1       2.616  -4.430   3.567  0.00  0.00    +0.006 A 
ATOM     23  C   UNL     1       2.308  -5.777   3.606  0.00  0.00    +0.004 A 
ATOM     24  C   UNL     1       1.718  -6.319   4.733  0.00  0.00    -0.045 A 
ATOM     25  C   UNL     1       1.436  -5.514   5.821  0.00  0.00    +0.004 A 
ATOM     26  C   UNL     1       1.748  -4.168   5.784  0.00  0.00    +0.006 A 
BRANCH  24  27
ATOM     27  C   UNL     1       1.382  -7.788   4.775  0.00  0.00    +0.013 C 
ATOM     28  C   UNL     1       2.135  -8.450   5.930  0.00  0.00    +0.012 C 
ATOM     29  C   UNL     1      -0.124  -7.960   4.983  0.00  0.00    +0.012 C 
ENDBRANCH  24  27
ENDBRANCH  20  21
BRANCH   1  31
ATOM     30  C   UNL     1      -0.717   1.704   0.664  0.00  0.00    +0.028 C 
ATOM     31  C   UNL     1      -0.710   0.176   0.594  0.00  0.00    +0.074 C 
BRANCH  31  32
ATOM     32  C   UNL     1      -2.128  -0.351   0.824  0.00  0.00    +0.027 C 
BRANCH  32  33
ATOM     33  C   UNL     1      -2.145  -1.869   0.632  0.00  0.00    +0.037 C 
BRANCH  33  34
ATOM     34  C   UNL     1      -3.541  -2.389   0.858  0.00  0.00    -0.047 A 
ATOM     35  C   UNL     1      -3.939  -2.772   2.125  0.00  0.00    +0.003 A 
ATOM     36  C   UNL     1      -5.221  -3.248   2.333  0.00  0.00    +0.000 A 
ATOM     37  C   UNL     1      -6.103  -3.341   1.273  0.00  0.00    +0.000 A 
ATOM     38  C   UNL     1      -5.705  -2.957   0.006  0.00  0.00    +0.000 A 
ATOM     39  C   UNL     1      -4.426  -2.477  -0.201  0.00  0.00    +0.003 A 
ENDBRANCH  33  34
ENDBRANCH  32  33
ENDBRANCH  31  32
ENDBRANCH   1  31
TORSDOF 6
