REMARK  Name = ZINC40325199
REMARK  9 active torsions:
REMARK  status: ('A' for Active; 'I' for Inactive)
REMARK    1  A    between atoms: C_1  and  C_2
REMARK    2  A    between atoms: C_2  and  S_3
REMARK    3  A    between atoms: S_3  and  C_6
REMARK    4  A    between atoms: C_9  and  C_12
REMARK    5  A    between atoms: C_14  and  C_17
REMARK    6  A    between atoms: N_19  and  C_20
REMARK    7  A    between atoms: C_20  and  C_21
REMARK    8  A    between atoms: C_21  and  C_23
REMARK    9  A    between atoms: C_21  and  N_28
REMARK                            x       y       z     vdW  Elec       q    Type
REMARK                         _______ _______ _______ _____ _____    ______ ____
ROOT
ATOM      1  C   UNL     1      -0.733  -9.945   1.461  0.00  0.00    +0.266 C 
ATOM      2  O   UNL     1      -0.866  -9.823   2.662  0.00  0.00    -0.268 OA
ATOM      3  N   UNL     1      -0.616 -11.173   0.917  0.00  0.00    -0.311 N 
ATOM      4  H   UNL     1      -0.510 -11.271  -0.042  0.00  0.00    +0.149 HD
ENDROOT
BRANCH   1   7
ATOM      5  C   UNL     1      -0.729  -6.603  -0.071  0.00  0.00    +0.168 A 
ATOM      6  C   UNL     1      -0.807  -7.404   1.024  0.00  0.00    +0.086 A 
ATOM      7  C   UNL     1      -0.698  -8.743   0.592  0.00  0.00    +0.168 A 
ATOM      8  N   UNL     1      -0.559  -8.738  -0.712  0.00  0.00    -0.073 NA
ATOM      9  O   UNL     1      -0.582  -7.392  -1.152  0.00  0.00    -0.354 OA
BRANCH   5  13
ATOM     10  C   UNL     1      -0.934  -2.360  -0.086  0.00  0.00    +0.088 A 
ATOM     11  C   UNL     1      -0.779  -3.046  -1.277  0.00  0.00    +0.027 A 
ATOM     12  C   UNL     1      -0.712  -4.424  -1.280  0.00  0.00    +0.013 A 
ATOM     13  C   UNL     1      -0.800  -5.126  -0.076  0.00  0.00    +0.020 A 
ATOM     14  C   UNL     1      -0.956  -4.428   1.122  0.00  0.00    +0.013 A 
ATOM     15  C   UNL     1      -1.017  -3.050   1.111  0.00  0.00    +0.027 A 
BRANCH  10  16
ATOM     16  S   UNL     1      -1.019  -0.600  -0.092  0.00  0.00    -0.003 S 
ATOM     17  O   UNL     1      -1.755  -0.269   1.077  0.00  0.00    -0.169 OA
ATOM     18  O   UNL     1      -1.516  -0.266  -1.381  0.00  0.00    -0.169 OA
BRANCH  16  20
ATOM     19  C   UNL     1       0.750   1.479   0.083  0.00  0.00    +0.028 C 
ATOM     20  C   UNL     1       0.702  -0.050   0.076  0.00  0.00    +0.168 C 
ENDBRANCH  16  20
ENDBRANCH  10  16
ENDBRANCH   5  13
ENDBRANCH   1   7
BRANCH   3  21
ATOM     21  C   UNL     1      -0.651 -12.360   1.774  0.00  0.00    +0.094 C 
BRANCH  21  22
ATOM     22  C   UNL     1      -0.614 -13.619   0.905  0.00  0.00    -0.013 C 
BRANCH  22  23
ATOM     23  N   UNL     1      -0.745 -14.807   1.758  0.00  0.00    +0.386 N 
ATOM     24  C   UNL     1      -0.625 -16.015   0.933  0.00  0.00    -0.078 C 
ATOM     25  C   UNL     1      -0.679 -17.256   1.828  0.00  0.00    -0.019 C 
ATOM     26  C   UNL     1      -2.014 -17.279   2.579  0.00  0.00    -0.004 C 
ATOM     27  C   UNL     1      -2.161 -15.980   3.378  0.00  0.00    -0.019 C 
ATOM     28  C   UNL     1      -2.052 -14.787   2.426  0.00  0.00    -0.078 C 
ATOM     29  H   UNL     1      -0.013 -14.803   2.453  0.00  0.00    -0.081 HD
ENDBRANCH  22  23
BRANCH  22  30
ATOM     30  C   UNL     1       0.695 -13.677   0.160  0.00  0.00    -0.022 A 
ATOM     31  C   UNL     1       0.962 -13.331  -1.123  0.00  0.00    +0.009 A 
ATOM     32  C   UNL     1       2.252 -13.469  -1.599  0.00  0.00    +0.008 A 
ATOM     33  C   UNL     1       3.212 -13.946  -0.769  0.00  0.00    +0.045 A 
ATOM     34  S   UNL     1       2.296 -14.210   0.741  0.00  0.00    -0.103 S 
ENDBRANCH  22  30
ENDBRANCH  21  22
ENDBRANCH   3  21
TORSDOF 8
