REMARK  Name = ZINC20754939
REMARK  6 active torsions:
REMARK  status: ('A' for Active; 'I' for Inactive)
REMARK    1  A    between atoms: C_1  and  O_2
REMARK    2  A    between atoms: O_2  and  C_3
REMARK    3  A    between atoms: C_7  and  C_13
REMARK    4  A    between atoms: C_8  and  O_9
REMARK    5  A    between atoms: O_9  and  C_10
REMARK    6  A    between atoms: C_15  and  C_26
REMARK                            x       y       z     vdW  Elec       q    Type
REMARK                         _______ _______ _______ _____ _____    ______ ____
ROOT
ATOM      1  C   UNL     1      -2.549  -4.175   0.017  0.00  0.00    +0.130 C 
ATOM      2  C   UNL     1      -3.313  -4.661   1.253  0.00  0.00    +0.086 C 
ATOM      3  C   UNL     1      -3.751  -6.089   1.090  0.00  0.00    +0.054 C 
ATOM      4  N   UNL     1      -4.104  -6.589  -0.064  0.00  0.00    -0.218 NA
ATOM      5  C   UNL     1      -4.006  -5.811  -1.176  0.00  0.00    +0.210 A 
ATOM      6  N   UNL     1      -3.268  -4.640  -1.174  0.00  0.00    -0.302 N 
ATOM      7  C   UNL     1      -3.368  -4.094  -2.416  0.00  0.00    +0.069 A 
ATOM      8  C   UNL     1      -2.859  -2.933  -2.986  0.00  0.00    +0.028 A 
ATOM      9  C   UNL     1      -3.175  -2.692  -4.314  0.00  0.00    +0.002 A 
ATOM     10  C   UNL     1      -3.960  -3.562  -5.051  0.00  0.00    +0.002 A 
ATOM     11  C   UNL     1      -4.475  -4.715  -4.515  0.00  0.00    +0.028 A 
ATOM     12  C   UNL     1      -4.175  -4.985  -3.173  0.00  0.00    +0.066 A 
ATOM     13  N   UNL     1      -4.517  -6.005  -2.367  0.00  0.00    -0.324 N 
ATOM     14  H   UNL     1      -5.058  -6.767  -2.627  0.00  0.00    +0.169 HD
ENDROOT
BRANCH   3  15
ATOM     15  C   UNL     1      -3.784  -6.957   2.275  0.00  0.00    -0.003 A 
ATOM     16  C   UNL     1      -3.417  -6.452   3.528  0.00  0.00    +0.012 A 
ATOM     17  C   UNL     1      -3.450  -7.271   4.635  0.00  0.00    +0.039 A 
ATOM     18  C   UNL     1      -3.845  -8.595   4.510  0.00  0.00    +0.123 A 
ATOM     19  C   UNL     1      -4.209  -9.103   3.272  0.00  0.00    +0.039 A 
ATOM     20  C   UNL     1      -4.187  -8.293   2.158  0.00  0.00    +0.012 A 
ATOM     21  F   UNL     1      -3.874  -9.393   5.599  0.00  0.00    -0.205 F 
ENDBRANCH   3  15
BRANCH   1  26
ATOM     22  C   UNL     1      -1.201  -0.638   0.010  0.00  0.00    +0.162 A 
ATOM     23  C   UNL     1      -2.374   0.099   0.019  0.00  0.00    +0.049 A 
ATOM     24  C   UNL     1      -3.596  -0.546   0.027  0.00  0.00    +0.004 A 
ATOM     25  C   UNL     1      -3.652  -1.928   0.026  0.00  0.00    +0.009 A 
ATOM     26  C   UNL     1      -2.485  -2.669   0.017  0.00  0.00    +0.021 A 
ATOM     27  C   UNL     1      -1.257  -2.028   0.003  0.00  0.00    +0.173 A 
BRANCH  22  29
ATOM     28  C   UNL     1      -0.017   1.425   0.010  0.00  0.00    +0.277 C 
ATOM     29  O   UNL     1       0.002  -0.004   0.002  0.00  0.00    -0.491 OA
ENDBRANCH  22  29
BRANCH  27  30
ATOM     30  O   UNL     1      -0.108  -2.756  -0.012  0.00  0.00    -0.430 OA
BRANCH  30  31
ATOM     31  C   UNL     1       0.452  -3.110   1.254  0.00  0.00    +0.541 C 
ATOM     32  F   UNL     1       0.752  -1.948   1.973  0.00  0.00    -0.166 F 
ATOM     33  F   UNL     1      -0.470  -3.878   1.974  0.00  0.00    -0.166 F 
ENDBRANCH  30  31
ENDBRANCH  27  30
ENDBRANCH   1  26
TORSDOF 5
