REMARK  Name = ZINC09219721
REMARK  9 active torsions:
REMARK  status: ('A' for Active; 'I' for Inactive)
REMARK    1  A    between atoms: C_1  and  C_2
REMARK    2  A    between atoms: C_2  and  C_4
REMARK    3  A    between atoms: C_2  and  O_16
REMARK    4  A    between atoms: N_6  and  C_7
REMARK    5  A    between atoms: N_6  and  C_8
REMARK    6  A    between atoms: C_8  and  C_14
REMARK    7  A    between atoms: O_16  and  C_17
REMARK    8  A    between atoms: C_17  and  C_19
REMARK    9  A    between atoms: C_21  and  C_25
REMARK                            x       y       z     vdW  Elec       q    Type
REMARK                         _______ _______ _______ _____ _____    ______ ____
ROOT
ATOM      1  O   UNL     1      -3.032   3.872   0.049  0.00  0.00    -0.448 OA
ENDROOT
BRANCH   1   3
ATOM      2  C   UNL     1      -4.222   5.448  -1.375  0.00  0.00    +0.062 C 
ATOM      3  C   UNL     1      -3.903   5.033   0.063  0.00  0.00    +0.259 C 
BRANCH   3   4
ATOM      4  C   UNL     1      -5.182   4.694   0.783  0.00  0.00    +0.257 C 
ATOM      5  O   UNL     1      -5.344   3.582   1.240  0.00  0.00    -0.272 OA
ATOM      6  N   UNL     1      -6.146   5.625   0.920  0.00  0.00    -0.283 N 
ATOM      7  C   UNL     1      -5.951   6.968   0.368  0.00  0.00    +0.133 C 
BRANCH   6   8
ATOM      8  C   UNL     1      -7.390   5.295   1.620  0.00  0.00    +0.124 C 
ATOM      9  C   UNL     1      -8.090   4.141   0.900  0.00  0.00    +0.041 C 
ATOM     10  C   UNL     1      -9.389   3.796   1.631  0.00  0.00    +0.003 C 
ATOM     11  C   UNL     1     -10.306   5.021   1.646  0.00  0.00    +0.000 C 
ATOM     12  C   UNL     1      -9.606   6.175   2.366  0.00  0.00    +0.003 C 
ATOM     13  C   UNL     1      -8.307   6.519   1.635  0.00  0.00    +0.041 C 
BRANCH   8  14
ATOM     14  C   UNL     1      -7.083   4.896   3.003  0.00  0.00    +0.089 C 
ATOM     15  N   UNL     1      -6.846   4.588   4.071  0.00  0.00    -0.194 NA
ENDBRANCH   8  14
ENDBRANCH   6   8
ENDBRANCH   3   4
ENDBRANCH   1   3
BRANCH   1  16
ATOM     16  C   UNL     1      -1.704   4.102   0.038  0.00  0.00    +0.360 C 
ATOM     17  O   UNL     1      -1.286   5.243   0.040  0.00  0.00    -0.243 OA
BRANCH  16  18
ATOM     18  C   UNL     1      -0.758   2.969   0.024  0.00  0.00    +0.170 A 
ATOM     19  C   UNL     1       0.651   3.056   0.011  0.00  0.00    +0.064 A 
ATOM     20  C   UNL     1       1.095   1.763   0.001  0.00  0.00    +0.067 A 
ATOM     21  N   UNL     1      -0.011   0.966   0.007  0.00  0.00    -0.276 N 
ATOM     22  H   UNL     1       0.003  -0.034   0.006  0.00  0.00    +0.189 HD
ATOM     23  N   UNL     1      -1.073   1.688   0.016  0.00  0.00    -0.167 NA
BRANCH  20  24
ATOM     24  C   UNL     1       2.506   1.315  -0.013  0.00  0.00    -0.000 A 
ATOM     25  C   UNL     1       3.538   2.253  -0.024  0.00  0.00    +0.011 A 
ATOM     26  C   UNL     1       4.851   1.829  -0.031  0.00  0.00    +0.016 A 
ATOM     27  C   UNL     1       5.145   0.477  -0.040  0.00  0.00    +0.018 A 
ATOM     28  C   UNL     1       4.124  -0.459  -0.036  0.00  0.00    +0.016 A 
ATOM     29  C   UNL     1       2.808  -0.047  -0.022  0.00  0.00    +0.011 A 
ATOM     30 BR   UNL     1       6.947  -0.096  -0.058  0.00  0.00    -0.050 Br
ENDBRANCH  20  24
ENDBRANCH  16  18
ENDBRANCH   1  16
TORSDOF 7
