REMARK  Name = ZINC22203824
REMARK  9 active torsions:
REMARK  status: ('A' for Active; 'I' for Inactive)
REMARK    1  A    between atoms: C_1  and  C_2
REMARK    2  A    between atoms: C_2  and  C_3
REMARK    3  A    between atoms: C_2  and  C_4
REMARK    4  A    between atoms: C_2  and  C_5
REMARK    5  A    between atoms: C_5  and  C_7
REMARK    6  A    between atoms: C_5  and  N_17
REMARK    7  A    between atoms: C_8  and  C_9
REMARK    8  A    between atoms: N_22  and  C_29
REMARK    9  A    between atoms: C_33  and  O_35
REMARK                            x       y       z     vdW  Elec       q    Type
REMARK                         _______ _______ _______ _____ _____    ______ ____
ROOT
ATOM      1  N   UNL     1      -0.833   9.168   0.666  0.00  0.00    -0.327 N 
ATOM      2  C   UNL     1       0.007   8.134   0.930  0.00  0.00    +0.090 C 
ATOM      3  N   UNL     1       1.315   8.143   0.859  0.00  0.00    -0.287 N 
ATOM      4  C   UNL     1       1.852   6.962   1.182  0.00  0.00    +0.143 C 
ATOM      5  S   UNL     1       3.535   6.646   1.187  0.00  0.00    -0.018 S 
ATOM      6  N   UNL     1       0.914   6.048   1.503  0.00  0.00    -0.270 N 
ATOM      7  C   UNL     1      -0.376   6.738   1.360  0.00  0.00    +0.092 C 
ATOM      8  C   UNL     1      -1.112   6.774   2.694  0.00  0.00    +0.034 C 
ATOM      9  C   UNL     1      -1.454   5.347   3.129  0.00  0.00    +0.003 C 
ATOM     10  C   UNL     1      -2.329   4.686   2.062  0.00  0.00    +0.000 C 
ATOM     11  C   UNL     1      -1.568   4.636   0.735  0.00  0.00    +0.003 C 
ATOM     12  C   UNL     1      -1.226   6.061   0.291  0.00  0.00    +0.034 C 
ATOM     13  H   UNL     1      -1.920   9.032   0.764  0.00  0.00    +0.148 HD
ATOM     14  H   UNL     1       1.844   9.059   0.558  0.00  0.00    +0.155 HD
ENDROOT
BRANCH   6  15
ATOM     15  C   UNL     1       1.124   4.720   1.887  0.00  0.00    +0.040 A 
ATOM     16  C   UNL     1       0.041   3.901   2.182  0.00  0.00    +0.024 A 
ATOM     17  C   UNL     1       0.249   2.588   2.556  0.00  0.00    +0.005 A 
ATOM     18  C   UNL     1       1.534   2.088   2.648  0.00  0.00    +0.045 A 
ATOM     19  C   UNL     1       2.620   2.901   2.354  0.00  0.00    +0.119 A 
ATOM     20  C   UNL     1       2.415   4.218   1.973  0.00  0.00    +0.069 A 
BRANCH  19  21
ATOM     21  O   UNL     1       3.882   2.406   2.440  0.00  0.00    -0.507 OA
ATOM     22  H   UNL     1       4.743   3.051   2.207  0.00  0.00    +0.292 HD
ENDBRANCH  19  21
ENDBRANCH   6  15
BRANCH   1  23
ATOM     23  C   UNL     1      -0.291  10.465   0.252  0.00  0.00    +0.100 C 
BRANCH  23  25
ATOM     24  C   UNL     1       1.141  10.521   2.299  0.00  0.00    +0.013 C 
ATOM     25  C   UNL     1       0.086  11.279   1.491  0.00  0.00    -0.016 C 
ATOM     26  C   UNL     1       0.651  12.633   1.059  0.00  0.00    +0.013 C 
ATOM     27  C   UNL     1      -1.158  11.498   2.355  0.00  0.00    +0.013 C 
ENDBRANCH  23  25
BRANCH  23  28
ATOM     28  C   UNL     1      -1.330  11.212  -0.543  0.00  0.00    -0.004 C 
ATOM     29  C   UNL     1      -1.087  11.547  -1.803  0.00  0.00    +0.007 C 
BRANCH  29  30
ATOM     30  C   UNL     1       0.095  10.996  -2.499  0.00  0.00    -0.007 A 
ATOM     31  C   UNL     1       0.488   9.676  -2.273  0.00  0.00    +0.011 A 
ATOM     32  C   UNL     1       1.588   9.165  -2.929  0.00  0.00    +0.020 A 
ATOM     33  C   UNL     1       2.310   9.962  -3.802  0.00  0.00    +0.042 A 
ATOM     34  C   UNL     1       1.928  11.274  -4.027  0.00  0.00    +0.040 A 
ATOM     35  C   UNL     1       0.825  11.795  -3.381  0.00  0.00    +0.049 A 
ATOM     36 CL   UNL     1       0.347  13.440  -3.664  0.00  0.00    -0.083 Cl
ATOM     37 CL   UNL     1       3.698   9.313  -4.618  0.00  0.00    -0.083 Cl
ENDBRANCH  29  30
ENDBRANCH  23  28
ENDBRANCH   1  23
TORSDOF 6
