REMARK  Name = ZINC09582034
REMARK  9 active torsions:
REMARK  status: ('A' for Active; 'I' for Inactive)
REMARK    1  A    between atoms: C_1  and  C_2
REMARK    2  A    between atoms: C_5  and  C_34
REMARK    3  A    between atoms: N_8  and  S_10
REMARK    4  A    between atoms: S_10  and  C_13
REMARK    5  A    between atoms: C_16  and  C_19
REMARK    6  A    between atoms: N_21  and  C_22
REMARK    7  A    between atoms: C_22  and  C_23
REMARK    8  A    between atoms: C_23  and  C_25
REMARK    9  A    between atoms: C_23  and  N_65
REMARK                            x       y       z     vdW  Elec       q    Type
REMARK                         _______ _______ _______ _____ _____    ______ ____
ROOT
ATOM      1  C   UNL     1      -3.865   3.492  -0.012  0.00  0.00    +0.106 A 
ATOM      2  C   UNL     1      -4.457   3.097  -1.198  0.00  0.00    +0.029 A 
ATOM      3  C   UNL     1      -5.676   2.451  -1.182  0.00  0.00    +0.015 A 
ATOM      4  C   UNL     1      -6.317   2.206   0.033  0.00  0.00    +0.037 A 
ATOM      5  C   UNL     1      -5.716   2.612   1.226  0.00  0.00    +0.015 A 
ATOM      6  C   UNL     1      -4.495   3.252   1.197  0.00  0.00    +0.029 A 
ENDROOT
BRANCH   4   7
ATOM      7  C   UNL     1      -7.626   1.519   0.057  0.00  0.00    +0.244 C 
ATOM      8  O   UNL     1      -8.181   1.306   1.117  0.00  0.00    -0.270 OA
ATOM      9  N   UNL     1      -8.203   1.128  -1.096  0.00  0.00    -0.312 N 
ATOM     10  H   UNL     1      -7.760   1.298  -1.942  0.00  0.00    +0.149 HD
BRANCH   9  11
ATOM     11  C   UNL     1      -9.500   0.448  -1.072  0.00  0.00    +0.097 C 
BRANCH  11  12
ATOM     12  C   UNL     1      -9.983   0.220  -2.506  0.00  0.00    +0.016 C 
BRANCH  12  17
ATOM     13  C   UNL     1     -12.284   0.569  -1.790  0.00  0.00    -0.078 C 
ATOM     14  C   UNL     1     -13.669   0.106  -2.308  0.00  0.00    -0.020 C 
ATOM     15  C   UNL     1     -13.385  -0.246  -3.787  0.00  0.00    -0.020 C 
ATOM     16  C   UNL     1     -11.869  -0.509  -3.853  0.00  0.00    -0.078 C 
ATOM     17  N   UNL     1     -11.366  -0.344  -2.489  0.00  0.00    +0.387 N 
ATOM     18  H   UNL     1     -11.353  -1.254  -2.012  0.00  0.00    -0.081 HD
ENDBRANCH  12  17
BRANCH  12  19
ATOM     19  C   UNL     1      -9.053  -0.738  -3.204  0.00  0.00    +0.093 A 
ATOM     20  C   UNL     1      -8.071  -0.398  -4.059  0.00  0.00    +0.043 A 
ATOM     21  C   UNL     1      -7.454  -1.601  -4.472  0.00  0.00    +0.041 A 
ATOM     22  C   UNL     1      -8.095  -2.604  -3.844  0.00  0.00    +0.195 A 
ATOM     23  O   UNL     1      -9.059  -2.074  -3.073  0.00  0.00    -0.469 OA
ENDBRANCH  12  19
ENDBRANCH  11  12
ENDBRANCH   9  11
ENDBRANCH   4   7
BRANCH   1  24
ATOM     24  S   UNL     1      -2.305   4.311  -0.041  0.00  0.00    +0.061 S 
ATOM     25  O   UNL     1      -2.222   5.069   1.159  0.00  0.00    -0.153 OA
ATOM     26  O   UNL     1      -2.181   4.903  -1.326  0.00  0.00    -0.153 OA
BRANCH  24  32
ATOM     27  C   UNL     1      -2.194   0.617  -1.028  0.00  0.00    +0.009 C 
ATOM     28  C   UNL     1      -0.714   1.006  -1.046  0.00  0.00    +0.002 C 
ATOM     29  C   UNL     1      -0.047   0.539   0.250  0.00  0.00    +0.009 C 
ATOM     30  C   UNL     1      -0.756   1.174   1.448  0.00  0.00    +0.002 C 
ATOM     31  C   UNL     1      -0.629   2.698   1.363  0.00  0.00    +0.112 C 
ATOM     32  N   UNL     1      -1.137   3.142   0.057  0.00  0.00    -0.176 NA
ATOM     33  C   UNL     1      -0.587   2.529  -1.160  0.00  0.00    +0.112 C 
ATOM     34  C   UNL     1      -0.109   0.680   2.744  0.00  0.00    +0.009 C 
ENDBRANCH  24  32
ENDBRANCH   1  24
TORSDOF 7
