REMARK  Name = ZINC45891320
REMARK  3 active torsions:
REMARK  status: ('A' for Active; 'I' for Inactive)
REMARK    1  A    between atoms: C_2  and  N_16
REMARK    2  A    between atoms: C_3  and  N_10
REMARK    3  A    between atoms: C_5  and  N_8
REMARK                            x       y       z     vdW  Elec       q    Type
REMARK                         _______ _______ _______ _____ _____    ______ ____
ROOT
ATOM      1  C   UNL     1      -0.017   1.379   0.010  0.00  0.00    +0.046 A 
ATOM      2  C   UNL     1       1.174   2.090   0.002  0.00  0.00    +0.048 A 
ATOM      3  C   UNL     1       2.390   1.410  -0.013  0.00  0.00    +0.067 A 
ATOM      4  C   UNL     1       2.408   0.023  -0.021  0.00  0.00    +0.063 A 
ATOM      5  C   UNL     1       1.213  -0.684  -0.013  0.00  0.00    +0.059 A 
ATOM      6  C   UNL     1       0.002  -0.004   0.002  0.00  0.00    +0.064 A 
ATOM      7 CL   UNL     1      -1.490  -0.891   0.012  0.00  0.00    -0.082 Cl
ATOM      8 BR   UNL     1       4.056  -0.902  -0.042  0.00  0.00    -0.046 Br
ENDROOT
BRANCH   3   9
ATOM      9  N   UNL     1       3.595   2.127  -0.021  0.00  0.00    -0.328 N 
ATOM     10  C   UNL     1       4.222   2.522  -1.290  0.00  0.00    +0.105 C 
ATOM     11  C   UNL     1       4.478   4.032  -1.265  0.00  0.00    +0.019 C 
ATOM     12  C   UNL     1       5.296   4.386  -0.021  0.00  0.00    +0.003 C 
ATOM     13  C   UNL     1       4.508   4.009   1.235  0.00  0.00    +0.019 C 
ATOM     14  C   UNL     1       4.250   2.504   1.238  0.00  0.00    +0.105 C 
ENDBRANCH   3   9
BRANCH   5  15
ATOM     15  N   UNL     1       1.229  -2.085  -0.021  0.00  0.00    -0.356 N 
ATOM     16  H   UNL     1       2.075  -2.561  -0.032  0.00  0.00    +0.142 HD
ATOM     17  H   UNL     1       0.395  -2.580  -0.016  0.00  0.00    +0.142 HD
ENDBRANCH   5  15
BRANCH   2  18
ATOM     18  N   UNL     1       1.153   3.493   0.009  0.00  0.00    -0.356 N 
ATOM     19  H   UNL     1       0.306   3.966   0.020  0.00  0.00    +0.142 HD
ATOM     20  H   UNL     1       1.986   3.990   0.004  0.00  0.00    +0.142 HD
ENDBRANCH   2  18
TORSDOF 3
