REMARK  Name = ZINC39360102
REMARK  11 active torsions:
REMARK  status: ('A' for Active; 'I' for Inactive)
REMARK    1  A    between atoms: C_1  and  C_2
REMARK    2  A    between atoms: C_2  and  O_3
REMARK    3  A    between atoms: O_3  and  C_4
REMARK    4  A    between atoms: C_12  and  C_14
REMARK    5  A    between atoms: C_17  and  N_20
REMARK    6  A    between atoms: C_23  and  N_26
REMARK    7  A    between atoms: N_26  and  C_27
REMARK    8  A    between atoms: C_27  and  C_28
REMARK    9  A    between atoms: C_28  and  C_29
REMARK   10  A    between atoms: C_30  and  C_36
REMARK   11  A    between atoms: C_33  and  C_35
REMARK                            x       y       z     vdW  Elec       q    Type
REMARK                         _______ _______ _______ _____ _____    ______ ____
ROOT
ATOM      1  C   UNL     1       2.395  -5.257   6.057  0.00  0.00    +0.037 A 
ATOM      2  C   UNL     1       3.053  -5.841   7.144  0.00  0.00    +0.015 A 
ATOM      3  C   UNL     1       3.215  -7.207   7.194  0.00  0.00    +0.024 A 
ATOM      4  C   UNL     1       2.725  -8.007   6.165  0.00  0.00    +0.030 A 
ATOM      5  C   UNL     1       2.070  -7.428   5.082  0.00  0.00    +0.024 A 
ATOM      6  C   UNL     1       1.899  -6.063   5.028  0.00  0.00    +0.015 A 
ENDROOT
BRANCH   1  15
ATOM      7  C   UNL     1       6.550  -0.756   5.907  0.00  0.00    +0.403 C 
ATOM      8  O   UNL     1       6.425   0.447   5.790  0.00  0.00    -0.226 OA
ATOM      9  N   UNL     1       5.511  -1.571   5.634  0.00  0.00    -0.264 N 
ATOM     10  C   UNL     1       5.646  -3.027   5.777  0.00  0.00    +0.130 C 
ATOM     11  C   UNL     1       4.545  -3.531   6.718  0.00  0.00    +0.127 C 
ATOM     12  N   UNL     1       3.257  -2.979   6.273  0.00  0.00    -0.295 N 
ATOM     13  C   UNL     1       3.123  -1.522   6.130  0.00  0.00    +0.127 C 
ATOM     14  C   UNL     1       4.223  -1.018   5.194  0.00  0.00    +0.130 C 
ATOM     15  C   UNL     1       2.219  -3.794   6.000  0.00  0.00    +0.247 C 
ATOM     16  O   UNL     1       1.137  -3.322   5.707  0.00  0.00    -0.270 OA
BRANCH   7  17
ATOM     17  O   UNL     1       7.725  -1.275   6.309  0.00  0.00    -0.451 OA
BRANCH  17  19
ATOM     18  C   UNL     1      10.030  -1.123   7.022  0.00  0.00    +0.048 C 
ATOM     19  C   UNL     1       8.783  -0.353   6.581  0.00  0.00    +0.230 C 
ENDBRANCH  17  19
ENDBRANCH   7  17
ENDBRANCH   1  15
BRANCH   4  20
ATOM     20  N   UNL     1       2.891  -9.386   6.220  0.00  0.00    -0.330 N 
ATOM     21  C   UNL     1       2.500 -10.232   5.083  0.00  0.00    +0.103 C 
ATOM     22  C   UNL     1       1.553 -11.326   5.586  0.00  0.00    +0.003 C 
ATOM     23  C   UNL     1       2.221 -12.085   6.735  0.00  0.00    -0.069 C 
ATOM     24  C   UNL     1       2.502 -11.122   7.890  0.00  0.00    +0.003 C 
ATOM     25  C   UNL     1       3.465 -10.025   7.412  0.00  0.00    +0.103 C 
BRANCH  23  26
ATOM     26  N   UNL     1       1.328 -13.157   7.197  0.00  0.00    +0.381 N 
ATOM     27  H   UNL     1       0.494 -12.752   7.594  0.00  0.00    -0.086 HD
ATOM     28  H   UNL     1       1.078 -13.746   6.417  0.00  0.00    -0.086 HD
BRANCH  26  29
ATOM     29  C   UNL     1       2.016 -13.960   8.217  0.00  0.00    -0.078 C 
BRANCH  29  30
ATOM     30  C   UNL     1       1.086 -15.076   8.698  0.00  0.00    +0.016 C 
BRANCH  30  31
ATOM     31  C   UNL     1       1.791 -15.900   9.745  0.00  0.00    -0.023 C 
ATOM     32  C   UNL     1       1.726 -15.775  11.072  0.00  0.00    +0.061 C 
ATOM     33  N   UNL     1       2.501 -16.700  11.680  0.00  0.00    -0.159 NA
ATOM     34  N   UNL     1       3.098 -17.455  10.909  0.00  0.00    -0.180 NA
ATOM     35  C   UNL     1       2.736 -17.071   9.534  0.00  0.00    +0.153 C 
ATOM     36  C   UNL     1       3.976 -16.631   8.753  0.00  0.00    +0.039 C 
ATOM     37  C   UNL     1       0.900 -14.742  11.794  0.00  0.00    +0.067 C 
ENDBRANCH  30  31
ENDBRANCH  29  30
ENDBRANCH  26  29
ENDBRANCH  23  26
ENDBRANCH   4  20
TORSDOF 8
