REMARK  Name = ZINC41584825
REMARK  7 active torsions:
REMARK  status: ('A' for Active; 'I' for Inactive)
REMARK    1  A    between atoms: C_1  and  C_2
REMARK    2  A    between atoms: C_4  and  O_34
REMARK    3  A    between atoms: C_5  and  C_20
REMARK    4  A    between atoms: C_11  and  C_12
REMARK    5  A    between atoms: C_20  and  N_21
REMARK    6  A    between atoms: N_24  and  C_27
REMARK    7  A    between atoms: C_27  and  C_28
REMARK                            x       y       z     vdW  Elec       q    Type
REMARK                         _______ _______ _______ _____ _____    ______ ____
ROOT
ATOM      1  C   UNL     1      -0.082   1.509   0.016  0.00  0.00    +0.045 C 
ATOM      2  C   UNL     1      -0.072   0.003   0.006  0.00  0.00    -0.033 A 
ATOM      3  C   UNL     1      -0.095  -0.674  -1.181  0.00  0.00    +0.050 A 
ATOM      4  C   UNL     1      -0.086  -2.066  -1.193  0.00  0.00    +0.122 A 
ATOM      5  C   UNL     1      -0.054  -2.781  -0.006  0.00  0.00    +0.020 A 
ATOM      6  C   UNL     1      -0.031  -2.109   1.209  0.00  0.00    +0.145 A 
ATOM      7  C   UNL     1      -0.035  -0.704   1.208  0.00  0.00    +0.071 A 
ATOM      8  C   UNL     1       0.001  -0.288   2.622  0.00  0.00    +0.232 C 
ATOM      9  O   UNL     1       0.005   0.847   3.065  0.00  0.00    -0.283 OA
ATOM     10  C   UNL     1       0.030  -1.550   3.377  0.00  0.00    +0.176 C 
ATOM     11  C   UNL     1       0.068  -1.675   4.728  0.00  0.00    +0.058 C 
ATOM     12  O   UNL     1       0.002  -2.564   2.480  0.00  0.00    -0.451 OA
ENDROOT
BRANCH  11  13
ATOM     13  C   UNL     1      -0.019  -3.005   5.345  0.00  0.00    -0.021 A 
ATOM     14  C   UNL     1      -0.116  -3.130   6.736  0.00  0.00    +0.011 A 
ATOM     15  C   UNL     1      -0.197  -4.381   7.308  0.00  0.00    +0.039 A 
ATOM     16  C   UNL     1      -0.182  -5.515   6.509  0.00  0.00    +0.123 A 
ATOM     17  C   UNL     1      -0.086  -5.398   5.130  0.00  0.00    +0.039 A 
ATOM     18  C   UNL     1      -0.010  -4.154   4.544  0.00  0.00    +0.011 A 
ATOM     19  F   UNL     1      -0.262  -6.738   7.076  0.00  0.00    -0.205 F 
ENDBRANCH  11  13
BRANCH   4  20
ATOM     20  O   UNL     1      -0.109  -2.728  -2.377  0.00  0.00    -0.506 OA
ATOM     21  H   UNL     1       0.768  -2.914  -2.741  0.00  0.00    +0.292 HD
ENDBRANCH   4  20
BRANCH   5  22
ATOM     22  C   UNL     1      -0.045  -4.287  -0.035  0.00  0.00    -0.035 C 
BRANCH  22  23
ATOM     23  N   UNL     1       1.342  -4.769  -0.076  0.00  0.00    +0.384 N 
ATOM     24  C   UNL     1       1.967  -4.351  -1.338  0.00  0.00    -0.063 C 
ATOM     25  C   UNL     1       3.418  -4.836  -1.373  0.00  0.00    +0.066 C 
ATOM     26  N   UNL     1       3.446  -6.300  -1.254  0.00  0.00    -0.302 NA
ATOM     27  C   UNL     1       2.801  -6.735  -0.007  0.00  0.00    +0.066 C 
ATOM     28  C   UNL     1       1.355  -6.234   0.017  0.00  0.00    -0.063 C 
ATOM     29  H   UNL     1       1.856  -4.378   0.699  0.00  0.00    -0.081 HD
BRANCH  26  30
ATOM     30  C   UNL     1       4.821  -6.810  -1.340  0.00  0.00    +0.119 C 
BRANCH  30  31
ATOM     31  C   UNL     1       4.793  -8.312  -1.462  0.00  0.00    -0.033 A 
ATOM     32  C   UNL     1       4.814  -9.098  -0.325  0.00  0.00    +0.005 A 
ATOM     33  C   UNL     1       4.788 -10.475  -0.436  0.00  0.00    +0.000 A 
ATOM     34  C   UNL     1       4.742 -11.067  -1.684  0.00  0.00    +0.000 A 
ATOM     35  C   UNL     1       4.720 -10.281  -2.821  0.00  0.00    +0.000 A 
ATOM     36  C   UNL     1       4.741  -8.904  -2.710  0.00  0.00    +0.005 A 
ENDBRANCH  30  31
ENDBRANCH  26  30
ENDBRANCH  22  23
ENDBRANCH   5  22
TORSDOF 6
