REMARK  Name = ZINC22319572
REMARK  13 active torsions:
REMARK  status: ('A' for Active; 'I' for Inactive)
REMARK    1  A    between atoms: C_1  and  C_2
REMARK    2  A    between atoms: C_5  and  S_8
REMARK    3  A    between atoms: S_8  and  N_11
REMARK    4  A    between atoms: N_11  and  C_12
REMARK    5  A    between atoms: N_11  and  C_30
REMARK    6  A    between atoms: C_12  and  C_13
REMARK    7  A    between atoms: N_15  and  C_16
REMARK    8  A    between atoms: C_19  and  C_28
REMARK    9  A    between atoms: C_19  and  C_29
REMARK   10  A    between atoms: C_25  and  C_27
REMARK   11  A    between atoms: C_33  and  C_36
REMARK   12  A    between atoms: C_36  and  C_37
REMARK   13  A    between atoms: C_36  and  C_38
REMARK                            x       y       z     vdW  Elec       q    Type
REMARK                         _______ _______ _______ _____ _____    ______ ____
ROOT
ATOM      1  N   UNL     1      -0.625   0.656   8.521  0.00  0.00    -0.194 N 
ENDROOT
BRANCH   1   2
ATOM      2  C   UNL     1      -1.120   1.770   9.203  0.00  0.00    +0.052 A 
ATOM      3  C   UNL     1      -1.414   1.683  10.557  0.00  0.00    +0.025 A 
ATOM      4  C   UNL     1      -1.899   2.788  11.230  0.00  0.00    +0.006 A 
ATOM      5  C   UNL     1      -2.102   3.977  10.553  0.00  0.00    -0.045 A 
ATOM      6  C   UNL     1      -1.815   4.066   9.204  0.00  0.00    +0.006 A 
ATOM      7  C   UNL     1      -1.325   2.966   8.526  0.00  0.00    +0.025 A 
BRANCH   5   8
ATOM      8  C   UNL     1      -2.636   5.179  11.289  0.00  0.00    +0.013 C 
ATOM      9  C   UNL     1      -4.009   4.848  11.877  0.00  0.00    +0.012 C 
ATOM     10  C   UNL     1      -1.675   5.553  12.419  0.00  0.00    +0.012 C 
ENDBRANCH   5   8
ENDBRANCH   1   2
BRANCH   1  11
ATOM     11  S   UNL     1      -1.512  -0.741   8.464  0.00  0.00    +0.075 S 
ATOM     12  O   UNL     1      -2.847  -0.389   8.801  0.00  0.00    -0.150 OA
ATOM     13  O   UNL     1      -1.178  -1.385   7.242  0.00  0.00    -0.150 OA
BRANCH  11  18
ATOM     14  C   UNL     1       0.499  -4.309  12.896  0.00  0.00    +0.044 C 
ATOM     15  C   UNL     1      -0.003  -3.418  11.789  0.00  0.00    -0.050 A 
ATOM     16  C   UNL     1      -1.109  -2.615  11.996  0.00  0.00    +0.005 A 
ATOM     17  C   UNL     1      -1.570  -1.797  10.981  0.00  0.00    +0.029 A 
ATOM     18  C   UNL     1      -0.924  -1.783   9.759  0.00  0.00    +0.109 A 
ATOM     19  C   UNL     1       0.178  -2.590   9.550  0.00  0.00    +0.029 A 
ATOM     20  C   UNL     1       0.642  -3.403  10.567  0.00  0.00    +0.005 A 
ENDBRANCH  11  18
ENDBRANCH   1  11
BRANCH   1  21
ATOM     21  C   UNL     1       0.678   0.725   7.855  0.00  0.00    +0.227 C 
BRANCH  21  22
ATOM     22  C   UNL     1       0.508   1.312   6.478  0.00  0.00    +0.233 C 
ATOM     23  O   UNL     1      -0.593   1.641   6.090  0.00  0.00    -0.274 OA
ATOM     24  N   UNL     1       1.580   1.472   5.676  0.00  0.00    -0.307 N 
ATOM     25  H   UNL     1       2.579   1.173   6.028  0.00  0.00    +0.149 HD
BRANCH  24  26
ATOM     26  C   UNL     1       1.415   2.043   4.337  0.00  0.00    +0.110 C 
ATOM     27  C   UNL     1       2.557   1.566   3.436  0.00  0.00    +0.074 C 
ATOM     28  C   UNL     1       2.533   2.398   2.147  0.00  0.00    +0.107 C 
ATOM     29  O   UNL     1       2.817   3.757   2.483  0.00  0.00    -0.486 OA
ATOM     30  C   UNL     1       2.121   4.317   3.506  0.00  0.00    +0.126 A 
ATOM     31  C   UNL     1       1.435   3.547   4.429  0.00  0.00    +0.015 A 
ATOM     32  C   UNL     1       0.747   4.161   5.462  0.00  0.00    +0.009 A 
ATOM     33  C   UNL     1       0.741   5.538   5.574  0.00  0.00    +0.004 A 
ATOM     34  C   UNL     1       1.423   6.310   4.652  0.00  0.00    -0.047 A 
ATOM     35  C   UNL     1       2.111   5.704   3.621  0.00  0.00    +0.049 A 
ATOM     36  C   UNL     1       1.416   7.812   4.774  0.00  0.00    +0.044 C 
ATOM     37  C   UNL     1       3.593   1.874   1.176  0.00  0.00    +0.055 C 
ATOM     38  C   UNL     1       1.150   2.305   1.500  0.00  0.00    +0.055 C 
ENDBRANCH  24  26
ENDBRANCH  21  22
ENDBRANCH   1  21
TORSDOF 7
