REMARK  Name = ZINC35781242
REMARK  12 active torsions:
REMARK  status: ('A' for Active; 'I' for Inactive)
REMARK    1  A    between atoms: C_1  and  C_2
REMARK    2  A    between atoms: C_2  and  C_3
REMARK    3  A    between atoms: C_2  and  C_4
REMARK    4  A    between atoms: C_4  and  N_5
REMARK    5  A    between atoms: N_5  and  C_6
REMARK    6  A    between atoms: N_5  and  C_23
REMARK    7  A    between atoms: C_6  and  C_7
REMARK    8  A    between atoms: C_23  and  C_24
REMARK    9  A    between atoms: C_24  and  C_26
REMARK   10  A    between atoms: C_24  and  O_35
REMARK   11  A    between atoms: C_26  and  O_27
REMARK   12  A    between atoms: O_27  and  C_28
REMARK                            x       y       z     vdW  Elec       q    Type
REMARK                         _______ _______ _______ _____ _____    ______ ____
ROOT
ATOM      1  N   UNL     1       2.369  -0.100  -1.398  0.00  0.00    +0.386 N 
ATOM      2  H   UNL     1       2.840   0.793  -1.397  0.00  0.00    -0.081 HD
ENDROOT
BRANCH   1   3
ATOM      3  C   UNL     1       0.967   0.085  -1.001  0.00  0.00    -0.075 C 
BRANCH   3   5
ATOM      4  C   UNL     1       1.565   2.118   0.323  0.00  0.00    +0.005 C 
ATOM      5  C   UNL     1       0.910   0.736   0.382  0.00  0.00    -0.034 C 
ATOM      6  C   UNL     1      -0.549   0.882   0.817  0.00  0.00    +0.005 C 
ENDBRANCH   3   5
ENDBRANCH   1   3
BRANCH   1   7
ATOM      7  C   UNL     1       3.032  -1.004  -0.448  0.00  0.00    -0.003 C 
BRANCH   7   8
ATOM      8  C   UNL     1       4.512  -1.032  -0.730  0.00  0.00    +0.094 A 
ATOM      9  N   UNL     1       5.303  -1.904  -0.053  0.00  0.00    -0.312 N 
ATOM     10  H   UNL     1       4.904  -2.498   0.602  0.00  0.00    +0.170 HD
ATOM     11  C   UNL     1       6.630  -1.961  -0.274  0.00  0.00    +0.260 A 
ATOM     12  O   UNL     1       7.327  -2.750   0.341  0.00  0.00    -0.267 OA
ATOM     13  C   UNL     1       7.209  -1.079  -1.244  0.00  0.00    +0.075 A 
ATOM     14  C   UNL     1       8.615  -0.970  -1.642  0.00  0.00    -0.023 A 
ATOM     15  C   UNL     1       8.908  -0.049  -2.584  0.00  0.00    -0.004 A 
ATOM     16  S   UNL     1       7.355   0.703  -2.995  0.00  0.00    -0.073 S 
ATOM     17  C   UNL     1       6.313  -0.216  -1.892  0.00  0.00    +0.116 A 
ATOM     18  N   UNL     1       5.010  -0.220  -1.624  0.00  0.00    -0.229 NA
ATOM     19  C   UNL     1      10.251   0.285  -3.156  0.00  0.00    +0.043 C 
ATOM     20  C   UNL     1      10.959  -1.011  -3.574  0.00  0.00    +0.005 C 
ATOM     21  C   UNL     1      11.760  -1.527  -2.382  0.00  0.00    +0.001 C 
ATOM     22  C   UNL     1      11.041  -1.182  -1.080  0.00  0.00    +0.005 C 
ATOM     23  C   UNL     1       9.681  -1.868  -1.022  0.00  0.00    +0.037 C 
ENDBRANCH   7   8
ENDBRANCH   1   7
BRANCH   1  24
ATOM     24  C   UNL     1       2.425  -0.681  -2.746  0.00  0.00    -0.043 C 
BRANCH  24  25
ATOM     25  C   UNL     1       1.912   0.342  -3.763  0.00  0.00    +0.135 C 
BRANCH  25  26
ATOM     26  O   UNL     1       0.505   0.522  -3.589  0.00  0.00    -0.390 OA
ATOM     27  H   UNL     1      -0.013  -0.285  -3.710  0.00  0.00    +0.210 HD
ENDBRANCH  25  26
BRANCH  25  28
ATOM     28  C   UNL     1       2.190  -0.165  -5.180  0.00  0.00    +0.258 C 
BRANCH  28  29
ATOM     29  O   UNL     1       1.818   0.839  -6.126  0.00  0.00    -0.489 OA
BRANCH  29  30
ATOM     30  C   UNL     1       2.002   0.546  -7.441  0.00  0.00    +0.121 A 
ATOM     31  C   UNL     1       2.525  -0.684  -7.812  0.00  0.00    +0.047 A 
ATOM     32  C   UNL     1       2.711  -0.979  -9.148  0.00  0.00    +0.023 A 
ATOM     33  C   UNL     1       2.378  -0.049 -10.116  0.00  0.00    +0.041 A 
ATOM     34  C   UNL     1       1.857   1.179  -9.748  0.00  0.00    +0.023 A 
ATOM     35  C   UNL     1       1.663   1.476  -8.413  0.00  0.00    +0.047 A 
ATOM     36 CL   UNL     1       2.614  -0.422 -11.795  0.00  0.00    -0.084 Cl
ENDBRANCH  29  30
ENDBRANCH  28  29
ENDBRANCH  25  28
ENDBRANCH  24  25
ENDBRANCH   1  24
TORSDOF 10
