REMARK  Name = ZINC05927481
REMARK  2 active torsions:
REMARK  status: ('A' for Active; 'I' for Inactive)
REMARK    1  A    between atoms: C_4  and  N_7
REMARK    2  A    between atoms: C_11  and  C_13
REMARK                            x       y       z     vdW  Elec       q    Type
REMARK                         _______ _______ _______ _____ _____    ______ ____
ROOT
ATOM      1  N   UNL     1       3.620  -0.650  -0.037  0.00  0.00    -0.295 N 
ATOM      2  C   UNL     1       3.644  -2.021   0.059  0.00  0.00    +0.144 A 
ATOM      3  N   UNL     1       4.700  -2.813   0.156  0.00  0.00    -0.304 N 
ATOM      4  C   UNL     1       4.577  -4.113   0.241  0.00  0.00    +0.264 A 
ATOM      5  C   UNL     1       3.255  -4.607   0.222  0.00  0.00    +0.080 A 
ATOM      6  S   UNL     1       2.338  -3.081   0.088  0.00  0.00    -0.051 S 
ATOM      7  O   UNL     1       5.650  -4.933   0.339  0.00  0.00    -0.267 OA
ATOM      8  H   UNL     1       4.447  -0.158  -0.161  0.00  0.00    +0.154 HD
ATOM      9  H   UNL     1       5.587  -2.421   0.164  0.00  0.00    +0.171 HD
ENDROOT
BRANCH   5  10
ATOM     10  C   UNL     1       2.795  -5.918   0.294  0.00  0.00    +0.030 C 
ATOM     11  C   UNL     1       1.421  -6.180   0.258  0.00  0.00    +0.003 C 
ATOM     12  C   UNL     1       0.369  -5.245   0.146  0.00  0.00    +0.120 C 
ATOM     13  N   UNL     1      -0.778  -5.875   0.146  0.00  0.00    -0.254 NA
ATOM     14  C   UNL     1      -0.628  -7.209   0.250  0.00  0.00    +0.072 A 
ATOM     15  C   UNL     1       0.755  -7.492   0.322  0.00  0.00    +0.009 A 
ATOM     16  C   UNL     1       1.198  -8.806   0.429  0.00  0.00    +0.010 A 
ATOM     17  C   UNL     1       0.280  -9.834   0.463  0.00  0.00    +0.001 A 
ATOM     18  C   UNL     1      -1.080  -9.565   0.391  0.00  0.00    +0.002 A 
ATOM     19  C   UNL     1      -1.539  -8.272   0.292  0.00  0.00    +0.028 A 
ENDBRANCH   5  10
BRANCH   1  23
ATOM     20  C   UNL     1      -0.001   1.393   0.202  0.00  0.00    +0.000 A 
ATOM     21  C   UNL     1       0.191   0.240   0.941  0.00  0.00    +0.002 A 
ATOM     22  C   UNL     1       1.391  -0.440   0.864  0.00  0.00    +0.023 A 
ATOM     23  C   UNL     1       2.405   0.036   0.043  0.00  0.00    +0.033 A 
ATOM     24  C   UNL     1       2.208   1.194  -0.699  0.00  0.00    +0.023 A 
ATOM     25  C   UNL     1       1.007   1.869  -0.617  0.00  0.00    +0.002 A 
ENDBRANCH   1  23
TORSDOF 2
