REMARK  Name = ZINC64391275
REMARK  4 active torsions:
REMARK  status: ('A' for Active; 'I' for Inactive)
REMARK    1  A    between atoms: C_1  and  C_2
REMARK    2  A    between atoms: C_5  and  C_8
REMARK    3  A    between atoms: C_11  and  C_15
REMARK    4  A    between atoms: C_20  and  C_21
REMARK                            x       y       z     vdW  Elec       q    Type
REMARK                         _______ _______ _______ _____ _____    ______ ____
ROOT
ATOM      1  C   UNL     1      -0.174  -4.463   0.139  0.00  0.00    +0.180 C 
ATOM      2  N   UNL     1       0.663  -4.919   1.269  0.00  0.00    -0.268 NA
ATOM      3  C   UNL     1       1.797  -5.661   0.671  0.00  0.00    +0.225 C 
ATOM      4  O   UNL     1       1.310  -6.102  -0.617  0.00  0.00    -0.278 OA
ATOM      5  N   UNL     1       0.494  -4.958  -1.087  0.00  0.00    -0.178 NA
ATOM      6  H   UNL     1       0.991  -4.136   1.815  0.00  0.00    +0.126 HD
ATOM      7  H   UNL     1      -0.183  -5.254  -1.774  0.00  0.00    +0.156 HD
ENDROOT
BRANCH   1  12
ATOM      8  C   UNL     1      -0.455   1.309   0.066  0.00  0.00    +0.044 C 
ATOM      9  C   UNL     1      -0.382  -0.196   0.085  0.00  0.00    -0.050 A 
ATOM     10  C   UNL     1      -0.448  -0.907  -1.099  0.00  0.00    +0.004 A 
ATOM     11  C   UNL     1      -0.381  -2.287  -1.082  0.00  0.00    +0.007 A 
ATOM     12  C   UNL     1      -0.247  -2.958   0.120  0.00  0.00    -0.014 A 
ATOM     13  C   UNL     1      -0.179  -2.247   1.304  0.00  0.00    +0.007 A 
ATOM     14  C   UNL     1      -0.242  -0.866   1.286  0.00  0.00    +0.004 A 
ENDBRANCH   1  12
BRANCH   3  15
ATOM     15  C   UNL     1       2.166  -6.862   1.544  0.00  0.00    +0.128 C 
ATOM     16  C   UNL     1       2.577  -6.409   2.931  0.00  0.00    +0.121 C 
ATOM     17  N   UNL     1       3.804  -6.787   3.083  0.00  0.00    -0.161 NA
ATOM     18  N   UNL     1       4.299  -7.452   1.966  0.00  0.00    -0.153 NA
ATOM     19  C   UNL     1       3.410  -7.546   1.012  0.00  0.00    +0.083 C 
BRANCH  19  20
ATOM     20  C   UNL     1       3.579  -8.182  -0.305  0.00  0.00    -0.001 A 
ATOM     21  C   UNL     1       4.860  -8.390  -0.826  0.00  0.00    +0.010 A 
ATOM     22  C   UNL     1       5.010  -8.987  -2.060  0.00  0.00    +0.001 A 
ATOM     23  C   UNL     1       3.897  -9.379  -2.783  0.00  0.00    +0.000 A 
ATOM     24  C   UNL     1       2.626  -9.176  -2.274  0.00  0.00    +0.001 A 
ATOM     25  C   UNL     1       2.459  -8.587  -1.039  0.00  0.00    +0.010 A 
ENDBRANCH  19  20
ENDBRANCH   3  15
TORSDOF 3
