REMARK  Name = ZINC13395819
REMARK  6 active torsions:
REMARK  status: ('A' for Active; 'I' for Inactive)
REMARK    1  A    between atoms: C_1  and  O_2
REMARK    2  A    between atoms: O_2  and  C_3
REMARK    3  A    between atoms: C_3  and  C_5
REMARK    4  A    between atoms: C_5  and  C_32
REMARK    5  A    between atoms: C_10  and  C_13
REMARK    6  A    between atoms: N_22  and  C_25
REMARK                            x       y       z     vdW  Elec       q    Type
REMARK                         _______ _______ _______ _____ _____    ______ ____
ROOT
ATOM      1  C   UNL     1       0.608  -2.136  -1.079  0.00  0.00    +0.155 C 
ATOM      2  C   UNL     1       0.567  -2.561  -2.562  0.00  0.00    +0.125 C 
ATOM      3  C   UNL     1      -0.258  -3.876  -2.577  0.00  0.00    +0.112 C 
ATOM      4  C   UNL     1      -0.625  -4.130  -1.100  0.00  0.00    +0.099 C 
ATOM      5  N   UNL     1      -0.585  -2.778  -0.470  0.00  0.00    -0.290 NA
ATOM      6  C   UNL     1      -1.499  -3.501  -3.355  0.00  0.00    +0.232 C 
ATOM      7  O   UNL     1      -2.421  -4.247  -3.604  0.00  0.00    -0.274 OA
ATOM      8  N   UNL     1      -1.420  -2.218  -3.726  0.00  0.00    -0.210 N 
ATOM      9  C   UNL     1      -0.289  -1.585  -3.337  0.00  0.00    +0.233 C 
ATOM     10  O   UNL     1      -0.002  -0.429  -3.564  0.00  0.00    -0.274 OA
ATOM     11  H   UNL     1      -0.484  -2.853   0.531  0.00  0.00    +0.124 HD
ENDROOT
BRANCH   4  12
ATOM     12  C   UNL     1      -2.014  -4.703  -0.995  0.00  0.00    -0.011 A 
ATOM     13  C   UNL     1      -3.092  -3.867  -0.771  0.00  0.00    +0.006 A 
ATOM     14  C   UNL     1      -4.367  -4.393  -0.675  0.00  0.00    +0.000 A 
ATOM     15  C   UNL     1      -4.565  -5.755  -0.803  0.00  0.00    +0.001 A 
ATOM     16  C   UNL     1      -3.488  -6.592  -1.027  0.00  0.00    +0.020 A 
ATOM     17  C   UNL     1      -2.212  -6.066  -1.129  0.00  0.00    +0.046 A 
ATOM     18 CL   UNL     1      -0.860  -7.115  -1.417  0.00  0.00    -0.083 Cl
ENDBRANCH   4  12
BRANCH   8  19
ATOM     19  C   UNL     1      -2.425  -1.578  -4.465  0.00  0.00    +0.044 A 
ATOM     20  C   UNL     1      -3.668  -1.347  -3.892  0.00  0.00    +0.025 A 
ATOM     21  C   UNL     1      -4.657  -0.717  -4.622  0.00  0.00    +0.022 A 
ATOM     22  C   UNL     1      -4.410  -0.317  -5.924  0.00  0.00    +0.041 A 
ATOM     23  C   UNL     1      -3.171  -0.547  -6.497  0.00  0.00    +0.022 A 
ATOM     24  C   UNL     1      -2.177  -1.171  -5.769  0.00  0.00    +0.025 A 
ATOM     25 CL   UNL     1      -5.654   0.474  -6.839  0.00  0.00    -0.084 Cl
ENDBRANCH   8  19
BRANCH   1  26
ATOM     26  C   UNL     1       1.867  -2.637  -0.421  0.00  0.00    -0.016 A 
ATOM     27  C   UNL     1       3.031  -2.756  -1.157  0.00  0.00    +0.006 A 
ATOM     28  C   UNL     1       4.186  -3.216  -0.553  0.00  0.00    +0.000 A 
ATOM     29  C   UNL     1       4.178  -3.555   0.787  0.00  0.00    +0.000 A 
ATOM     30  C   UNL     1       3.014  -3.434   1.523  0.00  0.00    +0.000 A 
ATOM     31  C   UNL     1       1.860  -2.971   0.920  0.00  0.00    +0.006 A 
ENDBRANCH   1  26
BRANCH   1  32
ATOM     32  C   UNL     1       0.515  -0.636  -0.961  0.00  0.00    +0.333 C 
ATOM     33  O   UNL     1       1.519   0.022  -0.827  0.00  0.00    -0.248 OA
BRANCH  32  35
ATOM     34  C   UNL     1      -0.697   1.392  -0.885  0.00  0.00    +0.280 C 
ATOM     35  O   UNL     1      -0.683  -0.032  -1.004  0.00  0.00    -0.466 OA
ENDBRANCH  32  35
ENDBRANCH   1  32
TORSDOF 5
