REMARK  Name = ZINC39777058
REMARK  9 active torsions:
REMARK  status: ('A' for Active; 'I' for Inactive)
REMARK    1  A    between atoms: C_1  and  C_2
REMARK    2  A    between atoms: C_2  and  C_4
REMARK    3  A    between atoms: C_2  and  N_33
REMARK    4  A    between atoms: C_8  and  S_17
REMARK    5  A    between atoms: N_9  and  C_10
REMARK    6  A    between atoms: S_17  and  C_18
REMARK    7  A    between atoms: C_18  and  C_19
REMARK    8  A    between atoms: N_33  and  C_34
REMARK    9  A    between atoms: N_33  and  C_35
REMARK                            x       y       z     vdW  Elec       q    Type
REMARK                         _______ _______ _______ _____ _____    ______ ____
ROOT
ATOM      1  C   UNL     1      -1.419  -0.512   0.013  0.00  0.00    +0.168 C 
ATOM      2  N   UNL     1      -2.184   0.017  -1.129  0.00  0.00    -0.248 N 
ATOM      3  N   UNL     1      -3.258   0.730  -0.582  0.00  0.00    -0.162 NA
ATOM      4  C   UNL     1      -3.238   0.699   0.708  0.00  0.00    +0.180 C 
ATOM      5  N   UNL     1      -2.160  -0.034   1.192  0.00  0.00    -0.260 N 
ATOM      6  H   UNL     1      -1.985  -0.104  -2.070  0.00  0.00    +0.170 HD
ENDROOT
BRANCH   5   7
ATOM      7  C   UNL     1      -1.840  -0.269   2.533  0.00  0.00    +0.038 A 
ATOM      8  C   UNL     1      -1.459   0.786   3.353  0.00  0.00    +0.026 A 
ATOM      9  C   UNL     1      -1.144   0.551   4.677  0.00  0.00    +0.040 A 
ATOM     10  C   UNL     1      -1.206  -0.735   5.187  0.00  0.00    +0.124 A 
ATOM     11  C   UNL     1      -1.584  -1.788   4.372  0.00  0.00    +0.040 A 
ATOM     12  C   UNL     1      -1.907  -1.557   3.049  0.00  0.00    +0.026 A 
ATOM     13  F   UNL     1      -0.897  -0.962   6.482  0.00  0.00    -0.205 F 
ENDBRANCH   5   7
BRANCH   1  15
ATOM     14  C   UNL     1      -0.047   1.576   0.026  0.00  0.00    -0.010 C 
ATOM     15  C   UNL     1       0.005   0.047   0.010  0.00  0.00    -0.032 C 
BRANCH  15  16
ATOM     16  N   UNL     1       0.707  -0.406  -1.198  0.00  0.00    +0.380 N 
ATOM     17  C   UNL     1       2.074   0.131  -1.201  0.00  0.00    -0.096 C 
ATOM     18  C   UNL     1       0.757  -1.875  -1.213  0.00  0.00    -0.096 C 
ATOM     19  H   UNL     1       0.215  -0.078  -2.016  0.00  0.00    -0.082 HD
ENDBRANCH  15  16
ENDBRANCH   1  15
BRANCH   4  20
ATOM     20  S   UNL     1      -4.434   1.488   1.733  0.00  0.00    -0.081 S 
BRANCH  20  21
ATOM     21  C   UNL     1      -5.574   2.268   0.557  0.00  0.00    +0.151 C 
BRANCH  21  22
ATOM     22  C   UNL     1      -6.661   2.988   1.313  0.00  0.00    +0.121 A 
ATOM     23  N   UNL     1      -7.631   3.642   0.623  0.00  0.00    -0.310 N 
ATOM     24  H   UNL     1      -7.611   3.636  -0.347  0.00  0.00    +0.170 HD
ATOM     25  C   UNL     1      -8.620   4.298   1.259  0.00  0.00    +0.260 A 
ATOM     26  O   UNL     1      -9.485   4.880   0.627  0.00  0.00    -0.267 OA
ATOM     27  C   UNL     1      -8.638   4.298   2.691  0.00  0.00    +0.075 A 
ATOM     28  C   UNL     1      -9.612   4.941   3.586  0.00  0.00    -0.023 A 
ATOM     29  C   UNL     1      -9.411   4.797   4.907  0.00  0.00    -0.004 A 
ATOM     30  S   UNL     1      -7.938   3.810   5.042  0.00  0.00    -0.073 S 
ATOM     31  C   UNL     1      -7.598   3.598   3.315  0.00  0.00    +0.116 A 
ATOM     32  N   UNL     1      -6.655   2.967   2.619  0.00  0.00    -0.226 NA
ATOM     33  C   UNL     1     -10.463   5.500   5.722  0.00  0.00    +0.043 C 
ATOM     34  C   UNL     1     -11.131   6.479   4.732  0.00  0.00    +0.010 C 
ATOM     35  C   UNL     1     -10.876   5.781   3.381  0.00  0.00    +0.037 C 
ENDBRANCH  21  22
ENDBRANCH  20  21
ENDBRANCH   4  20
TORSDOF 6
