REMARK  Name = ZINC06300694
REMARK  7 active torsions:
REMARK  status: ('A' for Active; 'I' for Inactive)
REMARK    1  A    between atoms: C_1  and  C_2
REMARK    2  A    between atoms: C_4  and  C_34
REMARK    3  A    between atoms: C_9  and  C_14
REMARK    4  A    between atoms: C_14  and  C_16
REMARK    5  A    between atoms: C_14  and  N_66
REMARK    6  A    between atoms: N_20  and  C_21
REMARK    7  A    between atoms: C_30  and  C_33
REMARK                            x       y       z     vdW  Elec       q    Type
REMARK                         _______ _______ _______ _____ _____    ______ ____
ROOT
ATOM      1  C   UNL     1      -0.145   1.005  -2.408  0.00  0.00    +0.039 C 
ENDROOT
BRANCH   1  10
ATOM      2  C   UNL     1      -4.481  -1.051  -8.117  0.00  0.00    +0.044 C 
ATOM      3  C   UNL     1      -3.843   0.020  -7.271  0.00  0.00    -0.050 A 
ATOM      4  C   UNL     1      -4.074   1.358  -7.564  0.00  0.00    +0.008 A 
ATOM      5  C   UNL     1      -3.500   2.354  -6.803  0.00  0.00    -0.026 A 
ATOM      6  C   UNL     1      -2.681   2.018  -5.730  0.00  0.00    +0.052 A 
ATOM      7  C   UNL     1      -2.449   0.661  -5.436  0.00  0.00    -0.001 A 
ATOM      8  C   UNL     1      -3.042  -0.333  -6.222  0.00  0.00    +0.013 A 
ATOM      9  C   UNL     1      -1.582   0.318  -4.308  0.00  0.00    +0.017 A 
ATOM     10  C   UNL     1      -1.039   1.323  -3.578  0.00  0.00    +0.011 A 
ATOM     11  C   UNL     1      -1.304   2.668  -3.915  0.00  0.00    +0.251 A 
ATOM     12  O   UNL     1      -0.802   3.557  -3.249  0.00  0.00    -0.268 OA
ATOM     13  N   UNL     1      -2.095   2.993  -4.952  0.00  0.00    -0.322 N 
ATOM     14  H   UNL     1      -2.256   3.928  -5.156  0.00  0.00    +0.169 HD
ATOM     15  C   UNL     1      -3.760   3.801  -7.133  0.00  0.00    +0.046 C 
ENDBRANCH   1  10
BRANCH   1  22
ATOM     16  C   UNL     1       0.245   1.462  -0.063  0.00  0.00    -0.077 C 
ATOM     17  C   UNL     1      -0.221   2.309   1.123  0.00  0.00    -0.018 C 
ATOM     18  C   UNL     1      -1.660   1.929   1.482  0.00  0.00    -0.001 C 
ATOM     19  C   UNL     1      -2.554   2.134   0.256  0.00  0.00    -0.031 C 
ATOM     20  C   UNL     1      -2.021   1.292  -0.905  0.00  0.00    -0.074 C 
ATOM     21  C   UNL     1      -3.983   1.700   0.588  0.00  0.00    +0.005 C 
ATOM     22  N   UNL     1      -0.642   1.724  -1.216  0.00  0.00    +0.389 N 
ATOM     23  H   UNL     1      -0.645   2.732  -1.413  0.00  0.00    -0.080 HD
ENDBRANCH   1  22
BRANCH   1  24
ATOM     24  C   UNL     1       1.258   1.466  -2.707  0.00  0.00    +0.143 A 
ATOM     25  N   UNL     1       1.694   2.701  -2.698  0.00  0.00    -0.115 NA
ATOM     26  N   UNL     1       2.946   2.684  -3.004  0.00  0.00    -0.023 NA
ATOM     27  N   UNL     1       3.319   1.469  -3.209  0.00  0.00    -0.044 NA
ATOM     28  N   UNL     1       2.308   0.687  -3.030  0.00  0.00    -0.227 N 
BRANCH  28  29
ATOM     29  C   UNL     1       2.302  -0.772  -3.158  0.00  0.00    +0.111 C 
ATOM     30  C   UNL     1       3.294  -1.375  -2.162  0.00  0.00    +0.027 C 
ATOM     31  C   UNL     1       3.289  -2.899  -2.296  0.00  0.00    +0.002 C 
ATOM     32  C   UNL     1       3.695  -3.288  -3.719  0.00  0.00    +0.000 C 
ATOM     33  C   UNL     1       2.703  -2.685  -4.715  0.00  0.00    +0.002 C 
ATOM     34  C   UNL     1       2.709  -1.161  -4.581  0.00  0.00    +0.027 C 
ENDBRANCH  28  29
ENDBRANCH   1  24
TORSDOF 4
