REMARK  Name = ZINC38616588
REMARK  11 active torsions:
REMARK  status: ('A' for Active; 'I' for Inactive)
REMARK    1  A    between atoms: C_1  and  C_2
REMARK    2  A    between atoms: C_2  and  C_3
REMARK    3  A    between atoms: C_3  and  N_4
REMARK    4  A    between atoms: C_6  and  C_14
REMARK    5  A    between atoms: C_7  and  C_13
REMARK    6  A    between atoms: C_8  and  C_11
REMARK    7  A    between atoms: C_14  and  C_16
REMARK    8  A    between atoms: C_16  and  C_17
REMARK    9  A    between atoms: C_17  and  C_18
REMARK   10  A    between atoms: C_18  and  N_19
REMARK   11  A    between atoms: C_23  and  C_24
REMARK                            x       y       z     vdW  Elec       q    Type
REMARK                         _______ _______ _______ _____ _____    ______ ____
ROOT
ATOM      1  C   UNL     1      -2.875  -9.018  -1.946  0.00  0.00    +0.081 C 
ENDROOT
BRANCH   1   2
ATOM      2  C   UNL     1      -2.374  -7.665  -1.512  0.00  0.00    +0.169 C 
ATOM      3  O   UNL     1      -2.071  -6.835  -2.345  0.00  0.00    -0.292 OA
BRANCH   2   6
ATOM      4  N   UNL     1      -2.599  -8.003   2.193  0.00  0.00    -0.274 N 
ATOM      5  C   UNL     1      -2.700  -8.267   0.870  0.00  0.00    +0.265 A 
ATOM      6  C   UNL     1      -2.252  -7.351  -0.089  0.00  0.00    +0.086 A 
ATOM      7  C   UNL     1      -1.685  -6.128   0.316  0.00  0.00    -0.012 A 
ATOM      8  C   UNL     1      -1.582  -5.854   1.675  0.00  0.00    +0.120 A 
ATOM      9  C   UNL     1      -2.070  -6.846   2.635  0.00  0.00    +0.272 A 
ATOM     10  O   UNL     1      -1.994  -6.627   3.831  0.00  0.00    -0.266 OA
ATOM     11  C   UNL     1      -1.199  -5.133  -0.705  0.00  0.00    +0.046 C 
ATOM     12  O   UNL     1      -3.240  -9.433   0.468  0.00  0.00    -0.267 OA
BRANCH   8  13
ATOM     13  C   UNL     1      -1.011  -4.622   2.128  0.00  0.00    +0.105 C 
ATOM     14  N   UNL     1      -0.558  -3.644   2.488  0.00  0.00    -0.191 NA
ENDBRANCH   8  13
BRANCH   4  15
ATOM     15  C   UNL     1      -3.080  -8.990   3.163  0.00  0.00    +0.128 C 
BRANCH  15  17
ATOM     16  C   UNL     1      -5.058  -9.756   4.484  0.00  0.00    +0.005 C 
ATOM     17  C   UNL     1      -4.555  -8.725   3.472  0.00  0.00    +0.018 C 
ENDBRANCH  15  17
ENDBRANCH   4  15
ENDBRANCH   2   6
ENDBRANCH   1   2
BRANCH   1  18
ATOM     18  C   UNL     1      -2.769  -9.138  -3.467  0.00  0.00    +0.027 C 
BRANCH  18  19
ATOM     19  C   UNL     1      -3.277 -10.512  -3.908  0.00  0.00    +0.115 C 
BRANCH  19  20
ATOM     20  N   UNL     1      -3.175 -10.627  -5.364  0.00  0.00    -0.255 N 
ATOM     21  C   UNL     1      -4.194 -10.244  -6.115  0.00  0.00    +0.258 C 
ATOM     22  O   UNL     1      -5.216  -9.798  -5.628  0.00  0.00    -0.269 OA
ATOM     23  C   UNL     1      -4.029 -10.385  -7.577  0.00  0.00    +0.077 C 
ATOM     24  C   UNL     1      -4.891 -10.079  -8.579  0.00  0.00    +0.028 C 
ATOM     25  S   UNL     1      -2.379 -11.069  -7.662  0.00  0.00    -0.061 S 
ATOM     26  C   UNL     1      -2.043 -11.116  -5.909  0.00  0.00    +0.121 C 
ATOM     27  S   UNL     1      -0.626 -11.653  -5.113  0.00  0.00    -0.027 S 
BRANCH  24  28
ATOM     28  C   UNL     1      -4.602 -10.509  -9.954  0.00  0.00    -0.024 A 
ATOM     29  C   UNL     1      -3.545 -11.392 -10.208  0.00  0.00    +0.009 A 
ATOM     30  C   UNL     1      -3.281 -11.791 -11.500  0.00  0.00    +0.020 A 
ATOM     31  C   UNL     1      -4.057 -11.321 -12.547  0.00  0.00    +0.041 A 
ATOM     32  C   UNL     1      -5.104 -10.447 -12.304  0.00  0.00    +0.020 A 
ATOM     33  C   UNL     1      -5.385 -10.043 -11.016  0.00  0.00    +0.009 A 
ATOM     34 CL   UNL     1      -3.716 -11.829 -14.171  0.00  0.00    -0.084 Cl
ENDBRANCH  24  28
ENDBRANCH  19  20
ENDBRANCH  18  19
ENDBRANCH   1  18
TORSDOF 9
