REMARK  Name = ZINC05044929
REMARK  7 active torsions:
REMARK  status: ('A' for Active; 'I' for Inactive)
REMARK    1  A    between atoms: C_1  and  C_2
REMARK    2  A    between atoms: C_2  and  C_3
REMARK    3  A    between atoms: C_2  and  C_4
REMARK    4  A    between atoms: C_2  and  C_5
REMARK    5  A    between atoms: C_12  and  N_24
REMARK    6  A    between atoms: C_13  and  C_22
REMARK    7  A    between atoms: C_14  and  C_16
REMARK                            x       y       z     vdW  Elec       q    Type
REMARK                         _______ _______ _______ _____ _____    ______ ____
ROOT
ATOM      1  C   UNL     1       0.721  -0.532  -2.028  0.00  0.00    +0.076 A 
ATOM      2  C   UNL     1       0.860  -1.904  -2.193  0.00  0.00    +0.050 A 
ATOM      3  C   UNL     1       1.501  -2.125  -3.380  0.00  0.00    +0.222 A 
ATOM      4  N   UNL     1       1.751  -0.929  -3.935  0.00  0.00    -0.246 N 
ATOM      5  H   UNL     1       2.196  -0.774  -4.783  0.00  0.00    +0.192 HD
ATOM      6  N   UNL     1       1.250   0.059  -3.073  0.00  0.00    -0.175 NA
ATOM      7  O   UNL     1       1.792  -3.369  -3.834  0.00  0.00    -0.423 OA
ATOM      8  C   UNL     1       1.682  -4.393  -2.963  0.00  0.00    +0.200 C 
ATOM      9  C   UNL     1       1.061  -4.300  -1.767  0.00  0.00    +0.098 C 
ATOM     10  C   UNL     1       0.416  -3.023  -1.287  0.00  0.00    +0.101 C 
ENDROOT
BRANCH  10  11
ATOM     11  C   UNL     1      -1.084  -3.158  -1.341  0.00  0.00    -0.032 A 
ATOM     12  C   UNL     1      -1.746  -3.230  -2.557  0.00  0.00    +0.024 A 
ATOM     13  C   UNL     1      -3.123  -3.353  -2.568  0.00  0.00    +0.111 A 
ATOM     14  N   UNL     1      -3.804  -3.402  -1.440  0.00  0.00    -0.263 NA
ATOM     15  C   UNL     1      -3.208  -3.336  -0.266  0.00  0.00    +0.111 A 
ATOM     16  C   UNL     1      -1.833  -3.219  -0.177  0.00  0.00    +0.024 A 
ENDBRANCH  10  11
BRANCH   1  18
ATOM     17  C   UNL     1      -1.437  -0.101  -0.885  0.00  0.00    +0.017 C 
ATOM     18  C   UNL     1       0.071   0.157  -0.856  0.00  0.00    +0.007 C 
ATOM     19  C   UNL     1       0.333   1.662  -0.940  0.00  0.00    +0.017 C 
ATOM     20  C   UNL     1       0.658  -0.391   0.447  0.00  0.00    +0.017 C 
ENDBRANCH   1  18
BRANCH   8  21
ATOM     21  N   UNL     1       2.234  -5.601  -3.313  0.00  0.00    -0.328 N 
ATOM     22  H   UNL     1       2.687  -5.699  -4.165  0.00  0.00    +0.145 HD
ATOM     23  H   UNL     1       2.171  -6.356  -2.707  0.00  0.00    +0.145 HD
ENDBRANCH   8  21
BRANCH   9  24
ATOM     24  C   UNL     1       1.012  -5.456  -0.923  0.00  0.00    +0.101 C 
ATOM     25  N   UNL     1       0.973  -6.374  -0.254  0.00  0.00    -0.191 NA
ENDBRANCH   9  24
TORSDOF 4
