REMARK  Name = ZINC12158947
REMARK  9 active torsions:
REMARK  status: ('A' for Active; 'I' for Inactive)
REMARK    1  A    between atoms: C_1  and  C_2
REMARK    2  A    between atoms: C_6  and  C_8
REMARK    3  A    between atoms: C_8  and  N_62
REMARK    4  A    between atoms: C_10  and  S_29
REMARK    5  A    between atoms: C_13  and  C_15
REMARK    6  A    between atoms: N_17  and  C_18
REMARK    7  A    between atoms: N_17  and  C_19
REMARK    8  A    between atoms: C_19  and  C_20
REMARK    9  A    between atoms: S_29  and  C_30
REMARK                            x       y       z     vdW  Elec       q    Type
REMARK                         _______ _______ _______ _____ _____    ______ ____
ROOT
ATOM      1  C   UNL     1      -0.280   4.210  -1.301  0.00  0.00    -0.063 C 
ATOM      2  C   UNL     1      -0.992   3.878   0.028  0.00  0.00    +0.037 C 
ATOM      3  C   UNL     1      -2.194   4.843   0.091  0.00  0.00    +0.006 C 
ATOM      4  C   UNL     1      -2.107   5.678  -1.204  0.00  0.00    +0.021 C 
ATOM      5  N   UNL     1      -0.696   5.591  -1.575  0.00  0.00    +0.391 N 
ATOM      6  H   UNL     1      -0.144   6.244  -1.007  0.00  0.00    -0.080 HD
ENDROOT
BRANCH   4   7
ATOM      7  C   UNL     1      -2.514   7.104  -0.938  0.00  0.00    +0.202 C 
ATOM      8  O   UNL     1      -1.703   7.998  -1.059  0.00  0.00    -0.277 OA
ATOM      9  N   UNL     1      -3.778   7.387  -0.567  0.00  0.00    -0.301 N 
ATOM     10  C   UNL     1      -4.757   6.307  -0.422  0.00  0.00    +0.132 C 
BRANCH   9  11
ATOM     11  C   UNL     1      -4.174   8.773  -0.309  0.00  0.00    +0.149 C 
BRANCH  11  12
ATOM     12  C   UNL     1      -4.676   9.398  -1.585  0.00  0.00    +0.008 A 
ATOM     13  C   UNL     1      -5.929   9.417  -2.062  0.00  0.00    +0.021 A 
ATOM     14  C   UNL     1      -6.200  10.086  -3.326  0.00  0.00    -0.011 A 
ATOM     15  C   UNL     1      -7.433  10.229  -4.006  0.00  0.00    +0.009 A 
ATOM     16  C   UNL     1      -7.500  10.888  -5.193  0.00  0.00    +0.001 A 
ATOM     17  C   UNL     1      -6.370  11.443  -5.780  0.00  0.00    +0.001 A 
ATOM     18  C   UNL     1      -5.148  11.325  -5.148  0.00  0.00    +0.015 A 
ATOM     19  C   UNL     1      -5.067  10.659  -3.944  0.00  0.00    +0.020 A 
ATOM     20  S   UNL     1      -3.746  10.282  -2.822  0.00  0.00    -0.092 S 
ENDBRANCH  11  12
ENDBRANCH   9  11
ENDBRANCH   4   7
BRANCH   5  21
ATOM     21  C   UNL     1      -0.506   5.917  -3.024  0.00  0.00    -0.042 C 
BRANCH  21  27
ATOM     22  C   UNL     1      -5.053   5.679  -5.100  0.00  0.00    +0.044 C 
ATOM     23  C   UNL     1      -3.713   5.050  -4.817  0.00  0.00    -0.050 A 
ATOM     24  C   UNL     1      -3.430   3.783  -5.292  0.00  0.00    +0.003 A 
ATOM     25  C   UNL     1      -2.201   3.207  -5.034  0.00  0.00    +0.000 A 
ATOM     26  C   UNL     1      -1.253   3.899  -4.303  0.00  0.00    +0.002 A 
ATOM     27  C   UNL     1      -1.538   5.164  -3.824  0.00  0.00    -0.064 A 
ATOM     28  C   UNL     1      -2.767   5.741  -4.084  0.00  0.00    +0.005 A 
ENDBRANCH  21  27
ENDBRANCH   5  21
BRANCH   2  29
ATOM     29  S   UNL     1      -1.565   2.161   0.021  0.00  0.00    -0.085 S 
BRANCH  29  30
ATOM     30  C   UNL     1      -0.016   1.321   0.009  0.00  0.00    +0.188 A 
ATOM     31  N   UNL     1       1.104   2.030   0.002  0.00  0.00    -0.230 NA
ATOM     32  C   UNL     1       2.283   1.431  -0.012  0.00  0.00    +0.115 A 
ATOM     33  C   UNL     1       2.338   0.046  -0.020  0.00  0.00    +0.039 A 
ATOM     34  C   UNL     1       1.148  -0.664  -0.013  0.00  0.00    +0.115 A 
ATOM     35  N   UNL     1       0.002  -0.004   0.002  0.00  0.00    -0.230 NA
ENDBRANCH  29  30
ENDBRANCH   2  29
TORSDOF 7
