REMARK  Name = ZINC04044481
REMARK  11 active torsions:
REMARK  status: ('A' for Active; 'I' for Inactive)
REMARK    1  A    between atoms: C_1  and  C_2
REMARK    2  A    between atoms: C_2  and  C_3
REMARK    3  A    between atoms: C_3  and  C_4
REMARK    4  A    between atoms: C_4  and  C_5
REMARK    5  A    between atoms: C_5  and  C_6
REMARK    6  A    between atoms: C_6  and  O_7
REMARK    7  A    between atoms: O_7  and  C_8
REMARK    8  A    between atoms: C_11  and  N_14
REMARK    9  A    between atoms: C_18  and  N_67
REMARK   10  A    between atoms: N_24  and  C_27
REMARK   11  A    between atoms: C_30  and  N_33
REMARK                            x       y       z     vdW  Elec       q    Type
REMARK                         _______ _______ _______ _____ _____    ______ ____
ROOT
ATOM      1  N   UNL     1      -0.997  -0.737  -3.599  0.00  0.00    -0.212 N 
ATOM      2  C   UNL     1      -0.891   0.255  -4.492  0.00  0.00    +0.225 C 
ATOM      3  O   UNL     1      -1.062   0.146  -5.687  0.00  0.00    -0.275 OA
ATOM      4  C   UNL     1      -0.525   1.535  -3.772  0.00  0.00    +0.090 C 
ATOM      5  C   UNL     1      -0.437   1.106  -2.294  0.00  0.00    +0.029 C 
ATOM      6  C   UNL     1      -0.762  -0.371  -2.333  0.00  0.00    +0.213 C 
ATOM      7  O   UNL     1      -0.803  -1.107  -1.370  0.00  0.00    -0.277 OA
ENDROOT
BRANCH   5  13
ATOM      8  C   UNL     1      -1.047   3.244  -1.333  0.00  0.00    -0.059 C 
ATOM      9  C   UNL     1      -2.057   3.945  -0.421  0.00  0.00    +0.086 C 
ATOM     10  N   UNL     1      -3.402   3.822  -0.999  0.00  0.00    -0.333 N 
ATOM     11  C   UNL     1      -3.781   2.410  -1.151  0.00  0.00    +0.086 C 
ATOM     12  C   UNL     1      -2.771   1.709  -2.063  0.00  0.00    -0.059 C 
ATOM     13  N   UNL     1      -1.426   1.821  -1.459  0.00  0.00    +0.390 N 
ATOM     14  H   UNL     1      -1.444   1.396  -0.525  0.00  0.00    -0.081 HD
BRANCH  10  15
ATOM     15  C   UNL     1      -4.342   4.512  -0.230  0.00  0.00    +0.030 A 
ATOM     16  C   UNL     1      -5.455   3.848   0.270  0.00  0.00    +0.025 A 
ATOM     17  C   UNL     1      -6.380   4.531   1.035  0.00  0.00    +0.034 A 
ATOM     18  C   UNL     1      -6.204   5.878   1.294  0.00  0.00    +0.126 A 
ATOM     19  C   UNL     1      -5.100   6.544   0.794  0.00  0.00    +0.034 A 
ATOM     20  C   UNL     1      -4.169   5.865   0.033  0.00  0.00    +0.025 A 
BRANCH  18  21
ATOM     21  N   UNL     1      -7.200   6.609   2.109  0.00  0.00    +0.056 N 
ATOM     22  O   UNL     1      -7.047   7.796   2.338  0.00  0.00    -0.126 OA
ATOM     23  O   UNL     1      -8.173   6.025   2.550  0.00  0.00    -0.126 OA
ENDBRANCH  18  21
ENDBRANCH  10  15
ENDBRANCH   5  13
BRANCH   1  27
ATOM     24  C   UNL     1      -1.976  -4.647  -4.676  0.00  0.00    +0.121 A 
ATOM     25  C   UNL     1      -2.977  -3.697  -4.527  0.00  0.00    +0.047 A 
ATOM     26  C   UNL     1      -2.653  -2.403  -4.171  0.00  0.00    +0.027 A 
ATOM     27  C   UNL     1      -1.326  -2.052  -3.961  0.00  0.00    +0.044 A 
ATOM     28  C   UNL     1      -0.325  -3.001  -4.115  0.00  0.00    +0.027 A 
ATOM     29  C   UNL     1      -0.650  -4.297  -4.465  0.00  0.00    +0.047 A 
BRANCH  24  30
ATOM     30  O   UNL     1      -2.295  -5.921  -5.027  0.00  0.00    -0.492 OA
BRANCH  30  31
ATOM     31  C   UNL     1      -1.215  -6.846  -5.162  0.00  0.00    +0.229 C 
BRANCH  31  32
ATOM     32  C   UNL     1      -1.765  -8.218  -5.558  0.00  0.00    +0.041 C 
BRANCH  32  33
ATOM     33  C   UNL     1      -0.609  -9.209  -5.703  0.00  0.00    +0.003 C 
BRANCH  33  34
ATOM     34  C   UNL     1      -1.159 -10.580  -6.099  0.00  0.00    -0.000 C 
BRANCH  34  36
ATOM     35  C   UNL     1      -0.553 -12.943  -6.641  0.00  0.00    +0.004 C 
ATOM     36  C   UNL     1      -0.003 -11.572  -6.244  0.00  0.00    -0.003 C 
ENDBRANCH  34  36
ENDBRANCH  33  34
ENDBRANCH  32  33
ENDBRANCH  31  32
ENDBRANCH  30  31
ENDBRANCH  24  30
ENDBRANCH   1  27
TORSDOF 10
