REMARK  Name = ZINC12348738
REMARK  4 active torsions:
REMARK  status: ('A' for Active; 'I' for Inactive)
REMARK    1  A    between atoms: C_1  and  C_2
REMARK    2  A    between atoms: C_2  and  C_25
REMARK    3  A    between atoms: C_6  and  C_16
REMARK    4  A    between atoms: C_13  and  O_14
REMARK                            x       y       z     vdW  Elec       q    Type
REMARK                         _______ _______ _______ _____ _____    ______ ____
ROOT
ATOM      1  C   UNL     1      -0.752   3.122  -1.244  0.00  0.00    +0.011 C 
ATOM      2  C   UNL     1      -0.751   1.592  -1.233  0.00  0.00    -0.023 C 
ATOM      3  C   UNL     1      -0.013   1.086   0.008  0.00  0.00    +0.058 C 
ATOM      4  C   UNL     1      -0.719   1.573   1.253  0.00  0.00    +0.017 C 
ATOM      5  C   UNL     1      -2.055   1.760   1.262  0.00  0.00    +0.027 C 
ATOM      6  C   UNL     1      -2.803   2.217   2.496  0.00  0.00    +0.128 C 
ATOM      7  C   UNL     1      -1.829   2.742   3.513  0.00  0.00    +0.070 A 
ATOM      8  C   UNL     1      -0.480   2.529   3.414  0.00  0.00    +0.126 A 
ATOM      9  N   UNL     1       0.107   3.119   4.473  0.00  0.00    -0.260 N 
ATOM     10  H   UNL     1       1.087   3.130   4.673  0.00  0.00    +0.190 HD
ATOM     11  N   UNL     1      -0.902   3.715   5.245  0.00  0.00    -0.134 NA
ATOM     12  C   UNL     1      -2.060   3.486   4.665  0.00  0.00    +0.237 A 
ATOM     13  N   UNL     1       0.066   1.814   2.355  0.00  0.00    -0.303 N 
ATOM     14  C   UNL     1      -2.824   1.525   0.108  0.00  0.00    +0.162 C 
ATOM     15  O   UNL     1      -4.027   1.691   0.153  0.00  0.00    -0.292 OA
ATOM     16  C   UNL     1      -2.192   1.075  -1.179  0.00  0.00    +0.086 C 
ATOM     17  C   UNL     1      -0.060   1.067  -2.493  0.00  0.00    +0.011 C 
ATOM     18  H   UNL     1       0.980   1.492   2.393  0.00  0.00    +0.153 HD
ENDROOT
BRANCH   6  19
ATOM     19  C   UNL     1      -3.561   1.054   3.083  0.00  0.00    +0.119 A 
ATOM     20  N   UNL     1      -3.058   0.138   3.938  0.00  0.00    -0.348 N 
ATOM     21  H   UNL     1      -2.124   0.107   4.293  0.00  0.00    +0.167 HD
ATOM     22  C   UNL     1      -4.067  -0.742   4.227  0.00  0.00    +0.104 A 
ATOM     23  C   UNL     1      -5.150  -0.333   3.539  0.00  0.00    +0.130 A 
ATOM     24  N   UNL     1      -4.814   0.769   2.853  0.00  0.00    -0.240 NA
ENDBRANCH   6  19
BRANCH  12  25
ATOM     25  O   UNL     1      -3.274   3.905   5.114  0.00  0.00    -0.491 OA
ATOM     26  H   UNL     1      -3.155   4.420   5.963  0.00  0.00    +0.294 HD
ENDBRANCH  12  25
TORSDOF 2
