REMARK  Name = ZINC09953079
REMARK  11 active torsions:
REMARK  status: ('A' for Active; 'I' for Inactive)
REMARK    1  A    between atoms: C_1  and  C_2
REMARK    2  A    between atoms: C_2  and  C_4
REMARK    3  A    between atoms: C_2  and  N_70
REMARK    4  A    between atoms: C_7  and  S_16
REMARK    5  A    between atoms: N_8  and  C_9
REMARK    6  A    between atoms: S_16  and  C_17
REMARK    7  A    between atoms: C_17  and  C_19
REMARK    8  A    between atoms: C_17  and  C_20
REMARK    9  A    between atoms: N_22  and  C_23
REMARK   10  A    between atoms: C_23  and  C_24
REMARK   11  A    between atoms: C_24  and  C_25
REMARK                            x       y       z     vdW  Elec       q    Type
REMARK                         _______ _______ _______ _____ _____    ______ ____
ROOT
ATOM      1  C   UNL     1      -2.915   4.649  -1.720  0.00  0.00    +0.125 A 
ATOM      2  N   UNL     1      -2.982   3.353  -1.846  0.00  0.00    -0.135 NA
ATOM      3  N   UNL     1      -2.303   2.782  -0.917  0.00  0.00    -0.122 NA
ATOM      4  C   UNL     1      -1.766   3.689  -0.134  0.00  0.00    +0.197 A 
ATOM      5  N   UNL     1      -2.138   4.911  -0.623  0.00  0.00    -0.275 N 
ENDROOT
BRANCH   5   6
ATOM      6  C   UNL     1      -1.793   6.171  -0.110  0.00  0.00    +0.050 A 
ATOM      7  C   UNL     1      -2.777   7.005   0.402  0.00  0.00    +0.029 A 
ATOM      8  C   UNL     1      -2.436   8.242   0.912  0.00  0.00    +0.040 A 
ATOM      9  C   UNL     1      -1.114   8.655   0.902  0.00  0.00    +0.124 A 
ATOM     10  C   UNL     1      -0.132   7.826   0.387  0.00  0.00    +0.040 A 
ATOM     11  C   UNL     1      -0.469   6.586  -0.119  0.00  0.00    +0.029 A 
ATOM     12  F   UNL     1      -0.782   9.868   1.397  0.00  0.00    -0.205 F 
ENDBRANCH   5   6
BRANCH   1  14
ATOM     13  C   UNL     1      -5.072   5.719  -2.315  0.00  0.00    -0.005 C 
ATOM     14  C   UNL     1      -3.572   5.668  -2.614  0.00  0.00    -0.002 C 
BRANCH  14  20
ATOM     15  C   UNL     1      -1.935   5.138  -4.317  0.00  0.00    -0.078 C 
ATOM     16  C   UNL     1      -1.764   4.607  -5.742  0.00  0.00    -0.019 C 
ATOM     17  C   UNL     1      -2.406   5.589  -6.727  0.00  0.00    -0.004 C 
ATOM     18  C   UNL     1      -3.883   5.770  -6.365  0.00  0.00    -0.019 C 
ATOM     19  C   UNL     1      -3.992   6.267  -4.922  0.00  0.00    -0.078 C 
ATOM     20  N   UNL     1      -3.378   5.267  -4.022  0.00  0.00    +0.386 N 
ATOM     21  H   UNL     1      -3.832   4.358  -4.176  0.00  0.00    -0.081 HD
ENDBRANCH  14  20
ENDBRANCH   1  14
BRANCH   4  22
ATOM     22  S   UNL     1      -0.753   3.389   1.277  0.00  0.00    -0.073 S 
BRANCH  22  23
ATOM     23  C   UNL     1      -0.729   1.579   1.267  0.00  0.00    +0.137 C 
ATOM     24  C   UNL     1      -0.013   1.086   0.008  0.00  0.00    +0.029 C 
BRANCH  23  25
ATOM     25  C   UNL     1       0.000   1.080   2.488  0.00  0.00    +0.226 C 
ATOM     26  O   UNL     1       0.757   1.815   3.085  0.00  0.00    -0.275 OA
ATOM     27  N   UNL     1      -0.190  -0.184   2.916  0.00  0.00    -0.314 N 
ATOM     28  H   UNL     1      -0.795  -0.772   2.438  0.00  0.00    +0.149 HD
BRANCH  27  29
ATOM     29  C   UNL     1       0.519  -0.669   4.103  0.00  0.00    +0.108 C 
BRANCH  29  30
ATOM     30  C   UNL     1       0.129  -2.124   4.371  0.00  0.00    +0.049 C 
BRANCH  30  31
ATOM     31  C   UNL     1       0.857  -2.623   5.591  0.00  0.00    -0.072 C 
ATOM     32  C   UNL     1       0.246  -2.561   6.731  0.00  0.00    -0.028 C 
ATOM     33  C   UNL     1       0.845  -3.010   8.032  0.00  0.00    +0.027 C 
ATOM     34  C   UNL     1       2.053  -3.913   7.772  0.00  0.00    +0.004 C 
ATOM     35  C   UNL     1       2.970  -3.218   6.758  0.00  0.00    +0.005 C 
ATOM     36  C   UNL     1       2.244  -3.167   5.410  0.00  0.00    +0.030 C 
ENDBRANCH  30  31
ENDBRANCH  29  30
ENDBRANCH  27  29
ENDBRANCH  23  25
ENDBRANCH  22  23
ENDBRANCH   4  22
TORSDOF 9
