REMARK  Name = ZINC56223987
REMARK  5 active torsions:
REMARK  status: ('A' for Active; 'I' for Inactive)
REMARK    1  A    between atoms: C_1  and  C_2
REMARK    2  A    between atoms: C_7  and  C_8
REMARK    3  A    between atoms: N_10  and  C_11
REMARK    4  A    between atoms: C_14  and  C_17
REMARK    5  A    between atoms: N_19  and  C_20
REMARK                            x       y       z     vdW  Elec       q    Type
REMARK                         _______ _______ _______ _____ _____    ______ ____
ROOT
ATOM      1  C   UNL     1      -0.520  -2.478   3.147  0.00  0.00    +0.265 C 
ATOM      2  O   UNL     1      -1.038  -3.171   4.002  0.00  0.00    -0.268 OA
ATOM      3  N   UNL     1       0.055  -1.307   3.485  0.00  0.00    -0.280 N 
ATOM      4  H   UNL     1       0.526  -0.786   2.816  0.00  0.00    +0.155 HD
ENDROOT
BRANCH   1  11
ATOM      5  C   UNL     1      -1.772  -5.136   2.080  0.00  0.00    +0.047 C 
ATOM      6  C   UNL     1      -1.065  -4.078   1.272  0.00  0.00    -0.010 A 
ATOM      7  C   UNL     1      -0.845  -4.090  -0.110  0.00  0.00    +0.042 A 
ATOM      8  C   UNL     1      -0.155  -2.923  -0.439  0.00  0.00    +0.027 A 
ATOM      9  N   UNL     1       0.035  -2.229   0.684  0.00  0.00    -0.354 N 
ATOM     10  H   UNL     1       0.488  -1.373   0.744  0.00  0.00    +0.166 HD
ATOM     11  C   UNL     1      -0.519  -2.917   1.746  0.00  0.00    +0.106 A 
ATOM     12  C   UNL     1       0.265  -2.590  -1.848  0.00  0.00    +0.054 C 
ATOM     13  C   UNL     1       0.288  -3.873  -2.684  0.00  0.00    +0.014 C 
ATOM     14  C   UNL     1      -1.047  -4.616  -2.572  0.00  0.00    +0.080 C 
ATOM     15  C   UNL     1      -1.220  -5.079  -1.133  0.00  0.00    +0.165 C 
ATOM     16  O   UNL     1      -1.636  -6.182  -0.849  0.00  0.00    -0.292 OA
ENDBRANCH   1  11
BRANCH   3  17
ATOM     17  C   UNL     1      -0.028  -0.844   4.797  0.00  0.00    +0.034 A 
ATOM     18  C   UNL     1      -0.146   0.520   5.046  0.00  0.00    +0.024 A 
ATOM     19  C   UNL     1      -0.228   0.981   6.340  0.00  0.00    +0.015 A 
ATOM     20  C   UNL     1      -0.193   0.077   7.406  0.00  0.00    +0.037 A 
ATOM     21  C   UNL     1      -0.075  -1.293   7.152  0.00  0.00    +0.015 A 
ATOM     22  C   UNL     1       0.001  -1.747   5.855  0.00  0.00    +0.024 A 
BRANCH  20  23
ATOM     23  C   UNL     1      -0.281   0.567   8.795  0.00  0.00    +0.244 C 
ATOM     24  O   UNL     1      -0.383   1.758   9.014  0.00  0.00    -0.270 OA
ATOM     25  N   UNL     1      -0.247  -0.306   9.821  0.00  0.00    -0.308 N 
ATOM     26  H   UNL     1      -0.166  -1.257   9.646  0.00  0.00    +0.149 HD
BRANCH  25  27
ATOM     27  C   UNL     1      -0.334   0.180  11.200  0.00  0.00    +0.073 C 
ATOM     28  C   UNL     1       1.060   0.581  11.688  0.00  0.00    +0.022 C 
ATOM     29  C   UNL     1       0.969   1.089  13.128  0.00  0.00    +0.002 C 
ATOM     30  C   UNL     1       0.414  -0.018  14.026  0.00  0.00    +0.000 C 
ATOM     31  C   UNL     1      -0.980  -0.419  13.538  0.00  0.00    +0.002 C 
ATOM     32  C   UNL     1      -0.889  -0.927  12.098  0.00  0.00    +0.022 C 
ENDBRANCH  25  27
ENDBRANCH  20  23
ENDBRANCH   3  17
TORSDOF 4
