REMARK  Name = ZINC59170527
REMARK  8 active torsions:
REMARK  status: ('A' for Active; 'I' for Inactive)
REMARK    1  A    between atoms: C_1  and  C_2
REMARK    2  A    between atoms: C_2  and  O_3
REMARK    3  A    between atoms: O_3  and  C_4
REMARK    4  A    between atoms: N_12  and  C_13
REMARK    5  A    between atoms: C_16  and  S_19
REMARK    6  A    between atoms: S_19  and  N_22
REMARK    7  A    between atoms: C_23  and  C_25
REMARK    8  A    between atoms: N_27  and  C_28
REMARK                            x       y       z     vdW  Elec       q    Type
REMARK                         _______ _______ _______ _____ _____    ______ ____
ROOT
ATOM      1  C   UNL     1      -1.638  -1.471  -0.009  0.00  0.00    +0.163 A 
ATOM      2  C   UNL     1      -0.596  -2.028   0.714  0.00  0.00    +0.049 A 
ATOM      3  C   UNL     1      -0.825  -3.086   1.581  0.00  0.00    +0.004 A 
ATOM      4  C   UNL     1      -2.093  -3.601   1.734  0.00  0.00    +0.012 A 
ATOM      5  C   UNL     1      -3.158  -3.051   1.009  0.00  0.00    +0.022 A 
ATOM      6  C   UNL     1      -2.928  -1.972   0.137  0.00  0.00    +0.179 A 
ATOM      7  O   UNL     1      -3.961  -1.430  -0.554  0.00  0.00    -0.435 OA
ATOM      8  C   UNL     1      -5.012  -2.243  -0.829  0.00  0.00    +0.212 A 
ATOM      9  N   UNL     1      -5.611  -2.205  -2.000  0.00  0.00    -0.325 N 
ATOM     10  C   UNL     1      -5.463  -3.173   0.226  0.00  0.00    +0.098 A 
ATOM     11  C   UNL     1      -4.514  -3.585   1.149  0.00  0.00    +0.030 A 
ATOM     12  H   UNL     1      -6.288  -2.863  -2.220  0.00  0.00    +0.169 HD
ENDROOT
BRANCH   9  13
ATOM     13  C   UNL     1      -5.278  -1.236  -2.906  0.00  0.00    +0.042 A 
ATOM     14  C   UNL     1      -5.136   0.091  -2.494  0.00  0.00    +0.027 A 
ATOM     15  C   UNL     1      -4.800   1.063  -3.414  0.00  0.00    +0.030 A 
ATOM     16  C   UNL     1      -4.605   0.725  -4.742  0.00  0.00    +0.105 A 
ATOM     17  C   UNL     1      -4.745  -0.588  -5.157  0.00  0.00    +0.030 A 
ATOM     18  C   UNL     1      -5.074  -1.571  -4.247  0.00  0.00    +0.027 A 
BRANCH  16  19
ATOM     19  S   UNL     1      -4.177   1.973  -5.910  0.00  0.00    +0.056 S 
ATOM     20  O   UNL     1      -4.584   1.493  -7.184  0.00  0.00    -0.153 OA
ATOM     21  O   UNL     1      -4.642   3.205  -5.376  0.00  0.00    -0.153 OA
BRANCH  19  22
ATOM     22  N   UNL     1      -2.524   2.066  -5.944  0.00  0.00    -0.204 NA
ATOM     23  H   UNL     1      -1.994   1.484  -5.377  0.00  0.00    +0.144 HD
ATOM     24  H   UNL     1      -2.086   2.701  -6.532  0.00  0.00    +0.144 HD
ENDBRANCH  19  22
ENDBRANCH  16  19
ENDBRANCH   9  13
BRANCH  10  25
ATOM     25  C   UNL     1      -6.854  -3.651   0.286  0.00  0.00    +0.253 C 
ATOM     26  O   UNL     1      -7.166  -4.517   1.081  0.00  0.00    -0.270 OA
ATOM     27  N   UNL     1      -7.782  -3.127  -0.539  0.00  0.00    -0.281 N 
ATOM     28  H   UNL     1      -7.524  -2.475  -1.209  0.00  0.00    +0.155 HD
BRANCH  27  29
ATOM     29  C   UNL     1      -9.119  -3.525  -0.429  0.00  0.00    +0.034 A 
ATOM     30  C   UNL     1      -9.430  -4.835  -0.090  0.00  0.00    +0.025 A 
ATOM     31  C   UNL     1     -10.751  -5.224   0.018  0.00  0.00    +0.022 A 
ATOM     32  C   UNL     1     -11.764  -4.310  -0.211  0.00  0.00    +0.041 A 
ATOM     33  C   UNL     1     -11.457  -3.004  -0.550  0.00  0.00    +0.022 A 
ATOM     34  C   UNL     1     -10.138  -2.608  -0.654  0.00  0.00    +0.025 A 
ATOM     35 CL   UNL     1     -13.423  -4.803  -0.075  0.00  0.00    -0.084 Cl
ENDBRANCH  27  29
ENDBRANCH  10  25
BRANCH   1  36
ATOM     36  O   UNL     1      -1.401  -0.434  -0.856  0.00  0.00    -0.489 OA
BRANCH  36  38
ATOM     37  C   UNL     1       0.017   1.190  -1.947  0.00  0.00    +0.048 C 
ATOM     38  C   UNL     1      -0.052   0.028  -0.955  0.00  0.00    +0.226 C 
ENDBRANCH  36  38
ENDBRANCH   1  36
TORSDOF 7
