REMARK  Name = ZINC40679772
REMARK  6 active torsions:
REMARK  status: ('A' for Active; 'I' for Inactive)
REMARK    1  A    between atoms: C_1  and  C_2
REMARK    2  A    between atoms: C_2  and  N_3
REMARK    3  A    between atoms: N_3  and  C_4
REMARK    4  A    between atoms: C_11  and  N_29
REMARK    5  A    between atoms: C_12  and  N_16
REMARK    6  A    between atoms: N_19  and  C_22
REMARK                            x       y       z     vdW  Elec       q    Type
REMARK                         _______ _______ _______ _____ _____    ______ ____
ROOT
ATOM      1  N   UNL     1      -1.345  -0.492   0.043  0.00  0.00    -0.285 N 
ATOM      2  C   UNL     1      -1.995  -0.748   1.246  0.00  0.00    +0.129 A 
ATOM      3  C   UNL     1      -3.278  -1.298   1.256  0.00  0.00    +0.104 A 
ATOM      4  C   UNL     1      -3.884  -1.535   2.491  0.00  0.00    +0.147 A 
ATOM      5  N   UNL     1      -3.220  -1.229   3.604  0.00  0.00    -0.221 NA
ATOM      6  C   UNL     1      -2.010  -0.711   3.550  0.00  0.00    +0.200 A 
ATOM      7  N   UNL     1      -1.400  -0.477   2.406  0.00  0.00    -0.332 N 
ATOM      8  H   UNL     1      -0.507  -0.098   2.409  0.00  0.00    +0.168 HD
ENDROOT
BRANCH   1   9
ATOM      9  C   UNL     1      -1.407   0.783  -0.526  0.00  0.00    +0.035 A 
ATOM     10  C   UNL     1      -2.202   1.766   0.050  0.00  0.00    +0.023 A 
ATOM     11  C   UNL     1      -2.260   3.024  -0.515  0.00  0.00    +0.002 A 
ATOM     12  C   UNL     1      -1.527   3.307  -1.653  0.00  0.00    +0.000 A 
ATOM     13  C   UNL     1      -0.734   2.332  -2.229  0.00  0.00    +0.002 A 
ATOM     14  C   UNL     1      -0.667   1.072  -1.666  0.00  0.00    +0.023 A 
ENDBRANCH   1   9
BRANCH   4  15
ATOM     15  N   UNL     1      -5.160  -2.081   2.558  0.00  0.00    -0.311 N 
ATOM     16  C   UNL     1      -5.354  -3.537   2.513  0.00  0.00    +0.125 C 
ATOM     17  C   UNL     1      -6.155  -3.963   3.749  0.00  0.00    +0.124 C 
ATOM     18  N   UNL     1      -7.335  -3.094   3.866  0.00  0.00    -0.325 N 
ATOM     19  C   UNL     1      -7.141  -1.638   3.911  0.00  0.00    +0.124 C 
ATOM     20  C   UNL     1      -6.339  -1.212   2.681  0.00  0.00    +0.125 C 
BRANCH  18  21
ATOM     21  C   UNL     1      -8.620  -3.644   3.933  0.00  0.00    +0.065 A 
ATOM     22  C   UNL     1      -9.178  -3.960   5.165  0.00  0.00    +0.026 A 
ATOM     23  C   UNL     1     -10.447  -4.502   5.228  0.00  0.00    +0.002 A 
ATOM     24  C   UNL     1     -11.162  -4.730   4.067  0.00  0.00    +0.003 A 
ATOM     25  C   UNL     1     -10.611  -4.417   2.838  0.00  0.00    +0.040 A 
ATOM     26  C   UNL     1      -9.343  -3.869   2.767  0.00  0.00    +0.144 A 
ATOM     27  F   UNL     1      -8.806  -3.557   1.567  0.00  0.00    -0.204 F 
ENDBRANCH  18  21
ENDBRANCH   4  15
BRANCH   3  28
ATOM     28  N   UNL     1      -3.941  -1.604   0.057  0.00  0.00    -0.353 N 
ATOM     29  H   UNL     1      -3.481  -1.502  -0.791  0.00  0.00    +0.143 HD
ATOM     30  H   UNL     1      -4.858  -1.917   0.076  0.00  0.00    +0.143 HD
ENDBRANCH   3  28
BRANCH   1  32
ATOM     31  C   UNL     1       0.852  -1.550  -0.137  0.00  0.00    +0.025 C 
ATOM     32  C   UNL     1      -0.597  -1.558  -0.627  0.00  0.00    +0.109 C 
ENDBRANCH   1  32
TORSDOF 5
