REMARK  Name = ZINC00682635
REMARK  5 active torsions:
REMARK  status: ('A' for Active; 'I' for Inactive)
REMARK    1  A    between atoms: C_1  and  C_2
REMARK    2  A    between atoms: C_2  and  C_36
REMARK    3  A    between atoms: C_6  and  C_24
REMARK    4  A    between atoms: C_16  and  C_18
REMARK    5  A    between atoms: C_27  and  N_30
REMARK                            x       y       z     vdW  Elec       q    Type
REMARK                         _______ _______ _______ _____ _____    ______ ____
ROOT
ATOM      1  C   UNL     1       2.900   3.583   2.074  0.00  0.00    +0.011 C 
ATOM      2  C   UNL     1       3.810   2.831   1.100  0.00  0.00    -0.023 C 
ATOM      3  C   UNL     1       3.361   3.094  -0.336  0.00  0.00    +0.058 C 
ATOM      4  C   UNL     1       1.931   2.618  -0.531  0.00  0.00    +0.017 C 
ATOM      5  C   UNL     1       1.462   1.568   0.163  0.00  0.00    +0.037 C 
ATOM      6  C   UNL     1       0.068   0.994   0.066  0.00  0.00    +0.147 C 
ATOM      7  N   UNL     1      -0.710   1.495  -1.047  0.00  0.00    -0.254 N 
ATOM      8  C   UNL     1      -1.071   2.840  -1.120  0.00  0.00    +0.059 A 
ATOM      9  C   UNL     1      -2.396   3.237  -1.011  0.00  0.00    +0.025 A 
ATOM     10  C   UNL     1      -2.703   4.586  -1.007  0.00  0.00    +0.002 A 
ATOM     11  C   UNL     1      -1.701   5.534  -1.111  0.00  0.00    +0.002 A 
ATOM     12  C   UNL     1      -0.380   5.141  -1.244  0.00  0.00    +0.025 A 
ATOM     13  C   UNL     1      -0.074   3.792  -1.268  0.00  0.00    +0.053 A 
ATOM     14  N   UNL     1       1.222   3.324  -1.450  0.00  0.00    -0.316 N 
ATOM     15  C   UNL     1      -1.089   0.651  -2.026  0.00  0.00    +0.252 C 
ATOM     16  O   UNL     1      -0.872  -0.541  -1.920  0.00  0.00    -0.270 OA
ATOM     17  C   UNL     1       2.295   0.892   1.086  0.00  0.00    +0.163 C 
ATOM     18  O   UNL     1       1.851  -0.069   1.683  0.00  0.00    -0.292 OA
ATOM     19  C   UNL     1       3.706   1.322   1.353  0.00  0.00    +0.086 C 
ATOM     20  C   UNL     1       5.258   3.289   1.284  0.00  0.00    +0.011 C 
ATOM     21  H   UNL     1       1.654   3.517  -2.297  0.00  0.00    +0.152 HD
ENDROOT
BRANCH  15  22
ATOM     22  C   UNL     1      -1.769   1.173  -3.231  0.00  0.00    +0.037 A 
ATOM     23  C   UNL     1      -2.757   0.416  -3.862  0.00  0.00    +0.013 A 
ATOM     24  C   UNL     1      -3.391   0.912  -4.982  0.00  0.00    +0.001 A 
ATOM     25  C   UNL     1      -3.042   2.152  -5.486  0.00  0.00    +0.000 A 
ATOM     26  C   UNL     1      -2.061   2.906  -4.868  0.00  0.00    +0.001 A 
ATOM     27  C   UNL     1      -1.422   2.424  -3.744  0.00  0.00    +0.013 A 
ENDBRANCH  15  22
BRANCH   6  28
ATOM     28  C   UNL     1      -0.669   1.310   1.341  0.00  0.00    -0.022 A 
ATOM     29  C   UNL     1      -0.779   2.620   1.770  0.00  0.00    +0.008 A 
ATOM     30  C   UNL     1      -1.460   2.911   2.937  0.00  0.00    +0.033 A 
ATOM     31  C   UNL     1      -2.021   1.891   3.682  0.00  0.00    +0.126 A 
ATOM     32  C   UNL     1      -1.907   0.581   3.257  0.00  0.00    +0.033 A 
ATOM     33  C   UNL     1      -1.231   0.290   2.087  0.00  0.00    +0.008 A 
BRANCH  31  34
ATOM     34  N   UNL     1      -2.745   2.202   4.936  0.00  0.00    +0.056 N 
ATOM     35  O   UNL     1      -3.239   1.303   5.592  0.00  0.00    -0.126 OA
ATOM     36  O   UNL     1      -2.845   3.356   5.310  0.00  0.00    -0.126 OA
ENDBRANCH  31  34
ENDBRANCH   6  28
TORSDOF 3
