REMARK  Name = ZINC66057861
REMARK  5 active torsions:
REMARK  status: ('A' for Active; 'I' for Inactive)
REMARK    1  A    between atoms: C_1  and  C_2
REMARK    2  A    between atoms: C_2  and  C_3
REMARK    3  A    between atoms: C_8  and  N_9
REMARK    4  A    between atoms: C_10  and  C_12
REMARK    5  A    between atoms: C_12  and  N_13
REMARK                            x       y       z     vdW  Elec       q    Type
REMARK                         _______ _______ _______ _____ _____    ______ ____
ROOT
ATOM      1  N   UNL     1       6.362  -0.515   0.938  0.00  0.00    -0.215 N 
ATOM      2  C   UNL     1       6.925  -1.726   1.130  0.00  0.00    +0.247 C 
ATOM      3  O   UNL     1       6.378  -2.738   1.512  0.00  0.00    -0.273 OA
ATOM      4  C   UNL     1       8.382  -1.555   0.767  0.00  0.00    +0.117 C 
ATOM      5  C   UNL     1       9.270  -1.841   1.976  0.00  0.00    +0.040 C 
ATOM      6  C   UNL     1       8.921  -3.227   2.518  0.00  0.00    +0.038 C 
ATOM      7  C   UNL     1       8.928  -4.248   1.411  0.00  0.00    -0.044 A 
ATOM      8  C   UNL     1       9.020  -5.587   1.770  0.00  0.00    +0.004 A 
ATOM      9  C   UNL     1       9.027  -6.573   0.805  0.00  0.00    +0.000 A 
ATOM     10  C   UNL     1       8.939  -6.227  -0.531  0.00  0.00    +0.000 A 
ATOM     11  C   UNL     1       8.849  -4.898  -0.889  0.00  0.00    +0.004 A 
ATOM     12  C   UNL     1       8.847  -3.904   0.081  0.00  0.00    -0.042 A 
ATOM     13  C   UNL     1       8.765  -2.472  -0.383  0.00  0.00    +0.070 C 
ATOM     14  N   UNL     1       8.489  -0.146   0.372  0.00  0.00    -0.285 N 
ATOM     15  C   UNL     1       7.256   0.381   0.502  0.00  0.00    +0.310 C 
ATOM     16  O   UNL     1       6.987   1.540   0.253  0.00  0.00    -0.252 OA
ATOM     17  H   UNL     1       9.290   0.315   0.075  0.00  0.00    +0.151 HD
ENDROOT
BRANCH   1  18
ATOM     18  C   UNL     1       4.947  -0.219   1.171  0.00  0.00    +0.214 C 
BRANCH  18  20
ATOM     19  N   UNL     1       2.833  -0.268  -0.113  0.00  0.00    -0.284 N 
ATOM     20  C   UNL     1       4.165  -0.474  -0.091  0.00  0.00    +0.235 C 
ATOM     21  O   UNL     1       4.734  -0.865  -1.088  0.00  0.00    -0.274 OA
ATOM     22  H   UNL     1       2.388   0.106   0.663  0.00  0.00    +0.155 HD
BRANCH  19  28
ATOM     23  C   UNL     1       0.800  -1.084  -1.129  0.00  0.00    -0.026 A 
ATOM     24  C   UNL     1       0.070  -1.399  -2.258  0.00  0.00    +0.005 A 
ATOM     25  C   UNL     1       0.627  -1.234  -3.513  0.00  0.00    +0.000 A 
ATOM     26  C   UNL     1       1.917  -0.751  -3.641  0.00  0.00    +0.002 A 
ATOM     27  C   UNL     1       2.652  -0.433  -2.516  0.00  0.00    +0.023 A 
ATOM     28  C   UNL     1       2.093  -0.594  -1.255  0.00  0.00    +0.037 A 
BRANCH  23  30
ATOM     29  C   UNL     1      -0.422   0.058   0.702  0.00  0.00    +0.009 C 
ATOM     30  C   UNL     1       0.191  -1.265   0.238  0.00  0.00    +0.033 C 
ENDBRANCH  23  30
ENDBRANCH  19  28
ENDBRANCH  18  20
ENDBRANCH   1  18
TORSDOF 4
