REMARK  Name = ZINC34686447
REMARK  12 active torsions:
REMARK  status: ('A' for Active; 'I' for Inactive)
REMARK    1  A    between atoms: C_1  and  C_2
REMARK    2  A    between atoms: C_2  and  C_3
REMARK    3  A    between atoms: C_3  and  C_5
REMARK    4  A    between atoms: C_3  and  O_13
REMARK    5  A    between atoms: N_7  and  C_8
REMARK    6  A    between atoms: C_8  and  C_9
REMARK    7  A    between atoms: C_9  and  N_10
REMARK    8  A    between atoms: N_10  and  C_11
REMARK    9  A    between atoms: N_10  and  C_12
REMARK   10  A    between atoms: O_13  and  C_14
REMARK   11  A    between atoms: C_20  and  C_32
REMARK   12  A    between atoms: C_25  and  C_27
REMARK                            x       y       z     vdW  Elec       q    Type
REMARK                         _______ _______ _______ _____ _____    ______ ____
ROOT
ATOM      1  C   UNL     1       1.378   1.283   3.332  0.00  0.00    +0.122 A 
ATOM      2  C   UNL     1       2.300   2.272   3.018  0.00  0.00    +0.046 A 
ATOM      3  C   UNL     1       2.305   3.453   3.729  0.00  0.00    +0.007 A 
ATOM      4  C   UNL     1       1.394   3.665   4.758  0.00  0.00    -0.040 A 
ATOM      5  C   UNL     1       0.473   2.688   5.063  0.00  0.00    -0.016 A 
ATOM      6  C   UNL     1       0.466   1.497   4.351  0.00  0.00    +0.051 A 
ATOM      7  C   UNL     1      -0.562   2.865   6.146  0.00  0.00    +0.137 C 
ATOM      8  N   UNL     1      -0.239   4.050   6.949  0.00  0.00    -0.290 N 
ATOM      9  C   UNL     1       0.160   5.268   6.224  0.00  0.00    +0.113 C 
ATOM     10  C   UNL     1       1.472   4.974   5.498  0.00  0.00    +0.054 C 
ATOM     11  C   UNL     1      -0.307   4.025   8.294  0.00  0.00    +0.219 C 
ATOM     12  O   UNL     1      -0.716   3.035   8.863  0.00  0.00    -0.275 OA
ENDROOT
BRANCH   7  13
ATOM     13  C   UNL     1      -0.572   1.647   7.034  0.00  0.00    -0.022 A 
ATOM     14  C   UNL     1       0.506   1.385   7.859  0.00  0.00    +0.008 A 
ATOM     15  C   UNL     1       0.498   0.268   8.673  0.00  0.00    +0.038 A 
ATOM     16  C   UNL     1      -0.591  -0.587   8.663  0.00  0.00    +0.123 A 
ATOM     17  C   UNL     1      -1.670  -0.323   7.837  0.00  0.00    +0.038 A 
ATOM     18  C   UNL     1      -1.662   0.797   7.027  0.00  0.00    +0.008 A 
ATOM     19  F   UNL     1      -0.600  -1.679   9.459  0.00  0.00    -0.205 F 
ENDBRANCH   7  13
BRANCH  11  20
ATOM     20  C   UNL     1       0.126   5.227   9.093  0.00  0.00    +0.075 C 
ATOM     21  C   UNL     1       1.627   5.501   8.864  0.00  0.00    +0.013 C 
ATOM     22  C   UNL     1       2.143   5.970  10.247  0.00  0.00    +0.001 C 
ATOM     23  C   UNL     1       1.356   5.066  11.229  0.00  0.00    +0.001 C 
ATOM     24  C   UNL     1      -0.046   4.951  10.597  0.00  0.00    +0.013 C 
ENDBRANCH  11  20
BRANCH   1  25
ATOM     25  O   UNL     1       1.369   0.114   2.640  0.00  0.00    -0.480 OA
BRANCH  25  26
ATOM     26  C   UNL     1       2.398  -0.073   1.667  0.00  0.00    +0.258 C 
BRANCH  26  27
ATOM     27  C   UNL     1       2.861  -1.507   1.694  0.00  0.00    +0.254 C 
ATOM     28  O   UNL     1       2.298  -2.313   2.404  0.00  0.00    -0.272 OA
ATOM     29  N   UNL     1       3.900  -1.894   0.928  0.00  0.00    -0.314 N 
ATOM     30  H   UNL     1       4.350  -1.250   0.359  0.00  0.00    +0.149 HD
BRANCH  29  31
ATOM     31  C   UNL     1       4.349  -3.288   0.954  0.00  0.00    +0.086 C 
BRANCH  31  32
ATOM     32  C   UNL     1       5.535  -3.459   0.001  0.00  0.00    -0.061 C 
BRANCH  32  33
ATOM     33  N   UNL     1       5.986  -4.857   0.027  0.00  0.00    +0.377 N 
ATOM     34  C   UNL     1       7.044  -5.049  -0.974  0.00  0.00    -0.097 C 
ATOM     35  C   UNL     1       6.510  -5.178   1.362  0.00  0.00    -0.097 C 
ATOM     36  H   UNL     1       5.209  -5.465  -0.184  0.00  0.00    -0.083 HD
ENDBRANCH  32  33
ENDBRANCH  31  32
ENDBRANCH  29  31
ENDBRANCH  26  27
BRANCH  26  38
ATOM     37  C   UNL     1       1.498   1.748   0.212  0.00  0.00    +0.008 C 
ATOM     38  C   UNL     1       1.852   0.261   0.277  0.00  0.00    +0.051 C 
ENDBRANCH  26  38
ENDBRANCH  25  26
ENDBRANCH   1  25
TORSDOF 9
