REMARK  Name = ZINC36618560
REMARK  6 active torsions:
REMARK  status: ('A' for Active; 'I' for Inactive)
REMARK    1  A    between atoms: C_1  and  C_2
REMARK    2  A    between atoms: N_5  and  C_7
REMARK    3  A    between atoms: C_7  and  C_8
REMARK    4  A    between atoms: C_8  and  N_9
REMARK    5  A    between atoms: C_12  and  C_19
REMARK    6  A    between atoms: C_14  and  C_16
REMARK                            x       y       z     vdW  Elec       q    Type
REMARK                         _______ _______ _______ _____ _____    ______ ____
ROOT
ATOM      1  N   UNL     1       1.260  -4.391   3.308  0.00  0.00    -0.312 N 
ATOM      2  C   UNL     1       2.249  -4.534   4.267  0.00  0.00    +0.216 A 
ATOM      3  N   UNL     1       2.255  -5.615   5.031  0.00  0.00    -0.214 NA
ATOM      4  C   UNL     1       3.192  -5.782   5.962  0.00  0.00    +0.076 A 
ATOM      5  C   UNL     1       4.171  -4.798   6.120  0.00  0.00    +0.057 A 
ATOM      6  C   UNL     1       4.127  -3.685   5.300  0.00  0.00    +0.112 A 
ATOM      7  N   UNL     1       3.168  -3.588   4.392  0.00  0.00    -0.214 NA
ATOM      8  H   UNL     1       0.581  -5.076   3.206  0.00  0.00    +0.149 HD
ENDROOT
BRANCH   4   9
ATOM      9  C   UNL     1       3.196  -6.993   6.817  0.00  0.00    +0.001 A 
ATOM     10  C   UNL     1       4.178  -7.156   7.793  0.00  0.00    +0.011 A 
ATOM     11  C   UNL     1       4.176  -8.285   8.587  0.00  0.00    +0.016 A 
ATOM     12  C   UNL     1       3.203  -9.254   8.415  0.00  0.00    +0.018 A 
ATOM     13  C   UNL     1       2.226  -9.096   7.447  0.00  0.00    +0.016 A 
ATOM     14  C   UNL     1       2.214  -7.969   6.652  0.00  0.00    +0.011 A 
ATOM     15 BR   UNL     1       3.207 -10.798   9.507  0.00  0.00    -0.050 Br
ENDBRANCH   4   9
BRANCH   6  16
ATOM     16  C   UNL     1       5.162  -2.598   5.434  0.00  0.00    +0.390 C 
ATOM     17  F   UNL     1       4.598  -1.370   5.070  0.00  0.00    -0.202 F 
ATOM     18  F   UNL     1       5.602  -2.534   6.760  0.00  0.00    -0.202 F 
ENDBRANCH   6  16
BRANCH   1  19
ATOM     19  C   UNL     1       1.240  -3.205   2.448  0.00  0.00    +0.127 C 
BRANCH  19  20
ATOM     20  C   UNL     1       0.055  -3.295   1.485  0.00  0.00    +0.162 C 
BRANCH  20  25
ATOM     21  C   UNL     1      -0.018   1.503   0.010  0.00  0.00    +0.067 C 
ATOM     22  C   UNL     1       0.002  -0.004   0.002  0.00  0.00    +0.060 A 
ATOM     23  C   UNL     1       0.008  -0.818  -1.135  0.00  0.00    +0.044 A 
ATOM     24  C   UNL     1       0.028  -2.107  -0.725  0.00  0.00    +0.108 A 
ATOM     25  N   UNL     1       0.034  -2.109   0.625  0.00  0.00    -0.270 N 
ATOM     26  N   UNL     1       0.023  -0.777   1.058  0.00  0.00    -0.176 NA
ENDBRANCH  20  25
ENDBRANCH  19  20
ENDBRANCH   1  19
TORSDOF 5
