REMARK  Name = ZINC43750475
REMARK  13 active torsions:
REMARK  status: ('A' for Active; 'I' for Inactive)
REMARK    1  A    between atoms: C_1  and  C_2
REMARK    2  A    between atoms: C_2  and  C_4
REMARK    3  A    between atoms: C_2  and  C_10
REMARK    4  A    between atoms: C_4  and  C_5
REMARK    5  A    between atoms: C_5  and  C_6
REMARK    6  A    between atoms: C_6  and  O_8
REMARK    7  A    between atoms: O_8  and  C_9
REMARK    8  A    between atoms: C_16  and  C_45
REMARK    9  A    between atoms: C_17  and  O_44
REMARK   10  A    between atoms: C_28  and  C_43
REMARK   11  A    between atoms: C_31  and  O_34
REMARK   12  A    between atoms: O_34  and  C_35
REMARK   13  A    between atoms: C_35  and  C_37
REMARK                            x       y       z     vdW  Elec       q    Type
REMARK                         _______ _______ _______ _____ _____    ______ ____
ROOT
ATOM      1  C   UNL     1       0.764  -0.418   1.262  0.00  0.00    +0.001 C 
ATOM      2  C   UNL     1      -0.052  -0.056   2.517  0.00  0.00    +0.005 C 
ATOM      3  C   UNL     1      -0.296  -1.378   3.281  0.00  0.00    +0.005 C 
ATOM      4  C   UNL     1       0.843  -2.291   2.790  0.00  0.00    +0.001 C 
ATOM      5  C   UNL     1       0.951  -1.958   1.291  0.00  0.00    +0.000 C 
ATOM      6  C   UNL     1      -0.226  -2.557   0.518  0.00  0.00    +0.121 C 
ATOM      7  C   UNL     1      -0.338  -4.057   0.781  0.00  0.00    +0.036 C 
ATOM      8  C   UNL     1      -0.615  -4.273   2.273  0.00  0.00    +0.001 C 
ATOM      9  C   UNL     1       0.571  -3.751   3.054  0.00  0.00    -0.004 C 
ATOM     10  C   UNL     1       0.318  -3.988   4.545  0.00  0.00    +0.004 C 
ATOM     11  C   UNL     1       0.128  -5.485   4.799  0.00  0.00    +0.004 C 
ATOM     12  C   UNL     1      -1.067  -5.994   3.990  0.00  0.00    -0.001 C 
ATOM     13  C   UNL     1      -0.811  -5.767   2.538  0.00  0.00    -0.026 C 
ATOM     14  C   UNL     1      -2.017  -6.272   1.742  0.00  0.00    +0.011 C 
ATOM     15  C   UNL     1      -3.270  -5.508   2.174  0.00  0.00    +0.045 C 
ATOM     16  C   UNL     1      -3.514  -5.733   3.668  0.00  0.00    +0.177 C 
ATOM     17  C   UNL     1      -2.329  -5.241   4.416  0.00  0.00    +0.048 C 
ATOM     18  C   UNL     1       0.442  -6.531   2.106  0.00  0.00    +0.012 C 
ATOM     19  C   UNL     1       2.301  -2.382   0.708  0.00  0.00    +0.014 C 
ENDROOT
BRANCH   1  21
ATOM     20  C   UNL     1      -0.449   1.452   0.133  0.00  0.00    +0.008 C 
ATOM     21  C   UNL     1       0.002  -0.004   0.002  0.00  0.00    -0.010 C 
BRANCH  21  22
ATOM     22  C   UNL     1       0.916  -0.147  -1.217  0.00  0.00    +0.014 C 
BRANCH  22  23
ATOM     23  C   UNL     1       0.110   0.108  -2.492  0.00  0.00    +0.121 C 
BRANCH  23  24
ATOM     24  C   UNL     1       1.010  -0.033  -3.692  0.00  0.00    +0.307 C 
ATOM     25  O   UNL     1       2.177  -0.308  -3.543  0.00  0.00    -0.251 OA
BRANCH  24  26
ATOM     26  O   UNL     1       0.515   0.148  -4.927  0.00  0.00    -0.468 OA
ATOM     27  C   UNL     1       1.425  -0.001  -6.018  0.00  0.00    +0.280 C 
ENDBRANCH  24  26
ENDBRANCH  23  24
ENDBRANCH  22  23
ENDBRANCH  21  22
ENDBRANCH   1  21
BRANCH   6  28
ATOM     28  O   UNL     1      -0.032  -2.339  -0.880  0.00  0.00    -0.391 OA
ATOM     29  H   UNL     1      -0.740  -2.692  -1.436  0.00  0.00    +0.210 HD
ENDBRANCH   6  28
BRANCH  16  30
ATOM     30  O   UNL     1      -3.698  -7.128   3.916  0.00  0.00    -0.458 OA
BRANCH  30  31
ATOM     31  C   UNL     1      -4.957  -7.601   3.847  0.00  0.00    +0.339 C 
ATOM     32  O   UNL     1      -5.875  -6.850   3.584  0.00  0.00    -0.245 OA
BRANCH  31  33
ATOM     33  C   UNL     1      -5.222  -9.034   4.091  0.00  0.00    +0.059 A 
ATOM     34  C   UNL     1      -4.171  -9.899   4.399  0.00  0.00    +0.015 A 
ATOM     35  C   UNL     1      -4.426 -11.236   4.627  0.00  0.00    +0.001 A 
ATOM     36  C   UNL     1      -5.720 -11.719   4.550  0.00  0.00    +0.000 A 
ATOM     37  C   UNL     1      -6.766 -10.867   4.244  0.00  0.00    +0.001 A 
ATOM     38  C   UNL     1      -6.527  -9.527   4.021  0.00  0.00    +0.015 A 
ENDBRANCH  31  33
ENDBRANCH  30  31
ENDBRANCH  16  30
TORSDOF 9
