REMARK  Name = ZINC15673669
REMARK  8 active torsions:
REMARK  status: ('A' for Active; 'I' for Inactive)
REMARK    1  A    between atoms: C_4  and  C_7
REMARK    2  A    between atoms: C_7  and  N_8
REMARK    3  A    between atoms: C_14  and  C_16
REMARK    4  A    between atoms: C_16  and  C_17
REMARK    5  A    between atoms: C_23  and  C_25
REMARK    6  A    between atoms: C_25  and  C_26
REMARK    7  A    between atoms: C_28  and  C_31
REMARK    8  A    between atoms: C_31  and  C_32
REMARK                            x       y       z     vdW  Elec       q    Type
REMARK                         _______ _______ _______ _____ _____    ______ ____
ROOT
ATOM      1  C   UNL     1      -1.161  -5.568   1.688  0.00  0.00    -0.002 C 
ATOM      2  C   UNL     1       0.126  -6.369   1.465  0.00  0.00    -0.015 C 
ATOM      3  C   UNL     1       0.270  -6.692  -0.024  0.00  0.00    -0.082 C 
ATOM      4  N   UNL     1       0.310  -5.443  -0.795  0.00  0.00    +0.379 N 
ATOM      5  C   UNL     1      -0.934  -4.680  -0.635  0.00  0.00    -0.079 C 
ATOM      6  C   UNL     1      -1.114  -4.297   0.835  0.00  0.00    -0.019 C 
ATOM      7  H   UNL     1       1.149  -4.824  -0.446  0.00  0.00    -0.086 HD
ATOM      8  H   UNL     1       0.445  -5.676  -1.862  0.00  0.00    -0.086 HD
ENDROOT
BRANCH   1   9
ATOM      9  C   UNL     1      -1.280  -5.189   3.165  0.00  0.00    +0.099 C 
BRANCH   9  16
ATOM     10  N   UNL     1      -2.805  -6.102   7.820  0.00  0.00    -0.295 NA
ATOM     11  C   UNL     1      -2.959  -7.354   7.067  0.00  0.00    +0.103 C 
ATOM     12  C   UNL     1      -1.742  -7.552   6.157  0.00  0.00    +0.123 C 
ATOM     13  N   UNL     1      -1.576  -6.347   5.331  0.00  0.00    -0.299 N 
ATOM     14  C   UNL     1      -1.544  -5.040   6.005  0.00  0.00    +0.123 C 
ATOM     15  C   UNL     1      -2.774  -4.941   6.921  0.00  0.00    +0.103 C 
ATOM     16  C   UNL     1      -1.450  -6.437   3.992  0.00  0.00    +0.216 C 
ATOM     17  O   UNL     1      -1.473  -7.523   3.453  0.00  0.00    -0.276 OA
BRANCH  10  18
ATOM     18  C   UNL     1      -3.863  -5.960   8.828  0.00  0.00    +0.119 C 
BRANCH  18  22
ATOM     19  C   UNL     1      -3.747  -2.019  10.470  0.00  0.00    +0.000 A 
ATOM     20  C   UNL     1      -4.523  -2.281   9.357  0.00  0.00    +0.000 A 
ATOM     21  C   UNL     1      -4.561  -3.557   8.825  0.00  0.00    +0.005 A 
ATOM     22  C   UNL     1      -3.822  -4.570   9.408  0.00  0.00    -0.033 A 
ATOM     23  C   UNL     1      -3.050  -4.309  10.524  0.00  0.00    +0.005 A 
ATOM     24  C   UNL     1      -3.009  -3.032  11.053  0.00  0.00    +0.000 A 
ENDBRANCH  18  22
ENDBRANCH  10  18
ENDBRANCH   9  16
ENDBRANCH   1   9
BRANCH   6  25
ATOM     25  C   UNL     1       0.061  -3.425   1.283  0.00  0.00    +0.061 C 
BRANCH  25  26
ATOM     26  C   UNL     1       0.035  -2.121   0.528  0.00  0.00    +0.084 A 
ATOM     27  C   UNL     1       0.023  -0.821   1.082  0.00  0.00    +0.071 A 
ATOM     28  C   UNL     1       0.002  -0.004   0.002  0.00  0.00    +0.138 A 
ATOM     29  O   UNL     1      -0.003  -0.801  -1.076  0.00  0.00    -0.359 OA
ATOM     30  N   UNL     1       0.021  -1.969  -0.765  0.00  0.00    -0.083 NA
BRANCH  28  31
ATOM     31  C   UNL     1      -0.018   1.503   0.010  0.00  0.00    +0.080 C 
BRANCH  31  32
ATOM     32  C   UNL     1       1.417   2.032  -0.001  0.00  0.00    -0.004 C 
ATOM     33  C   UNL     1       2.119   1.630   1.298  0.00  0.00    +0.004 C 
ATOM     34  C   UNL     1       3.554   2.159   1.287  0.00  0.00    +0.000 C 
ATOM     35  C   UNL     1       3.534   3.685   1.170  0.00  0.00    +0.000 C 
ATOM     36  C   UNL     1       2.832   4.087  -0.129  0.00  0.00    +0.000 C 
ATOM     37  C   UNL     1       1.397   3.558  -0.118  0.00  0.00    +0.004 C 
ENDBRANCH  31  32
ENDBRANCH  28  31
ENDBRANCH  25  26
ENDBRANCH   6  25
TORSDOF 8
