REMARK  Name = ZINC59791504
REMARK  8 active torsions:
REMARK  status: ('A' for Active; 'I' for Inactive)
REMARK    1  A    between atoms: C_4  and  N_7
REMARK    2  A    between atoms: C_8  and  C_28
REMARK    3  A    between atoms: C_11  and  S_12
REMARK    4  A    between atoms: S_12  and  C_13
REMARK    5  A    between atoms: C_13  and  C_14
REMARK    6  A    between atoms: C_14  and  C_15
REMARK    7  A    between atoms: N_17  and  C_18
REMARK    8  A    between atoms: C_31  and  N_34
REMARK                            x       y       z     vdW  Elec       q    Type
REMARK                         _______ _______ _______ _____ _____    ______ ____
ROOT
ATOM      1  N   UNL     1       4.114  -0.623  -0.383  0.00  0.00    -0.270 N 
ATOM      2  C   UNL     1       4.642  -1.485  -1.319  0.00  0.00    +0.169 A 
ATOM      3  N   UNL     1       5.805  -1.886  -0.859  0.00  0.00    -0.128 NA
ATOM      4  N   UNL     1       6.037  -1.343   0.282  0.00  0.00    -0.122 NA
ATOM      5  C   UNL     1       5.040  -0.556   0.621  0.00  0.00    +0.196 A 
ENDROOT
BRANCH   1   9
ATOM      6  C   UNL     1       0.462   1.379  -0.580  0.00  0.00    +0.000 A 
ATOM      7  C   UNL     1       1.645   2.093  -0.641  0.00  0.00    +0.002 A 
ATOM      8  C   UNL     1       2.856   1.433  -0.576  0.00  0.00    +0.026 A 
ATOM      9  C   UNL     1       2.886   0.050  -0.449  0.00  0.00    +0.051 A 
ATOM     10  C   UNL     1       1.697  -0.664  -0.389  0.00  0.00    +0.026 A 
ATOM     11  C   UNL     1       0.488   0.002  -0.454  0.00  0.00    +0.002 A 
ENDBRANCH   1   9
BRANCH   2  12
ATOM     12  C   UNL     1       4.019  -1.883  -2.598  0.00  0.00    +0.020 A 
ATOM     13  C   UNL     1       2.975  -1.127  -3.135  0.00  0.00    +0.014 A 
ATOM     14  C   UNL     1       2.397  -1.505  -4.329  0.00  0.00    +0.033 A 
ATOM     15  C   UNL     1       2.850  -2.630  -4.995  0.00  0.00    +0.126 A 
ATOM     16  C   UNL     1       3.884  -3.384  -4.469  0.00  0.00    +0.033 A 
ATOM     17  C   UNL     1       4.475  -3.014  -3.279  0.00  0.00    +0.014 A 
BRANCH  15  18
ATOM     18  N   UNL     1       2.224  -3.029  -6.277  0.00  0.00    +0.056 N 
ATOM     19  O   UNL     1       1.321  -2.373  -6.739  0.00  0.00    -0.126 OA
ATOM     20  O   UNL     1       2.618  -4.012  -6.861  0.00  0.00    -0.126 OA
ENDBRANCH  15  18
ENDBRANCH   2  12
BRANCH   5  21
ATOM     21  S   UNL     1       4.918   0.401   2.095  0.00  0.00    -0.085 S 
BRANCH  21  22
ATOM     22  C   UNL     1       6.459   0.040   2.982  0.00  0.00    +0.086 C 
BRANCH  22  23
ATOM     23  C   UNL     1       6.484   0.818   4.299  0.00  0.00    +0.107 C 
BRANCH  23  24
ATOM     24  C   UNL     1       7.764   0.518   5.035  0.00  0.00    +0.218 C 
ATOM     25  O   UNL     1       8.576  -0.243   4.554  0.00  0.00    -0.275 OA
ATOM     26  N   UNL     1       8.006   1.096   6.229  0.00  0.00    -0.285 N 
ATOM     27  H   UNL     1       7.325   1.644   6.649  0.00  0.00    +0.155 HD
BRANCH  26  28
ATOM     28  C   UNL     1       9.236   0.905   6.860  0.00  0.00    +0.041 A 
ATOM     29  C   UNL     1      10.342   0.527   6.129  0.00  0.00    +0.024 A 
ATOM     30  C   UNL     1      11.573   0.334   6.749  0.00  0.00    +0.002 A 
ATOM     31  C   UNL     1      11.720   0.513   8.091  0.00  0.00    +0.008 A 
ATOM     32  C   UNL     1      10.618   0.898   8.872  0.00  0.00    -0.016 A 
ATOM     33  C   UNL     1       9.360   1.102   8.252  0.00  0.00    +0.003 A 
ATOM     34  C   UNL     1       8.261   1.492   9.034  0.00  0.00    +0.010 A 
ATOM     35  C   UNL     1       8.418   1.672  10.374  0.00  0.00    +0.001 A 
ATOM     36  C   UNL     1       9.655   1.477  10.984  0.00  0.00    +0.001 A 
ATOM     37  C   UNL     1      10.740   1.089  10.259  0.00  0.00    +0.008 A 
ENDBRANCH  26  28
ENDBRANCH  23  24
ENDBRANCH  22  23
ENDBRANCH  21  22
ENDBRANCH   5  21
TORSDOF 8
