REMARK  Name = ZINC35504342
REMARK  7 active torsions:
REMARK  status: ('A' for Active; 'I' for Inactive)
REMARK    1  A    between atoms: C_1  and  C_2
REMARK    2  A    between atoms: C_2  and  C_3
REMARK    3  A    between atoms: C_6  and  C_9
REMARK    4  A    between atoms: C_10  and  C_30
REMARK    5  A    between atoms: N_13  and  C_17
REMARK    6  A    between atoms: C_17  and  C_18
REMARK    7  A    between atoms: N_20  and  C_21
REMARK                            x       y       z     vdW  Elec       q    Type
REMARK                         _______ _______ _______ _____ _____    ______ ____
ROOT
ATOM      1  C   UNL     1       1.534  -2.405  -6.362  0.00  0.00    +0.124 C 
ATOM      2  C   UNL     1       1.496  -2.965  -7.593  0.00  0.00    +0.040 C 
ATOM      3  C   UNL     1       2.784  -3.272  -8.172  0.00  0.00    +0.264 C 
ATOM      4  O   UNL     1       2.876  -3.778  -9.274  0.00  0.00    -0.269 OA
ATOM      5  N   UNL     1       3.880  -2.977  -7.447  0.00  0.00    -0.159 N 
ATOM      6  S   UNL     1       3.281  -2.304  -6.036  0.00  0.00    +0.078 S 
ATOM      7  O   UNL     1       3.575  -3.201  -4.973  0.00  0.00    -0.150 OA
ATOM      8  O   UNL     1       3.640  -0.929  -6.023  0.00  0.00    -0.150 OA
ATOM      9  C   UNL     1       0.201  -3.251  -8.310  0.00  0.00    +0.051 C 
ENDROOT
BRANCH   1  13
ATOM     10  C   UNL     1      -1.698  -1.175  -3.905  0.00  0.00    -0.048 A 
ATOM     11  C   UNL     1      -0.672  -1.932  -3.366  0.00  0.00    +0.004 A 
ATOM     12  C   UNL     1       0.382  -2.336  -4.158  0.00  0.00    +0.010 A 
ATOM     13  C   UNL     1       0.412  -1.978  -5.510  0.00  0.00    +0.002 A 
ATOM     14  C   UNL     1      -0.628  -1.214  -6.047  0.00  0.00    +0.010 A 
ATOM     15  C   UNL     1      -1.677  -0.823  -5.243  0.00  0.00    +0.004 A 
BRANCH  10  17
ATOM     16  C   UNL     1      -3.946  -1.801  -3.066  0.00  0.00    +0.009 C 
ATOM     17  C   UNL     1      -2.846  -0.738  -3.032  0.00  0.00    +0.032 C 
ENDBRANCH  10  17
ENDBRANCH   1  13
BRANCH   5  18
ATOM     18  C   UNL     1       5.282  -3.191  -7.813  0.00  0.00    +0.230 C 
BRANCH  18  19
ATOM     19  C   UNL     1       5.770  -2.026  -8.635  0.00  0.00    +0.237 C 
ATOM     20  O   UNL     1       5.020  -1.107  -8.889  0.00  0.00    -0.274 OA
ATOM     21  N   UNL     1       7.039  -2.005  -9.087  0.00  0.00    -0.281 N 
ATOM     22  H   UNL     1       7.624  -2.761  -8.925  0.00  0.00    +0.155 HD
BRANCH  21  23
ATOM     23  C   UNL     1       7.513  -0.890  -9.793  0.00  0.00    +0.083 A 
ATOM     24  C   UNL     1       7.059   0.384  -9.470  0.00  0.00    +0.148 A 
ATOM     25  C   UNL     1       7.528   1.481 -10.168  0.00  0.00    +0.078 A 
ATOM     26  C   UNL     1       8.450   1.312 -11.187  0.00  0.00    +0.127 A 
ATOM     27  C   UNL     1       8.904   0.045 -11.510  0.00  0.00    +0.055 A 
ATOM     28  C   UNL     1       8.442  -1.055 -10.811  0.00  0.00    +0.045 A 
ATOM     29 BR   UNL     1       9.070  -2.785 -11.248  0.00  0.00    -0.048 Br
ATOM     30  F   UNL     1       8.908   2.386 -11.868  0.00  0.00    -0.205 F 
ATOM     31  F   UNL     1       6.159   0.549  -8.476  0.00  0.00    -0.203 F 
ENDBRANCH  21  23
ENDBRANCH  18  19
ENDBRANCH   5  18
TORSDOF 5
