REMARK  Name = ZINC39513696
REMARK  5 active torsions:
REMARK  status: ('A' for Active; 'I' for Inactive)
REMARK    1  A    between atoms: C_4  and  C_7
REMARK    2  A    between atoms: C_7  and  N_8
REMARK    3  A    between atoms: C_17  and  S_20
REMARK    4  A    between atoms: S_20  and  O_23
REMARK    5  A    between atoms: O_23  and  C_24
REMARK                            x       y       z     vdW  Elec       q    Type
REMARK                         _______ _______ _______ _____ _____    ______ ____
ROOT
ATOM      1  N   UNL     1       4.153  -0.953   1.342  0.00  0.00    +0.387 N 
ATOM      2  C   UNL     1       4.424   0.330   2.003  0.00  0.00    -0.078 C 
ATOM      3  C   UNL     1       4.820   0.082   3.460  0.00  0.00    -0.018 C 
ATOM      4  C   UNL     1       6.082  -0.785   3.502  0.00  0.00    +0.011 C 
ATOM      5  C   UNL     1       5.816  -2.092   2.749  0.00  0.00    +0.042 C 
ATOM      6  C   UNL     1       5.368  -1.771   1.325  0.00  0.00    -0.051 C 
ATOM      7  C   UNL     1       5.116  -3.072   0.549  0.00  0.00    -0.009 C 
ATOM      8  C   UNL     1       6.099  -3.070  -0.641  0.00  0.00    +0.028 C 
ATOM      9  C   UNL     1       6.427  -1.572  -0.861  0.00  0.00    +0.170 C 
ATOM     10  C   UNL     1       6.491  -1.020   0.585  0.00  0.00    +0.019 C 
ATOM     11  I   UNL     1       4.263  -3.205   3.762  0.00  0.00    -0.083 I 
ATOM     12  H   UNL     1       3.427  -1.442   1.844  0.00  0.00    -0.080 HD
ENDROOT
BRANCH   9  13
ATOM     13  S   UNL     1       8.024  -1.380  -1.699  0.00  0.00    +0.123 S 
ATOM     14  O   UNL     1       8.245  -0.015  -2.024  0.00  0.00    -0.136 OA
ATOM     15  O   UNL     1       9.023  -2.136  -1.028  0.00  0.00    -0.136 OA
BRANCH  13  16
ATOM     16  O   UNL     1       7.847  -2.075  -3.042  0.00  0.00    -0.346 OA
BRANCH  16  17
ATOM     17  C   UNL     1       7.103  -1.371  -3.935  0.00  0.00    +0.156 A 
ATOM     18  C   UNL     1       5.727  -1.542  -3.979  0.00  0.00    +0.048 A 
ATOM     19  C   UNL     1       4.972  -0.825  -4.888  0.00  0.00    +0.004 A 
ATOM     20  C   UNL     1       5.587   0.062  -5.752  0.00  0.00    +0.000 A 
ATOM     21  C   UNL     1       6.959   0.234  -5.709  0.00  0.00    +0.004 A 
ATOM     22  C   UNL     1       7.717  -0.476  -4.799  0.00  0.00    +0.048 A 
ENDBRANCH  16  17
ENDBRANCH  13  16
ENDBRANCH   9  13
BRANCH   1  23
ATOM     23  C   UNL     1       3.711  -0.707  -0.038  0.00  0.00    -0.042 C 
BRANCH  23  27
ATOM     24  C   UNL     1      -0.017   1.378   0.010  0.00  0.00    +0.000 A 
ATOM     25  C   UNL     1       1.171   2.086   0.002  0.00  0.00    +0.000 A 
ATOM     26  C   UNL     1       2.377   1.411  -0.013  0.00  0.00    +0.002 A 
ATOM     27  C   UNL     1       2.396   0.029  -0.020  0.00  0.00    -0.064 A 
ATOM     28  C   UNL     1       1.208  -0.679  -0.012  0.00  0.00    +0.002 A 
ATOM     29  C   UNL     1       0.002  -0.004   0.002  0.00  0.00    +0.000 A 
ENDBRANCH  23  27
ENDBRANCH   1  23
TORSDOF 5
