REMARK  Name = ZINC35458543
REMARK  7 active torsions:
REMARK  status: ('A' for Active; 'I' for Inactive)
REMARK    1  A    between atoms: C_1  and  C_2
REMARK    2  A    between atoms: C_2  and  C_3
REMARK    3  A    between atoms: C_3  and  N_4
REMARK    4  A    between atoms: N_4  and  C_5
REMARK    5  A    between atoms: C_5  and  C_6
REMARK    6  A    between atoms: C_16  and  C_18
REMARK    7  A    between atoms: N_26  and  C_27
REMARK                            x       y       z     vdW  Elec       q    Type
REMARK                         _______ _______ _______ _____ _____    ______ ____
ROOT
ATOM      1  C   UNL     1       0.099  -2.828  -2.206  0.00  0.00    +0.205 C 
ENDROOT
BRANCH   1   2
ATOM      2  C   UNL     1       0.191  -3.034  -3.696  0.00  0.00    +0.234 C 
ATOM      3  O   UNL     1       1.187  -2.688  -4.296  0.00  0.00    -0.274 OA
ATOM      4  N   UNL     1      -0.833  -3.604  -4.362  0.00  0.00    -0.286 N 
ATOM      5  C   UNL     1      -2.053  -4.026  -3.657  0.00  0.00    +0.130 C 
ATOM      6  C   UNL     1      -3.240  -3.199  -4.161  0.00  0.00    +0.140 C 
ATOM      7  N   UNL     1      -3.208  -3.151  -5.627  0.00  0.00    -0.347 N 
ATOM      8  C   UNL     1      -4.239  -2.837  -6.458  0.00  0.00    +0.086 A 
ATOM      9  C   UNL     1      -3.792  -2.899  -7.730  0.00  0.00    +0.019 A 
ATOM     10  C   UNL     1      -2.431  -3.270  -7.683  0.00  0.00    +0.025 A 
ATOM     11  C   UNL     1      -2.104  -3.420  -6.390  0.00  0.00    +0.044 A 
ATOM     12  C   UNL     1      -0.766  -3.816  -5.820  0.00  0.00    +0.153 C 
BRANCH  12  13
ATOM     13  C   UNL     1      -0.496  -5.269  -6.116  0.00  0.00    -0.021 A 
ATOM     14  C   UNL     1       0.673  -5.638  -6.755  0.00  0.00    +0.006 A 
ATOM     15  C   UNL     1       0.921  -6.971  -7.026  0.00  0.00    +0.000 A 
ATOM     16  C   UNL     1       0.000  -7.934  -6.658  0.00  0.00    +0.000 A 
ATOM     17  C   UNL     1      -1.169  -7.565  -6.019  0.00  0.00    +0.000 A 
ATOM     18  C   UNL     1      -1.414  -6.232  -5.743  0.00  0.00    +0.006 A 
ENDBRANCH  12  13
ENDBRANCH   1   2
BRANCH   1  19
ATOM     19  N   UNL     1       1.330  -2.196  -1.724  0.00  0.00    -0.277 N 
ATOM     20  C   UNL     1       2.368  -2.959  -1.327  0.00  0.00    +0.307 C 
ATOM     21  O   UNL     1       2.283  -4.171  -1.369  0.00  0.00    -0.252 OA
ATOM     22  N   UNL     1       3.500  -2.378  -0.883  0.00  0.00    -0.267 N 
ATOM     23  H   UNL     1       3.543  -1.415  -0.779  0.00  0.00    +0.156 HD
BRANCH  22  24
ATOM     24  C   UNL     1       4.617  -3.167  -0.572  0.00  0.00    +0.070 A 
ATOM     25  C   UNL     1       4.872  -4.326  -1.291  0.00  0.00    +0.029 A 
ATOM     26  C   UNL     1       5.973  -5.101  -0.983  0.00  0.00    +0.040 A 
ATOM     27  C   UNL     1       6.823  -4.724   0.043  0.00  0.00    +0.126 A 
ATOM     28  C   UNL     1       6.572  -3.568   0.763  0.00  0.00    +0.078 A 
ATOM     29  C   UNL     1       5.474  -2.785   0.454  0.00  0.00    +0.147 A 
ATOM     30  F   UNL     1       5.232  -1.655   1.153  0.00  0.00    -0.203 F 
ATOM     31  F   UNL     1       7.899  -5.484   0.342  0.00  0.00    -0.205 F 
ENDBRANCH  22  24
BRANCH  19  32
ATOM     32  C   UNL     1       1.433  -0.736  -1.673  0.00  0.00    +0.109 C 
BRANCH  32  34
ATOM     33  C   UNL     1       1.054   1.288  -0.258  0.00  0.00    +0.005 C 
ATOM     34  C   UNL     1       0.947  -0.237  -0.311  0.00  0.00    +0.016 C 
ENDBRANCH  32  34
ENDBRANCH  19  32
ENDBRANCH   1  19
TORSDOF 6
