REMARK  Name = ZINC06799350
REMARK  10 active torsions:
REMARK  status: ('A' for Active; 'I' for Inactive)
REMARK    1  A    between atoms: C_1  and  C_2
REMARK    2  A    between atoms: C_2  and  C_3
REMARK    3  A    between atoms: C_3  and  C_5
REMARK    4  A    between atoms: C_3  and  N_13
REMARK    5  A    between atoms: N_7  and  C_8
REMARK    6  A    between atoms: C_8  and  C_9
REMARK    7  A    between atoms: C_9  and  C_10
REMARK    8  A    between atoms: C_10  and  O_11
REMARK    9  A    between atoms: O_11  and  C_12
REMARK   10  A    between atoms: C_25  and  C_27
REMARK                            x       y       z     vdW  Elec       q    Type
REMARK                         _______ _______ _______ _____ _____    ______ ____
ROOT
ATOM      1  N   UNL     1       0.577   4.420   0.019  0.00  0.00    -0.217 N 
ATOM      2  C   UNL     1       1.595   3.543   0.005  0.00  0.00    +0.277 A 
ATOM      3  O   UNL     1       2.747   3.945  -0.004  0.00  0.00    -0.265 OA
ATOM      4  C   UNL     1       1.326   2.139   0.001  0.00  0.00    +0.065 A 
ATOM      5  C   UNL     1       2.302   1.032  -0.014  0.00  0.00    +0.002 A 
ATOM      6  C   UNL     1       3.712   1.132  -0.028  0.00  0.00    +0.010 A 
ATOM      7  C   UNL     1       4.492   0.005  -0.042  0.00  0.00    +0.001 A 
ATOM      8  C   UNL     1       3.925  -1.262  -0.044  0.00  0.00    +0.001 A 
ATOM      9  C   UNL     1       2.551  -1.392  -0.030  0.00  0.00    +0.015 A 
ATOM     10  C   UNL     1       1.758  -0.262  -0.016  0.00  0.00    +0.021 A 
ATOM     11  S   UNL     1       0.002  -0.004   0.002  0.00  0.00    -0.086 S 
ATOM     12  C   UNL     1      -0.022   1.769   0.012  0.00  0.00    +0.048 A 
ATOM     13  C   UNL     1      -1.046   2.723   0.022  0.00  0.00    +0.073 A 
ATOM     14  N   UNL     1      -0.755   3.996   0.030  0.00  0.00    -0.172 NA
ATOM     15  C   UNL     1      -2.487   2.280   0.026  0.00  0.00    +0.068 C 
ENDROOT
BRANCH   1  16
ATOM     16  C   UNL     1       0.870   5.855   0.024  0.00  0.00    +0.196 C 
BRANCH  16  17
ATOM     17  C   UNL     1       0.263   6.496  -1.198  0.00  0.00    +0.238 C 
ATOM     18  O   UNL     1      -0.354   5.820  -1.994  0.00  0.00    -0.273 OA
ATOM     19  N   UNL     1       0.406   7.820  -1.406  0.00  0.00    -0.313 N 
ATOM     20  H   UNL     1       0.899   8.360  -0.769  0.00  0.00    +0.149 HD
BRANCH  19  21
ATOM     21  C   UNL     1      -0.184   8.442  -2.593  0.00  0.00    +0.106 C 
BRANCH  21  22
ATOM     22  C   UNL     1       0.122   9.941  -2.589  0.00  0.00    +0.047 C 
BRANCH  22  23
ATOM     23  C   UNL     1      -0.494  10.592  -3.829  0.00  0.00    +0.161 C 
BRANCH  23  24
ATOM     24  O   UNL     1      -0.208  11.992  -3.824  0.00  0.00    -0.383 OA
ATOM     25  C   UNL     1      -0.742  12.697  -4.947  0.00  0.00    +0.193 C 
ENDBRANCH  23  24
ENDBRANCH  22  23
ENDBRANCH  21  22
ENDBRANCH  19  21
ENDBRANCH  16  17
BRANCH  16  27
ATOM     26  C   UNL     1       0.983   5.932   2.519  0.00  0.00    +0.006 C 
ATOM     27  C   UNL     1       0.278   6.493   1.282  0.00  0.00    +0.033 C 
ENDBRANCH  16  27
ENDBRANCH   1  16
TORSDOF 7
