REMARK  Name = ZINC39659021
REMARK  6 active torsions:
REMARK  status: ('A' for Active; 'I' for Inactive)
REMARK    1  A    between atoms: C_1  and  C_2
REMARK    2  A    between atoms: C_2  and  C_39
REMARK    3  A    between atoms: C_5  and  C_8
REMARK    4  A    between atoms: C_8  and  N_9
REMARK    5  A    between atoms: C_10  and  C_12
REMARK    6  A    between atoms: C_23  and  C_25
REMARK                            x       y       z     vdW  Elec       q    Type
REMARK                         _______ _______ _______ _____ _____    ______ ____
ROOT
ATOM      1  C   UNL     1       3.141  -2.469   5.466  0.00  0.00    +0.100 C 
ATOM      2  C   UNL     1       2.288  -1.819   6.579  0.00  0.00    +0.121 C 
ATOM      3  N   UNL     1       1.937  -2.939   7.484  0.00  0.00    -0.296 N 
ATOM      4  C   UNL     1       3.168  -3.763   7.545  0.00  0.00    +0.115 C 
ATOM      5  C   UNL     1       3.720  -3.742   6.106  0.00  0.00    -0.004 C 
ATOM      6  C   UNL     1       5.244  -3.677   6.125  0.00  0.00    -0.010 C 
ATOM      7  C   UNL     1       5.799  -4.979   6.711  0.00  0.00    -0.082 C 
ATOM      8  N   UNL     1       5.348  -6.115   5.899  0.00  0.00    +0.379 N 
ATOM      9  C   UNL     1       3.885  -6.226   5.961  0.00  0.00    -0.082 C 
ATOM     10  C   UNL     1       3.250  -4.977   5.343  0.00  0.00    -0.010 C 
ATOM     11  C   UNL     1       0.764  -3.158   8.111  0.00  0.00    +0.247 C 
ATOM     12  O   UNL     1       0.658  -4.080   8.896  0.00  0.00    -0.270 OA
ATOM     13  H   UNL     1       5.632  -5.976   4.941  0.00  0.00    -0.086 HD
ATOM     14  H   UNL     1       5.763  -6.964   6.251  0.00  0.00    -0.086 HD
ENDROOT
BRANCH  11  15
ATOM     15  C   UNL     1      -0.392  -2.279   7.843  0.00  0.00    +0.045 A 
ATOM     16  C   UNL     1      -0.249  -0.888   7.917  0.00  0.00    +0.014 A 
ATOM     17  C   UNL     1      -1.325  -0.065   7.668  0.00  0.00    +0.001 A 
ATOM     18  C   UNL     1      -2.561  -0.604   7.342  0.00  0.00    +0.012 A 
ATOM     19  C   UNL     1      -2.724  -1.982   7.264  0.00  0.00    +0.031 A 
ATOM     20  C   UNL     1      -1.634  -2.832   7.509  0.00  0.00    +0.006 A 
ATOM     21  C   UNL     1      -2.083  -4.239   7.352  0.00  0.00    -0.006 A 
ATOM     22  C   UNL     1      -1.410  -5.446   7.486  0.00  0.00    +0.009 A 
ATOM     23  C   UNL     1      -2.082  -6.641   7.278  0.00  0.00    +0.001 A 
ATOM     24  C   UNL     1      -3.420  -6.641   6.936  0.00  0.00    +0.001 A 
ATOM     25  C   UNL     1      -4.105  -5.444   6.798  0.00  0.00    +0.012 A 
ATOM     26  C   UNL     1      -3.444  -4.240   7.005  0.00  0.00    +0.030 A 
ATOM     27  C   UNL     1      -3.898  -2.829   6.946  0.00  0.00    +0.194 C 
ATOM     28  O   UNL     1      -5.016  -2.442   6.675  0.00  0.00    -0.287 OA
ENDBRANCH  11  15
BRANCH   1  30
ATOM     29  N   UNL     1       2.805  -2.825   3.042  0.00  0.00    -0.312 N 
ATOM     30  C   UNL     1       2.278  -2.822   4.282  0.00  0.00    +0.218 C 
ATOM     31  O   UNL     1       1.110  -3.103   4.445  0.00  0.00    -0.275 OA
ATOM     32  H   UNL     1       3.740  -2.600   2.911  0.00  0.00    +0.149 HD
BRANCH  29  33
ATOM     33  C   UNL     1       1.967  -3.169   1.890  0.00  0.00    +0.138 C 
BRANCH  33  38
ATOM     34  C   UNL     1       5.197  -4.520  -1.359  0.00  0.00    +0.074 C 
ATOM     35  C   UNL     1       3.777  -4.650  -0.805  0.00  0.00    +0.165 C 
ATOM     36  O   UNL     1       2.877  -3.848  -1.589  0.00  0.00    -0.347 OA
ATOM     37  C   UNL     1       1.915  -3.333  -0.637  0.00  0.00    +0.196 C 
ATOM     38  C   UNL     1       2.803  -3.097   0.611  0.00  0.00    +0.164 C 
ATOM     39  O   UNL     1       3.745  -4.187   0.552  0.00  0.00    -0.342 OA
ATOM     40  C   UNL     1       3.336  -6.114  -0.859  0.00  0.00    +0.074 C 
ENDBRANCH  33  38
ENDBRANCH  29  33
ENDBRANCH   1  30
TORSDOF 4
