REMARK  Name = ZINC12833196
REMARK  10 active torsions:
REMARK  status: ('A' for Active; 'I' for Inactive)
REMARK    1  A    between atoms: C_1  and  C_2
REMARK    2  A    between atoms: C_6  and  C_15
REMARK    3  A    between atoms: C_13  and  C_14
REMARK    4  A    between atoms: C_15  and  N_60
REMARK    5  A    between atoms: C_16  and  C_17
REMARK    6  A    between atoms: C_16  and  N_60
REMARK    7  A    between atoms: C_22  and  C_23
REMARK    8  A    between atoms: C_22  and  N_60
REMARK    9  A    between atoms: N_27  and  C_28
REMARK   10  A    between atoms: C_28  and  C_29
REMARK                            x       y       z     vdW  Elec       q    Type
REMARK                         _______ _______ _______ _____ _____    ______ ____
ROOT
ATOM      1  N   UNL     1      -5.453   3.797  -1.559  0.00  0.00    +0.390 N 
ATOM      2  H   UNL     1      -5.371   3.025  -2.231  0.00  0.00    -0.080 HD
ENDROOT
BRANCH   1   3
ATOM      3  C   UNL     1      -4.745   3.429  -0.315  0.00  0.00    -0.036 C 
BRANCH   3   9
ATOM      4  C   UNL     1       2.550   4.716  -1.179  0.00  0.00    +0.044 C 
ATOM      5  C   UNL     1       1.364   3.787  -1.228  0.00  0.00    -0.047 A 
ATOM      6  C   UNL     1       0.124   4.253  -0.893  0.00  0.00    +0.013 A 
ATOM      7  C   UNL     1      -0.976   3.391  -0.939  0.00  0.00    -0.001 A 
ATOM      8  C   UNL     1      -2.318   3.857  -0.587  0.00  0.00    +0.017 A 
ATOM      9  C   UNL     1      -3.350   2.980  -0.665  0.00  0.00    +0.001 A 
ATOM     10  C   UNL     1      -3.119   1.646  -1.063  0.00  0.00    +0.251 A 
ATOM     11  O   UNL     1      -4.059   0.871  -1.117  0.00  0.00    -0.268 OA
ATOM     12  N   UNL     1      -1.889   1.207  -1.383  0.00  0.00    -0.322 N 
ATOM     13  H   UNL     1      -1.767   0.283  -1.653  0.00  0.00    +0.169 HD
ATOM     14  C   UNL     1      -0.800   2.051  -1.334  0.00  0.00    +0.049 A 
ATOM     15  C   UNL     1       0.472   1.598  -1.665  0.00  0.00    +0.030 A 
ATOM     16  C   UNL     1       1.542   2.465  -1.613  0.00  0.00    -0.046 A 
ATOM     17  C   UNL     1       2.919   1.974  -1.978  0.00  0.00    +0.044 C 
ENDBRANCH   3   9
ENDBRANCH   1   3
BRANCH   1  18
ATOM     18  C   UNL     1      -4.846   5.011  -2.146  0.00  0.00    -0.035 C 
BRANCH  18  19
ATOM     19  C   UNL     1      -5.341   5.163  -3.561  0.00  0.00    -0.027 A 
ATOM     20  C   UNL     1      -6.367   5.913  -4.031  0.00  0.00    +0.009 A 
ATOM     21  C   UNL     1      -6.641   5.903  -5.386  0.00  0.00    +0.008 A 
ATOM     22  C   UNL     1      -5.881   5.134  -6.204  0.00  0.00    +0.045 A 
ATOM     23  S   UNL     1      -4.730   4.397  -5.054  0.00  0.00    -0.103 S 
ENDBRANCH  18  19
ENDBRANCH   1  18
BRANCH   1  24
ATOM     24  C   UNL     1      -6.884   4.035  -1.274  0.00  0.00    +0.001 C 
BRANCH  24  25
ATOM     25  C   UNL     1      -7.573   2.704  -1.115  0.00  0.00    +0.135 A 
ATOM     26  N   UNL     1      -8.034   1.942  -2.077  0.00  0.00    -0.115 NA
ATOM     27  N   UNL     1      -8.549   0.891  -1.539  0.00  0.00    -0.023 NA
ATOM     28  N   UNL     1      -8.435   0.966  -0.259  0.00  0.00    -0.044 NA
ATOM     29  N   UNL     1      -7.838   2.070   0.042  0.00  0.00    -0.227 N 
BRANCH  29  30
ATOM     30  C   UNL     1      -7.511   2.544   1.389  0.00  0.00    +0.182 C 
BRANCH  30  31
ATOM     31  C   UNL     1      -8.655   3.366   1.924  0.00  0.00    -0.026 A 
ATOM     32  C   UNL     1      -8.685   4.731   1.707  0.00  0.00    +0.005 A 
ATOM     33  C   UNL     1      -9.737   5.485   2.194  0.00  0.00    +0.000 A 
ATOM     34  C   UNL     1     -10.753   4.875   2.906  0.00  0.00    +0.000 A 
ATOM     35  C   UNL     1     -10.720   3.511   3.127  0.00  0.00    +0.000 A 
ATOM     36  C   UNL     1      -9.671   2.756   2.635  0.00  0.00    +0.005 A 
ENDBRANCH  30  31
ENDBRANCH  29  30
ENDBRANCH  24  25
ENDBRANCH   1  24
TORSDOF 8
