REMARK  Name = ZINC02390523
REMARK  9 active torsions:
REMARK  status: ('A' for Active; 'I' for Inactive)
REMARK    1  A    between atoms: C_1  and  C_2
REMARK    2  A    between atoms: C_9  and  N_24
REMARK    3  A    between atoms: C_10  and  C_13
REMARK    4  A    between atoms: N_17  and  C_21
REMARK    5  A    between atoms: C_21  and  C_22
REMARK    6  A    between atoms: C_21  and  C_23
REMARK    7  A    between atoms: N_24  and  C_25
REMARK    8  A    between atoms: C_25  and  C_26
REMARK    9  A    between atoms: C_26  and  O_27
REMARK                            x       y       z     vdW  Elec       q    Type
REMARK                         _______ _______ _______ _____ _____    ______ ____
ROOT
ATOM      1  C   UNL     1       2.456   3.979   0.354  0.00  0.00    +0.047 C 
ATOM      2  C   UNL     1       1.192   3.205   0.080  0.00  0.00    -0.007 A 
ATOM      3  C   UNL     1       1.247   1.865  -0.163  0.00  0.00    +0.008 A 
ATOM      4  C   UNL     1       0.062   1.159  -0.416  0.00  0.00    +0.019 A 
ATOM      5  C   UNL     1      -1.124   1.807  -0.423  0.00  0.00    +0.096 A 
ATOM      6  N   UNL     1      -1.190   3.146  -0.176  0.00  0.00    -0.267 N 
ATOM      7  C   UNL     1      -0.052   3.861   0.074  0.00  0.00    +0.145 A 
ATOM      8  N   UNL     1      -0.096   5.172   0.313  0.00  0.00    -0.214 NA
ATOM      9  C   UNL     1      -1.240   5.840   0.319  0.00  0.00    +0.134 A 
ATOM     10  C   UNL     1      -2.450   5.152   0.067  0.00  0.00    +0.081 A 
ATOM     11  C   UNL     1      -2.392   3.761  -0.186  0.00  0.00    +0.267 A 
ATOM     12  O   UNL     1      -3.410   3.128  -0.408  0.00  0.00    -0.267 OA
ENDROOT
BRANCH  10  13
ATOM     13  C   UNL     1      -3.688   5.838   0.067  0.00  0.00    +0.037 C 
ATOM     14  C   UNL     1      -3.876   6.906  -0.761  0.00  0.00    +0.077 C 
ATOM     15  C   UNL     1      -4.981   7.800  -0.850  0.00  0.00    +0.259 C 
ATOM     16  O   UNL     1      -5.949   7.674  -0.120  0.00  0.00    -0.269 OA
ATOM     17  N   UNL     1      -4.926   8.773  -1.744  0.00  0.00    -0.253 N 
ATOM     18  C   UNL     1      -3.855   8.908  -2.557  0.00  0.00    +0.121 C 
ATOM     19  S   UNL     1      -3.576  10.075  -3.778  0.00  0.00    -0.027 S 
ATOM     20  S   UNL     1      -2.806   7.560  -2.036  0.00  0.00    -0.061 S 
BRANCH  17  21
ATOM     21  C   UNL     1      -6.043   9.713  -1.857  0.00  0.00    +0.077 C 
ATOM     22  C   UNL     1      -5.544  11.134  -1.587  0.00  0.00    +0.028 C 
ATOM     23  C   UNL     1      -6.631   9.638  -3.268  0.00  0.00    +0.028 C 
ENDBRANCH  17  21
ENDBRANCH  10  13
BRANCH   9  24
ATOM     24  N   UNL     1      -1.251   7.195   0.569  0.00  0.00    -0.326 N 
ATOM     25  H   UNL     1      -2.091   7.681   0.572  0.00  0.00    +0.148 HD
BRANCH  24  26
ATOM     26  C   UNL     1       0.005   7.902   0.829  0.00  0.00    +0.130 C 
BRANCH  26  27
ATOM     27  C   UNL     1      -0.285   9.384   1.073  0.00  0.00    +0.174 C 
BRANCH  27  28
ATOM     28  O   UNL     1      -1.054   9.528   2.269  0.00  0.00    -0.393 OA
ATOM     29  H   UNL     1      -1.275  10.444   2.486  0.00  0.00    +0.209 HD
ENDBRANCH  27  28
ENDBRANCH  26  27
ENDBRANCH  24  26
ENDBRANCH   9  24
TORSDOF 6
