REMARK  Name = ZINC13499316
REMARK  11 active torsions:
REMARK  status: ('A' for Active; 'I' for Inactive)
REMARK    1  A    between atoms: C_1  and  C_2
REMARK    2  A    between atoms: C_2  and  C_3
REMARK    3  A    between atoms: C_3  and  C_4
REMARK    4  A    between atoms: C_4  and  C_6
REMARK    5  A    between atoms: C_4  and  N_69
REMARK    6  A    between atoms: N_10  and  C_11
REMARK    7  A    between atoms: C_11  and  C_12
REMARK    8  A    between atoms: C_18  and  C_19
REMARK    9  A    between atoms: C_18  and  N_69
REMARK   10  A    between atoms: C_24  and  C_31
REMARK   11  A    between atoms: C_32  and  N_69
REMARK                            x       y       z     vdW  Elec       q    Type
REMARK                         _______ _______ _______ _____ _____    ______ ____
ROOT
ATOM      1  N   UNL     1       2.249   7.694  -2.202  0.00  0.00    +0.391 N 
ATOM      2  H   UNL     1       3.270   7.699  -2.092  0.00  0.00    -0.080 HD
ENDROOT
BRANCH   1   3
ATOM      3  C   UNL     1       1.922   7.670  -3.643  0.00  0.00    -0.067 C 
ATOM      4  C   UNL     1       2.239   6.277  -4.226  0.00  0.00    -0.015 C 
ATOM      5  C   UNL     1       2.816   6.576  -5.632  0.00  0.00    -0.002 C 
ATOM      6  C   UNL     1       3.657   7.855  -5.393  0.00  0.00    -0.002 C 
ATOM      7  C   UNL     1       2.823   8.673  -4.385  0.00  0.00    -0.015 C 
ENDBRANCH   1   3
BRANCH   1   8
ATOM      8  C   UNL     1       1.702   6.491  -1.540  0.00  0.00    +0.003 C 
BRANCH   8   9
ATOM      9  C   UNL     1       0.195   6.509  -1.574  0.00  0.00    +0.138 A 
ATOM     10  N   UNL     1      -0.584   7.510  -1.241  0.00  0.00    -0.115 NA
ATOM     11  N   UNL     1      -1.805   7.135  -1.407  0.00  0.00    -0.023 NA
ATOM     12  N   UNL     1      -1.826   5.924  -1.843  0.00  0.00    -0.044 NA
ATOM     13  N   UNL     1      -0.612   5.501  -1.953  0.00  0.00    -0.226 N 
BRANCH  13  14
ATOM     14  C   UNL     1      -0.191   4.174  -2.411  0.00  0.00    +0.182 C 
BRANCH  14  15
ATOM     15  C   UNL     1      -0.084   3.246  -1.229  0.00  0.00    -0.026 A 
ATOM     16  C   UNL     1      -1.181   2.505  -0.830  0.00  0.00    +0.005 A 
ATOM     17  C   UNL     1      -1.083   1.654   0.255  0.00  0.00    +0.000 A 
ATOM     18  C   UNL     1       0.111   1.546   0.943  0.00  0.00    +0.000 A 
ATOM     19  C   UNL     1       1.210   2.283   0.541  0.00  0.00    +0.000 A 
ATOM     20  C   UNL     1       1.111   3.134  -0.544  0.00  0.00    +0.005 A 
ENDBRANCH  14  15
ENDBRANCH  13  14
ENDBRANCH   8   9
BRANCH   8  21
ATOM     21  C   UNL     1       2.178   6.467  -0.086  0.00  0.00    -0.008 C 
BRANCH  21  23
ATOM     22  C   UNL     1       4.164   6.168   1.400  0.00  0.00    +0.004 C 
ATOM     23  C   UNL     1       3.700   6.311  -0.051  0.00  0.00    -0.005 C 
ENDBRANCH  21  23
ENDBRANCH   8  21
ENDBRANCH   1   8
BRANCH   1  24
ATOM     24  C   UNL     1       1.692   8.912  -1.578  0.00  0.00    -0.036 C 
BRANCH  24  25
ATOM     25  C   UNL     1       2.555  10.088  -1.958  0.00  0.00    +0.001 A 
ATOM     26  C   UNL     1       2.158  10.924  -2.949  0.00  0.00    +0.017 A 
ATOM     27  C   UNL     1       3.016  12.060  -3.291  0.00  0.00    -0.001 A 
ATOM     28  C   UNL     1       2.658  12.960  -4.300  0.00  0.00    +0.010 A 
ATOM     29  C   UNL     1       3.483  14.006  -4.599  0.00  0.00    +0.004 A 
ATOM     30  C   UNL     1       4.675  14.185  -3.911  0.00  0.00    -0.048 A 
ATOM     31  C   UNL     1       5.048  13.311  -2.912  0.00  0.00    +0.029 A 
ATOM     32  C   UNL     1       4.224  12.238  -2.590  0.00  0.00    +0.049 A 
ATOM     33  N   UNL     1       4.573  11.348  -1.597  0.00  0.00    -0.322 N 
ATOM     34  H   UNL     1       5.406  11.472  -1.115  0.00  0.00    +0.169 HD
ATOM     35  C   UNL     1       3.776  10.311  -1.286  0.00  0.00    +0.251 A 
ATOM     36  O   UNL     1       4.116   9.543  -0.403  0.00  0.00    -0.268 OA
ATOM     37  C   UNL     1       5.570  15.346  -4.258  0.00  0.00    +0.044 C 
ENDBRANCH  24  25
ENDBRANCH   1  24
TORSDOF 9
