REMARK  Name = ZINC36065885
REMARK  13 active torsions:
REMARK  status: ('A' for Active; 'I' for Inactive)
REMARK    1  A    between atoms: C_1  and  C_2
REMARK    2  A    between atoms: C_2  and  C_3
REMARK    3  A    between atoms: C_3  and  C_5
REMARK    4  A    between atoms: C_3  and  N_6
REMARK    5  A    between atoms: C_7  and  C_9
REMARK    6  A    between atoms: C_12  and  C_14
REMARK    7  A    between atoms: C_14  and  N_15
REMARK    8  A    between atoms: N_15  and  C_16
REMARK    9  A    between atoms: N_15  and  C_26
REMARK   10  A    between atoms: C_16  and  C_17
REMARK   11  A    between atoms: C_26  and  C_27
REMARK   12  A    between atoms: C_29  and  C_34
REMARK   13  A    between atoms: C_32  and  C_33
REMARK                            x       y       z     vdW  Elec       q    Type
REMARK                         _______ _______ _______ _____ _____    ______ ____
ROOT
ATOM      1  N   UNL     1      -3.202   4.730  -6.684  0.00  0.00    +0.391 N 
ATOM      2  H   UNL     1      -2.589   5.419  -6.275  0.00  0.00    -0.080 HD
ENDROOT
BRANCH   1   3
ATOM      3  C   UNL     1      -3.787   3.902  -5.621  0.00  0.00    +0.020 C 
BRANCH   3   7
ATOM      4  C   UNL     1      -1.262   3.044  -3.168  0.00  0.00    +0.163 A 
ATOM      5  C   UNL     1      -1.096   2.027  -4.057  0.00  0.00    +0.230 A 
ATOM      6  O   UNL     1      -1.987   2.219  -5.043  0.00  0.00    -0.449 OA
ATOM      7  C   UNL     1      -2.685   3.329  -4.767  0.00  0.00    +0.179 A 
ATOM      8  N   UNL     1      -2.265   3.831  -3.644  0.00  0.00    -0.210 NA
BRANCH   4  10
ATOM      9  N   UNL     1      -0.782   4.306  -1.130  0.00  0.00    -0.307 N 
ATOM     10  C   UNL     1      -0.503   3.251  -1.922  0.00  0.00    +0.266 C 
ATOM     11  O   UNL     1       0.374   2.470  -1.607  0.00  0.00    -0.268 OA
ATOM     12  H   UNL     1      -1.482   4.929  -1.381  0.00  0.00    +0.149 HD
BRANCH   9  13
ATOM     13  C   UNL     1      -0.028   4.511   0.109  0.00  0.00    +0.070 C 
ATOM     14  C   UNL     1      -0.659   3.688   1.233  0.00  0.00    +0.028 C 
BRANCH  13  16
ATOM     15  C   UNL     1       0.684   6.805  -0.581  0.00  0.00    +0.005 C 
ATOM     16  C   UNL     1      -0.058   5.994   0.484  0.00  0.00    +0.018 C 
ENDBRANCH  13  16
ENDBRANCH   9  13
ENDBRANCH   4  10
ENDBRANCH   3   7
ENDBRANCH   1   3
BRANCH   1  17
ATOM     17  C   UNL     1      -4.275   5.407  -7.424  0.00  0.00    -0.042 C 
BRANCH  17  18
ATOM     18  C   UNL     1      -3.673   6.304  -8.474  0.00  0.00    -0.060 A 
ATOM     19  C   UNL     1      -3.293   7.592  -8.146  0.00  0.00    +0.005 A 
ATOM     20  C   UNL     1      -2.740   8.419  -9.105  0.00  0.00    +0.050 A 
ATOM     21  C   UNL     1      -2.565   7.958 -10.400  0.00  0.00    +0.166 A 
ATOM     22  C   UNL     1      -2.947   6.661 -10.731  0.00  0.00    +0.166 A 
ATOM     23  C   UNL     1      -3.496   5.836  -9.763  0.00  0.00    +0.051 A 
ATOM     24  O   UNL     1      -2.675   6.449 -12.052  0.00  0.00    -0.453 OA
ATOM     25  C   UNL     1      -2.501   7.760 -12.623  0.00  0.00    +0.466 C 
ATOM     26  O   UNL     1      -2.053   8.560 -11.513  0.00  0.00    -0.453 OA
ENDBRANCH  17  18
ENDBRANCH   1  17
BRANCH   1  27
ATOM     27  C   UNL     1      -2.436   3.878  -7.603  0.00  0.00    -0.042 C 
BRANCH  27  28
ATOM     28  C   UNL     1      -1.132   3.486  -6.956  0.00  0.00    -0.061 A 
ATOM     29  C   UNL     1      -0.485   4.372  -6.115  0.00  0.00    +0.005 A 
ATOM     30  C   UNL     1       0.711   4.013  -5.522  0.00  0.00    -0.050 A 
ATOM     31  C   UNL     1       1.259   2.768  -5.769  0.00  0.00    +0.003 A 
ATOM     32  C   UNL     1       0.611   1.882  -6.609  0.00  0.00    +0.004 A 
ATOM     33  C   UNL     1      -0.587   2.240  -7.199  0.00  0.00    -0.049 A 
ATOM     34  C   UNL     1      -1.296   1.272  -8.111  0.00  0.00    +0.044 C 
ATOM     35  C   UNL     1       1.418   4.979  -4.606  0.00  0.00    +0.044 C 
ENDBRANCH  27  28
ENDBRANCH   1  27
TORSDOF 9
