REMARK  Name = ZINC03768037
REMARK  14 active torsions:
REMARK  status: ('A' for Active; 'I' for Inactive)
REMARK    1  A    between atoms: C_1  and  C_2
REMARK    2  A    between atoms: C_4  and  C_42
REMARK    3  A    between atoms: C_6  and  S_8
REMARK    4  A    between atoms: S_8  and  C_9
REMARK    5  A    between atoms: C_9  and  C_10
REMARK    6  A    between atoms: N_12  and  C_13
REMARK    7  A    between atoms: N_12  and  C_25
REMARK    8  A    between atoms: C_13  and  C_14
REMARK    9  A    between atoms: C_16  and  C_19
REMARK   10  A    between atoms: C_25  and  C_27
REMARK   11  A    between atoms: C_25  and  C_30
REMARK   12  A    between atoms: C_27  and  C_28
REMARK   13  A    between atoms: C_27  and  C_29
REMARK   14  A    between atoms: N_32  and  C_33
REMARK                            x       y       z     vdW  Elec       q    Type
REMARK                         _______ _______ _______ _____ _____    ______ ____
ROOT
ATOM      1  C   UNL     1       3.174   6.184  -0.535  0.00  0.00    +0.227 C 
ATOM      2  O   UNL     1       2.812   5.030  -0.442  0.00  0.00    -0.275 OA
ATOM      3  N   UNL     1       4.483   6.489  -0.445  0.00  0.00    -0.283 N 
ENDROOT
BRANCH   1   4
ATOM      4  C   UNL     1       2.158   7.277  -0.752  0.00  0.00    +0.173 C 
BRANCH   4   5
ATOM      5  S   UNL     1       0.520   6.542  -0.978  0.00  0.00    -0.077 S 
BRANCH   5  11
ATOM      6  C   UNL     1       0.154  11.636  -1.292  0.00  0.00    +0.066 C 
ATOM      7  C   UNL     1      -0.535  10.297  -1.335  0.00  0.00    +0.043 A 
ATOM      8  C   UNL     1      -1.902  10.218  -1.550  0.00  0.00    +0.046 A 
ATOM      9  C   UNL     1      -2.497   8.966  -1.582  0.00  0.00    +0.043 A 
ATOM     10  N   UNL     1      -1.747   7.891  -1.408  0.00  0.00    -0.227 NA
ATOM     11  C   UNL     1      -0.442   8.001  -1.205  0.00  0.00    +0.189 A 
ATOM     12  N   UNL     1       0.158   9.182  -1.168  0.00  0.00    -0.227 NA
ATOM     13  C   UNL     1      -3.980   8.832  -1.813  0.00  0.00    +0.066 C 
ENDBRANCH   5  11
ENDBRANCH   4   5
ENDBRANCH   1   4
BRANCH   3  14
ATOM     14  C   UNL     1       4.910   7.890  -0.446  0.00  0.00    +0.171 C 
BRANCH  14  15
ATOM     15  C   UNL     1       4.952   8.403   0.971  0.00  0.00    +0.096 A 
ATOM     16  N   UNL     1       5.949   8.385   1.821  0.00  0.00    -0.242 NA
ATOM     17  C   UNL     1       5.825   8.880   3.043  0.00  0.00    +0.078 A 
ATOM     18  C   UNL     1       4.617   9.417   3.397  0.00  0.00    +0.075 A 
ATOM     19  S   UNL     1       3.694   9.173   1.886  0.00  0.00    -0.078 S 
BRANCH  17  20
ATOM     20  C   UNL     1       6.960   8.855   3.998  0.00  0.00    +0.001 A 
ATOM     21  C   UNL     1       8.210   8.394   3.587  0.00  0.00    +0.010 A 
ATOM     22  C   UNL     1       9.263   8.377   4.479  0.00  0.00    +0.001 A 
ATOM     23  C   UNL     1       9.078   8.806   5.780  0.00  0.00    +0.000 A 
ATOM     24  C   UNL     1       7.839   9.259   6.195  0.00  0.00    +0.001 A 
ATOM     25  C   UNL     1       6.779   9.286   5.311  0.00  0.00    +0.010 A 
ENDBRANCH  17  20
ENDBRANCH  14  15
ENDBRANCH   3  14
BRANCH   3  26
ATOM     26  C   UNL     1       5.479   5.420  -0.348  0.00  0.00    +0.165 C 
BRANCH  26  27
ATOM     27  C   UNL     1       5.487   4.621  -1.626  0.00  0.00    +0.238 C 
ATOM     28  O   UNL     1       4.489   4.570  -2.314  0.00  0.00    -0.273 OA
ATOM     29  N   UNL     1       6.601   3.964  -2.004  0.00  0.00    -0.284 N 
ATOM     30  H   UNL     1       7.377   3.951  -1.422  0.00  0.00    +0.155 HD
BRANCH  29  31
ATOM     31  C   UNL     1       6.639   3.301  -3.237  0.00  0.00    +0.037 A 
ATOM     32  C   UNL     1       5.502   2.665  -3.719  0.00  0.00    +0.027 A 
ATOM     33  C   UNL     1       5.537   2.014  -4.937  0.00  0.00    +0.051 A 
ATOM     34  C   UNL     1       6.708   1.985  -5.677  0.00  0.00    +0.166 A 
ATOM     35  C   UNL     1       7.851   2.617  -5.194  0.00  0.00    +0.168 A 
ATOM     36  C   UNL     1       7.814   3.274  -3.975  0.00  0.00    +0.072 A 
ATOM     37  O   UNL     1       8.859   2.446  -6.098  0.00  0.00    -0.453 OA
ATOM     38  C   UNL     1       8.438   1.359  -6.943  0.00  0.00    +0.466 C 
ATOM     39  O   UNL     1       7.000   1.418  -6.885  0.00  0.00    -0.453 OA
ENDBRANCH  29  31
ENDBRANCH  26  27
BRANCH  26  40
ATOM     40  C   UNL     1       5.129   4.501   0.825  0.00  0.00    +0.012 C 
ATOM     41  C   UNL     1       6.239   3.466   1.012  0.00  0.00    +0.009 C 
ATOM     42  C   UNL     1       4.989   5.334   2.101  0.00  0.00    +0.009 C 
ENDBRANCH  26  40
ENDBRANCH   3  26
TORSDOF 10
