REMARK  Name = ZINC09323934
REMARK  6 active torsions:
REMARK  status: ('A' for Active; 'I' for Inactive)
REMARK    1  A    between atoms: C_1  and  N_2
REMARK    2  A    between atoms: N_2  and  C_3
REMARK    3  A    between atoms: N_2  and  C_4
REMARK    4  A    between atoms: C_7  and  C_9
REMARK    5  A    between atoms: N_16  and  C_19
REMARK    6  A    between atoms: C_22  and  C_25
REMARK                            x       y       z     vdW  Elec       q    Type
REMARK                         _______ _______ _______ _____ _____    ______ ____
ROOT
ATOM      1  C   UNL     1      -3.544   5.382  -2.133  0.00  0.00    +0.064 C 
ATOM      2  C   UNL     1      -4.036   4.786  -0.969  0.00  0.00    +0.103 C 
ATOM      3  C   UNL     1      -3.982   5.477   0.328  0.00  0.00    +0.257 C 
ATOM      4  O   UNL     1      -3.505   6.593   0.421  0.00  0.00    -0.270 OA
ATOM      5  N   UNL     1      -4.476   4.843   1.410  0.00  0.00    -0.235 N 
ATOM      6  C   UNL     1      -5.005   3.614   1.321  0.00  0.00    +0.320 C 
ATOM      7  O   UNL     1      -5.432   3.095   2.334  0.00  0.00    -0.251 OA
ATOM      8  N   UNL     1      -5.085   2.927   0.172  0.00  0.00    -0.190 N 
ATOM      9  C   UNL     1      -4.636   3.444  -0.990  0.00  0.00    +0.264 C 
ATOM     10  O   UNL     1      -4.720   2.813  -2.028  0.00  0.00    -0.269 OA
ATOM     11  H   UNL     1      -4.448   5.285   2.273  0.00  0.00    +0.159 HD
ENDROOT
BRANCH   8  12
ATOM     12  C   UNL     1      -5.655   1.647   0.178  0.00  0.00    +0.046 A 
ATOM     13  C   UNL     1      -4.854   0.530   0.371  0.00  0.00    +0.024 A 
ATOM     14  C   UNL     1      -5.420  -0.730   0.381  0.00  0.00    +0.006 A 
ATOM     15  C   UNL     1      -6.781  -0.880   0.189  0.00  0.00    -0.041 A 
ATOM     16  C   UNL     1      -7.581   0.231  -0.010  0.00  0.00    +0.006 A 
ATOM     17  C   UNL     1      -7.022   1.494  -0.015  0.00  0.00    +0.024 A 
BRANCH  15  18
ATOM     18  C   UNL     1      -7.395  -2.257   0.195  0.00  0.00    -0.003 C 
ATOM     19  C   UNL     1      -8.069  -2.521  -1.153  0.00  0.00    +0.015 C 
ATOM     20  C   UNL     1      -8.691  -3.918  -1.147  0.00  0.00    -0.010 C 
ATOM     21  C   UNL     1      -7.598  -4.963  -0.909  0.00  0.00    +0.007 C 
ATOM     22  C   UNL     1      -6.924  -4.698   0.439  0.00  0.00    -0.010 C 
ATOM     23  C   UNL     1      -6.302  -3.301   0.432  0.00  0.00    +0.015 C 
ATOM     24  C   UNL     1      -7.966  -4.787   1.556  0.00  0.00    +0.007 C 
ATOM     25  C   UNL     1      -9.059  -3.743   1.319  0.00  0.00    -0.010 C 
ATOM     26  C   UNL     1      -9.733  -4.008  -0.029  0.00  0.00    +0.007 C 
ATOM     27  C   UNL     1      -8.436  -2.346   1.312  0.00  0.00    +0.015 C 
ENDBRANCH  15  18
ENDBRANCH   8  12
BRANCH   1  31
ATOM     28  C   UNL     1      -3.085   2.955  -4.679  0.00  0.00    +0.189 A 
ATOM     29  C   UNL     1      -3.461   4.033  -5.457  0.00  0.00    +0.066 A 
ATOM     30  C   UNL     1      -3.686   5.101  -4.597  0.00  0.00    +0.051 A 
ATOM     31  C   UNL     1      -3.438   4.636  -3.307  0.00  0.00    +0.131 A 
ATOM     32  O   UNL     1      -3.082   3.333  -3.392  0.00  0.00    -0.442 OA
BRANCH  28  34
ATOM     33  C   UNL     1      -2.823   1.421  -6.583  0.00  0.00    +0.132 C 
ATOM     34  N   UNL     1      -2.772   1.701  -5.146  0.00  0.00    -0.308 N 
ATOM     35  C   UNL     1      -2.388   0.645  -4.206  0.00  0.00    +0.132 C 
ENDBRANCH  28  34
ENDBRANCH   1  31
TORSDOF 4
