REMARK  Name = ZINC15222982
REMARK  9 active torsions:
REMARK  status: ('A' for Active; 'I' for Inactive)
REMARK    1  A    between atoms: C_1  and  C_2
REMARK    2  A    between atoms: C_5  and  C_22
REMARK    3  A    between atoms: N_10  and  C_11
REMARK    4  A    between atoms: C_13  and  C_16
REMARK    5  A    between atoms: C_16  and  C_20
REMARK    6  A    between atoms: N_17  and  O_18
REMARK    7  A    between atoms: O_18  and  C_19
REMARK    8  A    between atoms: C_26  and  O_28
REMARK    9  A    between atoms: O_28  and  C_29
REMARK                            x       y       z     vdW  Elec       q    Type
REMARK                         _______ _______ _______ _____ _____    ______ ____
ROOT
ATOM      1  C   UNL     1      -2.867   2.746   0.739  0.00  0.00    +0.111 C 
ATOM      2  C   UNL     1      -3.963   1.726   0.567  0.00  0.00    +0.232 C 
ATOM      3  O   UNL     1      -5.123   2.051   0.716  0.00  0.00    -0.274 OA
ATOM      4  N   UNL     1      -3.655   0.453   0.247  0.00  0.00    -0.184 N 
ATOM      5  C   UNL     1      -4.622  -0.638   0.049  0.00  0.00    +0.138 C 
ATOM      6  C   UNL     1      -3.733  -1.850  -0.293  0.00  0.00    +0.102 C 
ATOM      7  C   UNL     1      -2.328  -1.294  -0.249  0.00  0.00    +0.120 C 
ATOM      8  N   UNL     1      -2.368  -0.046   0.054  0.00  0.00    -0.166 NA
ATOM      9  N   UNL     1      -1.176  -2.018  -0.492  0.00  0.00    -0.296 N 
ATOM     10  H   UNL     1      -1.233  -2.961  -0.712  0.00  0.00    +0.154 HD
ENDROOT
BRANCH   5  11
ATOM     11  C   UNL     1      -5.401  -0.892   1.314  0.00  0.00    -0.021 A 
ATOM     12  C   UNL     1      -4.792  -0.731   2.545  0.00  0.00    +0.006 A 
ATOM     13  C   UNL     1      -5.504  -0.963   3.707  0.00  0.00    +0.004 A 
ATOM     14  C   UNL     1      -6.827  -1.356   3.641  0.00  0.00    +0.046 A 
ATOM     15  C   UNL     1      -7.441  -1.518   2.408  0.00  0.00    +0.129 A 
ATOM     16  C   UNL     1      -6.725  -1.280   1.243  0.00  0.00    +0.051 A 
BRANCH  15  17
ATOM     17  O   UNL     1      -8.742  -1.904   2.340  0.00  0.00    -0.456 OA
BRANCH  17  18
ATOM     18  C   UNL     1      -9.407  -2.110   3.507  0.00  0.00    +0.128 A 
ATOM     19  C   UNL     1      -9.410  -3.368   4.093  0.00  0.00    +0.046 A 
ATOM     20  C   UNL     1     -10.083  -3.573   5.282  0.00  0.00    +0.004 A 
ATOM     21  C   UNL     1     -10.763  -2.529   5.882  0.00  0.00    +0.000 A 
ATOM     22  C   UNL     1     -10.766  -1.276   5.297  0.00  0.00    +0.004 A 
ATOM     23  C   UNL     1     -10.090  -1.064   4.111  0.00  0.00    +0.046 A 
ENDBRANCH  17  18
ENDBRANCH  15  17
ENDBRANCH   5  11
BRANCH   9  24
ATOM     24  C   UNL     1       0.070  -1.392  -0.422  0.00  0.00    +0.071 A 
ATOM     25  C   UNL     1       1.303  -1.924  -0.625  0.00  0.00    +0.041 A 
ATOM     26  C   UNL     1       2.420  -1.099  -0.500  0.00  0.00    +0.020 A 
ATOM     27  C   UNL     1       2.225   0.217  -0.177  0.00  0.00    +0.057 A 
ATOM     28  S   UNL     1       0.447   0.310  -0.044  0.00  0.00    -0.081 S 
BRANCH  26  29
ATOM     29  C   UNL     1       3.783  -1.633  -0.711  0.00  0.00    +0.198 C 
ATOM     30  N   UNL     1       3.951  -2.888  -1.018  0.00  0.00    -0.077 NA
BRANCH  29  31
ATOM     31  C   UNL     1       4.957  -0.740  -0.574  0.00  0.00    +0.408 C 
ATOM     32  O   UNL     1       4.801   0.429  -0.289  0.00  0.00    -0.239 OA
ATOM     33  O   UNL     1       6.198  -1.226  -0.766  0.00  0.00    -0.239 OA
ENDBRANCH  29  31
BRANCH  30  34
ATOM     34  O   UNL     1       5.256  -3.399  -1.220  0.00  0.00    -0.396 OA
ATOM     35  C   UNL     1       5.291  -4.789  -1.549  0.00  0.00    +0.313 C 
ENDBRANCH  30  34
ENDBRANCH  26  29
ENDBRANCH   9  24
TORSDOF 7
