REMARK  Name = ZINC09382226
REMARK  10 active torsions:
REMARK  status: ('A' for Active; 'I' for Inactive)
REMARK    1  A    between atoms: C_1  and  O_2
REMARK    2  A    between atoms: O_2  and  C_3
REMARK    3  A    between atoms: C_6  and  C_11
REMARK    4  A    between atoms: C_8  and  O_9
REMARK    5  A    between atoms: O_9  and  C_10
REMARK    6  A    between atoms: C_14  and  C_24
REMARK    7  A    between atoms: C_17  and  C_19
REMARK    8  A    between atoms: C_28  and  N_30
REMARK    9  A    between atoms: N_30  and  S_31
REMARK   10  A    between atoms: S_31  and  C_34
REMARK                            x       y       z     vdW  Elec       q    Type
REMARK                         _______ _______ _______ _____ _____    ______ ____
ROOT
ATOM      1  C   UNL     1       1.523   6.933   0.028  0.00  0.00    +0.137 C 
ATOM      2  C   UNL     1       0.369   7.954   0.038  0.00  0.00    +0.087 C 
ATOM      3  C   UNL     1      -0.876   7.096   0.047  0.00  0.00    +0.069 C 
ATOM      4  N   UNL     1      -0.542   5.852   0.038  0.00  0.00    -0.181 NA
ATOM      5  N   UNL     1       0.834   5.633   0.023  0.00  0.00    -0.179 N 
ATOM      6  C   UNL     1       1.435   4.427   0.011  0.00  0.00    +0.302 C 
ATOM      7  O   UNL     1       2.651   4.352  -0.001  0.00  0.00    -0.265 OA
ENDROOT
BRANCH   1  11
ATOM      8  C   UNL     1       3.894   7.389  -3.501  0.00  0.00    +0.162 A 
ATOM      9  C   UNL     1       2.653   6.777  -3.571  0.00  0.00    +0.050 A 
ATOM     10  C   UNL     1       1.891   6.627  -2.428  0.00  0.00    +0.009 A 
ATOM     11  C   UNL     1       2.360   7.095  -1.214  0.00  0.00    -0.021 A 
ATOM     12  C   UNL     1       3.598   7.706  -1.137  0.00  0.00    +0.055 A 
ATOM     13  C   UNL     1       4.369   7.855  -2.279  0.00  0.00    +0.162 A 
BRANCH   8  15
ATOM     14  C   UNL     1       4.096   7.031  -5.844  0.00  0.00    +0.277 C 
ATOM     15  O   UNL     1       4.647   7.533  -4.625  0.00  0.00    -0.491 OA
ENDBRANCH   8  15
BRANCH  13  16
ATOM     16  O   UNL     1       5.587   8.455  -2.205  0.00  0.00    -0.491 OA
ATOM     17  C   UNL     1       6.010   8.909  -0.918  0.00  0.00    +0.277 C 
ENDBRANCH  13  16
ENDBRANCH   1  11
BRANCH   3  18
ATOM     18  C   UNL     1      -2.260   7.605   0.062  0.00  0.00    -0.000 A 
ATOM     19  C   UNL     1      -2.501   8.982   0.071  0.00  0.00    +0.010 A 
ATOM     20  C   UNL     1      -3.797   9.455   0.085  0.00  0.00    +0.002 A 
ATOM     21  C   UNL     1      -4.861   8.572   0.091  0.00  0.00    +0.024 A 
ATOM     22  C   UNL     1      -4.632   7.200   0.082  0.00  0.00    +0.048 A 
ATOM     23  C   UNL     1      -3.334   6.714   0.063  0.00  0.00    +0.034 A 
BRANCH  22  24
ATOM     24  N   UNL     1      -5.711   6.313   0.087  0.00  0.00    -0.221 N 
ATOM     25  H   UNL     1      -5.703   5.543   0.677  0.00  0.00    +0.173 HD
BRANCH  24  26
ATOM     26  S   UNL     1      -7.004   6.575  -0.914  0.00  0.00    +0.040 S 
ATOM     27  O   UNL     1      -7.904   5.512  -0.630  0.00  0.00    -0.155 OA
ATOM     28  O   UNL     1      -7.379   7.924  -0.676  0.00  0.00    -0.155 OA
ATOM     29  C   UNL     1      -6.338   6.398  -2.592  0.00  0.00    +0.218 C 
ENDBRANCH  24  26
ENDBRANCH  22  24
ENDBRANCH   3  18
BRANCH   6  30
ATOM     30  C   UNL     1       0.626   3.204   0.013  0.00  0.00    +0.191 A 
ATOM     31  C   UNL     1       1.105   1.925   0.002  0.00  0.00    +0.054 A 
ATOM     32  C   UNL     1      -0.013   1.076   0.008  0.00  0.00    +0.042 A 
ATOM     33  C   UNL     1      -1.111   1.864   0.017  0.00  0.00    +0.196 A 
ATOM     34  O   UNL     1      -0.721   3.145   0.025  0.00  0.00    -0.458 OA
ENDBRANCH   6  30
TORSDOF 7
