REMARK  Name = ZINC05728829
REMARK  4 active torsions:
REMARK  status: ('A' for Active; 'I' for Inactive)
REMARK    1  A    between atoms: C_4  and  C_8
REMARK    2  A    between atoms: C_17  and  C_25
REMARK    3  A    between atoms: C_19  and  C_20
REMARK    4  A    between atoms: C_19  and  C_22
REMARK                            x       y       z     vdW  Elec       q    Type
REMARK                         _______ _______ _______ _____ _____    ______ ____
ROOT
ATOM      1  C   UNL     1       2.451   3.938  -0.000  0.00  0.00    +0.069 C 
ATOM      2  C   UNL     1       2.568   4.731  -1.304  0.00  0.00    +0.027 C 
ATOM      3  C   UNL     1       2.804   3.829  -2.493  0.00  0.00    +0.009 C 
ATOM      4  C   UNL     1       1.515   3.555  -3.265  0.00  0.00    +0.005 C 
ATOM      5  C   UNL     1       0.943   4.898  -3.740  0.00  0.00    +0.027 C 
ATOM      6  C   UNL     1       0.638   5.726  -2.519  0.00  0.00    -0.026 C 
ATOM      7  C   UNL     1       1.365   5.619  -1.425  0.00  0.00    -0.047 C 
ATOM      8  C   UNL     1       0.962   6.374  -0.209  0.00  0.00    +0.164 C 
ATOM      9  C   UNL     1       1.481   6.023   0.994  0.00  0.00    +0.065 C 
ATOM     10  C   UNL     1       2.473   4.914   1.177  0.00  0.00    +0.188 C 
ATOM     11  N   UNL     1       1.077   6.718   2.099  0.00  0.00    -0.304 NA
ATOM     12  H   UNL     1       0.435   7.440   2.011  0.00  0.00    +0.186 HD
ENDROOT
BRANCH   1  16
ATOM     13  C   UNL     1      -1.218   1.748   0.024  0.00  0.00    +0.003 A 
ATOM     14  C   UNL     1      -1.048   2.821   0.879  0.00  0.00    +0.020 A 
ATOM     15  C   UNL     1       0.141   3.529   0.873  0.00  0.00    +0.046 A 
ATOM     16  C   UNL     1       1.157   3.167   0.007  0.00  0.00    -0.004 A 
ATOM     17  C   UNL     1       0.984   2.097  -0.852  0.00  0.00    +0.046 A 
ATOM     18  C   UNL     1      -0.205   1.389  -0.845  0.00  0.00    +0.020 A 
ATOM     19 CL   UNL     1       2.259   1.641  -1.938  0.00  0.00    -0.083 Cl
ATOM     20 CL   UNL     1       0.357   4.872   1.952  0.00  0.00    -0.083 Cl
ENDBRANCH   1  16
BRANCH  10  21
ATOM     21  C   UNL     1       2.154   4.183   2.413  0.00  0.00    +0.091 C 
ATOM     22  N   UNL     1       1.907   3.618   3.368  0.00  0.00    -0.195 NA
ENDBRANCH  10  21
BRANCH  10  23
ATOM     23  C   UNL     1       3.821   5.492   1.297  0.00  0.00    +0.091 C 
ATOM     24  N   UNL     1       4.862   5.938   1.390  0.00  0.00    -0.195 NA
ENDBRANCH  10  23
BRANCH   8  25
ATOM     25  C   UNL     1       0.035   7.461  -0.308  0.00  0.00    +0.076 C 
ATOM     26  N   UNL     1      -0.701   8.323  -0.386  0.00  0.00    -0.196 NA
ENDBRANCH   8  25
TORSDOF 4
