REMARK  Name = ZINC05043618
REMARK  7 active torsions:
REMARK  status: ('A' for Active; 'I' for Inactive)
REMARK    1  A    between atoms: C_4  and  C_7
REMARK    2  A    between atoms: N_9  and  C_10
REMARK    3  A    between atoms: C_10  and  C_12
REMARK    4  A    between atoms: C_10  and  C_22
REMARK    5  A    between atoms: N_14  and  C_15
REMARK    6  A    between atoms: C_15  and  C_16
REMARK    7  A    between atoms: C_16  and  N_72
REMARK                            x       y       z     vdW  Elec       q    Type
REMARK                         _______ _______ _______ _____ _____    ______ ____
ROOT
ATOM      1  C   UNL     1       2.981   3.919   0.101  0.00  0.00    +0.165 C 
ENDROOT
BRANCH   1   2
ATOM      2  C   UNL     1       3.772   3.529  -1.149  0.00  0.00    -0.002 C 
ATOM      3  C   UNL     1       5.224   3.988  -0.997  0.00  0.00    +0.012 C 
ATOM      4  C   UNL     1       6.016   3.598  -2.246  0.00  0.00    -0.010 C 
ATOM      5  C   UNL     1       5.977   2.078  -2.421  0.00  0.00    +0.007 C 
ATOM      6  C   UNL     1       4.526   1.619  -2.573  0.00  0.00    -0.010 C 
ATOM      7  C   UNL     1       3.734   2.010  -1.323  0.00  0.00    +0.012 C 
ATOM      8  C   UNL     1       3.905   2.290  -3.800  0.00  0.00    +0.007 C 
ATOM      9  C   UNL     1       3.944   3.809  -3.626  0.00  0.00    -0.010 C 
ATOM     10  C   UNL     1       5.396   4.268  -3.473  0.00  0.00    +0.007 C 
ATOM     11  C   UNL     1       3.152   4.199  -2.376  0.00  0.00    +0.012 C 
ENDBRANCH   1   2
BRANCH   1  14
ATOM     12  C   UNL     1       3.928   6.056   0.789  0.00  0.00    +0.217 C 
ATOM     13  O   UNL     1       4.885   5.457   1.230  0.00  0.00    -0.275 OA
ATOM     14  N   UNL     1       2.920   5.380   0.204  0.00  0.00    -0.303 N 
ATOM     15  H   UNL     1       2.154   5.859  -0.149  0.00  0.00    +0.149 HD
BRANCH  12  19
ATOM     16  C   UNL     1       4.972  10.205   0.302  0.00  0.00    +0.000 C 
ATOM     17  C   UNL     1       5.060   9.598   1.703  0.00  0.00    +0.001 C 
ATOM     18  C   UNL     1       5.124   8.073   1.595  0.00  0.00    +0.013 C 
ATOM     19  C   UNL     1       3.865   7.558   0.895  0.00  0.00    +0.075 C 
ATOM     20  C   UNL     1       3.776   8.165  -0.506  0.00  0.00    +0.013 C 
ATOM     21  C   UNL     1       3.713   9.690  -0.399  0.00  0.00    +0.001 C 
ENDBRANCH  12  19
ENDBRANCH   1  14
BRANCH   1  22
ATOM     22  C   UNL     1       1.583   3.364   0.004  0.00  0.00    +0.234 C 
ATOM     23  O   UNL     1       0.694   4.038  -0.471  0.00  0.00    -0.274 OA
ATOM     24  N   UNL     1       1.321   2.117   0.444  0.00  0.00    -0.316 N 
ATOM     25  H   UNL     1       2.044   1.552   0.759  0.00  0.00    +0.149 HD
BRANCH  24  26
ATOM     26  C   UNL     1      -0.055   1.616   0.448  0.00  0.00    +0.086 C 
BRANCH  26  27
ATOM     27  C   UNL     1      -0.075   0.186   0.992  0.00  0.00    -0.060 C 
BRANCH  27  33
ATOM     28  C   UNL     1      -2.285   0.426   1.955  0.00  0.00    -0.050 C 
ATOM     29  C   UNL     1      -3.725  -0.088   1.883  0.00  0.00    +0.141 C 
ATOM     30  O   UNL     1      -3.736  -1.496   2.136  0.00  0.00    -0.383 OA
ATOM     31  C   UNL     1      -2.938  -2.251   1.219  0.00  0.00    +0.141 C 
ATOM     32  C   UNL     1      -1.490  -1.758   1.284  0.00  0.00    -0.050 C 
ATOM     33  N   UNL     1      -1.467  -0.314   0.971  0.00  0.00    +0.384 N 
ATOM     34  H   UNL     1      -1.860  -0.169   0.033  0.00  0.00    -0.082 HD
ENDBRANCH  27  33
ENDBRANCH  26  27
ENDBRANCH  24  26
ENDBRANCH   1  22
TORSDOF 7
