REMARK  Name = ZINC48397717
REMARK  5 active torsions:
REMARK  status: ('A' for Active; 'I' for Inactive)
REMARK    1  A    between atoms: C_1  and  C_2
REMARK    2  A    between atoms: C_4  and  N_17
REMARK    3  A    between atoms: C_6  and  S_8
REMARK    4  A    between atoms: S_8  and  C_9
REMARK    5  A    between atoms: C_9  and  C_10
REMARK                            x       y       z     vdW  Elec       q    Type
REMARK                         _______ _______ _______ _____ _____    ______ ____
ROOT
ATOM      1  C   UNL     1      -0.018   1.503   0.010  0.00  0.00    +0.066 C 
ATOM      2  C   UNL     1       0.002  -0.004   0.002  0.00  0.00    +0.044 A 
ATOM      3  C   UNL     1       0.006  -0.696  -1.194  0.00  0.00    +0.066 A 
ATOM      4  C   UNL     1       0.025  -2.091  -1.157  0.00  0.00    +0.121 A 
ATOM      5  N   UNL     1       0.039  -2.705   0.022  0.00  0.00    -0.207 NA
ATOM      6  C   UNL     1       0.035  -2.005   1.147  0.00  0.00    +0.190 A 
ATOM      7  N   UNL     1       0.022  -0.679   1.141  0.00  0.00    -0.227 NA
ENDROOT
BRANCH   4   8
ATOM      8  N   UNL     1       0.029  -2.826  -2.331  0.00  0.00    -0.343 N 
ATOM      9  H   UNL     1       0.018  -2.371  -3.188  0.00  0.00    +0.144 HD
ATOM     10  H   UNL     1       0.042  -3.795  -2.297  0.00  0.00    +0.144 HD
ENDBRANCH   4   8
BRANCH   6  11
ATOM     11  S   UNL     1       0.053  -2.857   2.690  0.00  0.00    -0.083 S 
BRANCH  11  12
ATOM     12  C   UNL     1       0.075  -4.610   2.222  0.00  0.00    +0.109 C 
BRANCH  12  13
ATOM     13  C   UNL     1       0.092  -5.474   3.485  0.00  0.00    +0.128 C 
ATOM     14  C   UNL     1       0.111  -6.953   3.091  0.00  0.00    +0.032 C 
ATOM     15  C   UNL     1       0.190  -7.810   4.358  0.00  0.00    +0.005 C 
ATOM     16  C   UNL     1       1.431  -7.406   5.159  0.00  0.00    +0.028 C 
ATOM     17  C   UNL     1       1.362  -5.909   5.473  0.00  0.00    +0.160 C 
ATOM     18  O   UNL     1       1.259  -5.172   4.253  0.00  0.00    -0.376 OA
ENDBRANCH  12  13
ENDBRANCH  11  12
ENDBRANCH   6  11
TORSDOF 4
