REMARK  Name = ZINC39035205
REMARK  12 active torsions:
REMARK  status: ('A' for Active; 'I' for Inactive)
REMARK    1  A    between atoms: C_1  and  C_2
REMARK    2  A    between atoms: C_2  and  O_3
REMARK    3  A    between atoms: O_3  and  C_4
REMARK    4  A    between atoms: C_4  and  C_6
REMARK    5  A    between atoms: C_8  and  N_20
REMARK    6  A    between atoms: C_11  and  O_18
REMARK    7  A    between atoms: C_12  and  O_16
REMARK    8  A    between atoms: O_16  and  C_17
REMARK    9  A    between atoms: O_18  and  C_19
REMARK   10  A    between atoms: C_21  and  C_23
REMARK   11  A    between atoms: C_23  and  C_26
REMARK   12  A    between atoms: C_29  and  C_32
REMARK                            x       y       z     vdW  Elec       q    Type
REMARK                         _______ _______ _______ _____ _____    ______ ____
ROOT
ATOM      1  C   UNL     1       1.952  -2.718  -0.989  0.00  0.00    +0.234 C 
ATOM      2  C   UNL     1       3.415  -2.356  -0.865  0.00  0.00    +0.053 C 
ATOM      3  C   UNL     1       4.042  -3.483  -0.371  0.00  0.00    +0.021 A 
ATOM      4  C   UNL     1       5.396  -3.757  -0.048  0.00  0.00    +0.061 A 
ATOM      5  C   UNL     1       5.739  -4.980   0.430  0.00  0.00    +0.162 A 
ATOM      6  C   UNL     1       4.778  -5.993   0.614  0.00  0.00    +0.163 A 
ATOM      7  C   UNL     1       3.464  -5.793   0.323  0.00  0.00    +0.075 A 
ATOM      8  C   UNL     1       3.034  -4.541  -0.179  0.00  0.00    +0.049 A 
ATOM      9  N   UNL     1       1.838  -4.107  -0.532  0.00  0.00    -0.367 N 
ATOM     10  H   UNL     1       1.017  -4.622  -0.496  0.00  0.00    +0.161 HD
ENDROOT
BRANCH   2  11
ATOM     11  N   UNL     1       3.997  -1.161  -1.176  0.00  0.00    -0.285 N 
ATOM     12  C   UNL     1       3.266  -0.186  -1.754  0.00  0.00    +0.228 C 
ATOM     13  O   UNL     1       2.115  -0.398  -2.070  0.00  0.00    -0.275 OA
ATOM     14  H   UNL     1       4.935  -1.012  -0.982  0.00  0.00    +0.155 HD
BRANCH  12  15
ATOM     15  C   UNL     1       3.881   1.166  -2.009  0.00  0.00    +0.072 C 
ATOM     16  C   UNL     1       3.843   2.185  -0.868  0.00  0.00    +0.022 C 
ATOM     17  C   UNL     1       2.937   2.367  -2.087  0.00  0.00    +0.022 C 
BRANCH  15  18
ATOM     18  C   UNL     1       5.090   1.171  -2.908  0.00  0.00    -0.032 A 
ATOM     19  C   UNL     1       5.615   2.370  -3.354  0.00  0.00    +0.005 A 
ATOM     20  C   UNL     1       6.724   2.375  -4.178  0.00  0.00    +0.003 A 
ATOM     21  C   UNL     1       7.310   1.181  -4.556  0.00  0.00    -0.050 A 
ATOM     22  C   UNL     1       6.786  -0.017  -4.110  0.00  0.00    +0.003 A 
ATOM     23  C   UNL     1       5.679  -0.022  -3.282  0.00  0.00    +0.005 A 
ATOM     24  C   UNL     1       8.519   1.187  -5.456  0.00  0.00    +0.044 C 
ENDBRANCH  15  18
ENDBRANCH  12  15
ENDBRANCH   2  11
BRANCH   1  25
ATOM     25  C   UNL     1       1.118  -1.815  -0.117  0.00  0.00    +0.336 C 
ATOM     26  O   UNL     1       1.055  -2.014   1.073  0.00  0.00    -0.248 OA
BRANCH  25  27
ATOM     27  O   UNL     1       0.445  -0.790  -0.663  0.00  0.00    -0.463 OA
BRANCH  27  29
ATOM     28  C   UNL     1      -1.034   1.119  -0.568  0.00  0.00    +0.048 C 
ATOM     29  C   UNL     1      -0.234   0.091   0.234  0.00  0.00    +0.229 C 
ENDBRANCH  27  29
ENDBRANCH  25  27
ENDBRANCH   1  25
BRANCH   6  30
ATOM     30  O   UNL     1       5.173  -7.199   1.093  0.00  0.00    -0.491 OA
ATOM     31  C   UNL     1       4.160  -8.193   1.262  0.00  0.00    +0.277 C 
ENDBRANCH   6  30
BRANCH   5  32
ATOM     32  O   UNL     1       7.040  -5.233   0.737  0.00  0.00    -0.491 OA
ATOM     33  C   UNL     1       7.973  -4.171   0.531  0.00  0.00    +0.277 C 
ENDBRANCH   5  32
TORSDOF 8
