REMARK  Name = ZINC13164560
REMARK  10 active torsions:
REMARK  status: ('A' for Active; 'I' for Inactive)
REMARK    1  A    between atoms: C_1  and  N_59
REMARK    2  A    between atoms: C_2  and  C_3
REMARK    3  A    between atoms: C_2  and  N_59
REMARK    4  A    between atoms: C_8  and  C_9
REMARK    5  A    between atoms: C_8  and  N_59
REMARK    6  A    between atoms: N_11  and  C_12
REMARK    7  A    between atoms: C_14  and  S_20
REMARK    8  A    between atoms: C_17  and  O_18
REMARK    9  A    between atoms: O_18  and  C_19
REMARK   10  A    between atoms: S_20  and  N_23
REMARK                            x       y       z     vdW  Elec       q    Type
REMARK                         _______ _______ _______ _____ _____    ______ ____
ROOT
ATOM      1  C   UNL     1      -1.757   1.037  -5.814  0.00  0.00    +0.077 A 
ATOM      2  C   UNL     1      -2.860   1.844  -5.574  0.00  0.00    +0.055 A 
ATOM      3  C   UNL     1      -3.760   2.102  -6.590  0.00  0.00    +0.107 A 
ATOM      4  C   UNL     1      -3.572   1.549  -7.843  0.00  0.00    +0.032 A 
ATOM      5  C   UNL     1      -2.479   0.739  -8.088  0.00  0.00    +0.049 A 
ATOM      6  C   UNL     1      -1.568   0.479  -7.077  0.00  0.00    +0.141 A 
ENDROOT
BRANCH   1   9
ATOM      7  C   UNL     1      -0.710   1.646  -3.765  0.00  0.00    +0.201 C 
ATOM      8  O   UNL     1      -1.312   2.699  -3.783  0.00  0.00    -0.278 OA
ATOM      9  N   UNL     1      -0.839   0.778  -4.788  0.00  0.00    -0.284 N 
ATOM     10  H   UNL     1      -0.298  -0.026  -4.813  0.00  0.00    +0.155 HD
BRANCH   7  11
ATOM     11  C   UNL     1       0.184   1.309  -2.600  0.00  0.00    +0.019 C 
BRANCH  11  13
ATOM     12  C   UNL     1       0.756   3.626  -2.188  0.00  0.00    -0.095 C 
ATOM     13  N   UNL     1       0.127   2.415  -1.620  0.00  0.00    +0.386 N 
ATOM     14  H   UNL     1      -0.856   2.619  -1.405  0.00  0.00    -0.081 HD
BRANCH  13  15
ATOM     15  C   UNL     1       0.820   2.022  -0.375  0.00  0.00    -0.042 C 
BRANCH  15  16
ATOM     16  C   UNL     1       0.559   3.070   0.677  0.00  0.00    -0.057 A 
ATOM     17  C   UNL     1       1.421   4.140   0.830  0.00  0.00    +0.009 A 
ATOM     18  C   UNL     1       1.154   5.067   1.782  0.00  0.00    +0.045 A 
ATOM     19  S   UNL     1      -0.346   4.429   2.510  0.00  0.00    -0.105 S 
ATOM     20  C   UNL     1      -0.520   2.973   1.491  0.00  0.00    +0.047 A 
ENDBRANCH  15  16
ENDBRANCH  13  15
ENDBRANCH  11  13
ENDBRANCH   7  11
ENDBRANCH   1   9
BRANCH   3  21
ATOM     21  S   UNL     1      -5.156   3.134  -6.285  0.00  0.00    +0.061 S 
ATOM     22  O   UNL     1      -4.813   3.968  -5.188  0.00  0.00    -0.153 OA
ATOM     23  O   UNL     1      -5.557   3.657  -7.544  0.00  0.00    -0.153 OA
BRANCH  21  24
ATOM     24  N   UNL     1      -6.386   2.153  -5.767  0.00  0.00    -0.177 NA
ATOM     25  C   UNL     1      -7.283   1.588  -6.750  0.00  0.00    +0.109 C 
ATOM     26  C   UNL     1      -8.466   2.548  -6.995  0.00  0.00    +0.017 C 
ATOM     27  C   UNL     1      -9.361   2.563  -5.828  0.00  0.00    +0.001 C 
ATOM     28  C   UNL     1      -8.714   3.077  -4.545  0.00  0.00    +0.001 C 
ATOM     29  C   UNL     1      -7.992   1.943  -3.860  0.00  0.00    +0.017 C 
ATOM     30  C   UNL     1      -6.524   1.896  -4.320  0.00  0.00    +0.109 C 
ENDBRANCH  21  24
ENDBRANCH   3  21
BRANCH   6  31
ATOM     31  O   UNL     1      -0.493  -0.317  -7.316  0.00  0.00    -0.493 OA
ATOM     32  C   UNL     1      -0.363  -0.854  -8.634  0.00  0.00    +0.277 C 
ENDBRANCH   6  31
TORSDOF 8
