REMARK  Name = ZINC02308257
REMARK  6 active torsions:
REMARK  status: ('A' for Active; 'I' for Inactive)
REMARK    1  A    between atoms: C_6  and  C_7
REMARK    2  A    between atoms: C_10  and  C_12
REMARK    3  A    between atoms: C_12  and  C_30
REMARK    4  A    between atoms: C_13  and  N_14
REMARK    5  A    between atoms: N_14  and  C_15
REMARK    6  A    between atoms: C_19  and  C_26
REMARK                            x       y       z     vdW  Elec       q    Type
REMARK                         _______ _______ _______ _____ _____    ______ ____
ROOT
ATOM      1  C   UNL     1      -0.017   1.428   0.010  0.00  0.00    +0.098 C 
ATOM      2  C   UNL     1      -1.206   2.093   0.019  0.00  0.00    +0.093 C 
ENDROOT
BRANCH   1   6
ATOM      3  C   UNL     1       3.525   2.560  -0.018  0.00  0.00    +0.079 A 
ATOM      4  C   UNL     1       3.302   3.910  -0.008  0.00  0.00    +0.075 A 
ATOM      5  S   UNL     1       1.514   3.951   0.001  0.00  0.00    -0.074 S 
ATOM      6  C   UNL     1       1.250   2.183   0.002  0.00  0.00    +0.120 A 
ATOM      7  N   UNL     1       2.496   1.731  -0.013  0.00  0.00    -0.238 NA
BRANCH   3  13
ATOM      8  C   UNL     1       5.135   0.655  -0.043  0.00  0.00    +0.011 A 
ATOM      9  C   UNL     1       6.426   0.168  -0.058  0.00  0.00    +0.022 A 
ATOM     10  C   UNL     1       7.498   1.042  -0.062  0.00  0.00    +0.059 A 
ATOM     11  C   UNL     1       7.282   2.411  -0.052  0.00  0.00    +0.060 A 
ATOM     12  C   UNL     1       5.994   2.908  -0.044  0.00  0.00    +0.031 A 
ATOM     13  C   UNL     1       4.911   2.031  -0.033  0.00  0.00    +0.002 A 
ATOM     14 CL   UNL     1       8.633   3.502  -0.058  0.00  0.00    -0.082 Cl
ATOM     15 CL   UNL     1       9.120   0.422  -0.079  0.00  0.00    -0.082 Cl
ENDBRANCH   3  13
ENDBRANCH   1   6
BRANCH   2  16
ATOM     16  N   UNL     1      -2.381   1.393   0.021  0.00  0.00    -0.319 N 
ATOM     17  H   UNL     1      -2.368   0.423   0.016  0.00  0.00    +0.152 HD
BRANCH  16  18
ATOM     18  C   UNL     1      -3.596   2.073   0.030  0.00  0.00    +0.034 A 
ATOM     19  C   UNL     1      -3.609   3.469   0.038  0.00  0.00    +0.024 A 
ATOM     20  C   UNL     1      -4.792   4.148   0.047  0.00  0.00    +0.014 A 
ATOM     21  C   UNL     1      -6.001   3.442   0.049  0.00  0.00    +0.029 A 
ATOM     22  C   UNL     1      -7.284   4.146   0.058  0.00  0.00    +0.072 A 
ATOM     23  C   UNL     1      -8.423   3.405   0.059  0.00  0.00    +0.105 A 
ATOM     24  C   UNL     1      -8.344   1.997   0.050  0.00  0.00    +0.338 A 
ATOM     25  O   UNL     1      -9.372   1.345   0.051  0.00  0.00    -0.245 OA
ATOM     26  O   UNL     1      -7.164   1.358   0.042  0.00  0.00    -0.422 OA
ATOM     27  C   UNL     1      -5.995   2.034   0.041  0.00  0.00    +0.141 A 
ATOM     28  C   UNL     1      -4.785   1.358   0.026  0.00  0.00    +0.070 A 
BRANCH  22  29
ATOM     29  C   UNL     1      -7.341   5.652   0.068  0.00  0.00    +0.418 C 
ATOM     30  F   UNL     1      -8.677   6.068   0.075  0.00  0.00    -0.166 F 
ATOM     31  F   UNL     1      -6.695   6.136   1.210  0.00  0.00    -0.166 F 
ATOM     32  F   UNL     1      -6.704   6.150  -1.074  0.00  0.00    -0.166 F 
ENDBRANCH  22  29
ENDBRANCH  16  18
ENDBRANCH   2  16
BRANCH   1  33
ATOM     33  C   UNL     1       0.002  -0.004   0.002  0.00  0.00    +0.103 C 
ATOM     34  N   UNL     1       0.018  -1.140  -0.004  0.00  0.00    -0.191 NA
ENDBRANCH   1  33
TORSDOF 6
