REMARK  Name = ZINC64048343
REMARK  6 active torsions:
REMARK  status: ('A' for Active; 'I' for Inactive)
REMARK    1  A    between atoms: C_4  and  N_7
REMARK    2  A    between atoms: N_10  and  C_11
REMARK    3  A    between atoms: C_14  and  C_17
REMARK    4  A    between atoms: N_19  and  C_20
REMARK    5  A    between atoms: C_20  and  C_21
REMARK    6  A    between atoms: C_21  and  C_22
REMARK                            x       y       z     vdW  Elec       q    Type
REMARK                         _______ _______ _______ _____ _____    ______ ____
ROOT
ATOM      1  C   UNL     1       4.952  -4.037   0.103  0.00  0.00    +0.035 A 
ATOM      2  C   UNL     1       3.761  -4.755   0.103  0.00  0.00    +0.024 A 
ATOM      3  C   UNL     1       3.786  -6.132   0.091  0.00  0.00    +0.015 A 
ATOM      4  C   UNL     1       5.009  -6.807   0.079  0.00  0.00    +0.037 A 
ATOM      5  C   UNL     1       6.204  -6.082   0.079  0.00  0.00    +0.015 A 
ATOM      6  C   UNL     1       6.172  -4.706   0.085  0.00  0.00    +0.024 A 
ENDROOT
BRANCH   1  10
ATOM      7  N   UNL     1       3.853  -0.652   0.698  0.00  0.00    -0.269 N 
ATOM      8  C   UNL     1       3.941  -1.994   0.772  0.00  0.00    +0.308 C 
ATOM      9  O   UNL     1       3.135  -2.621   1.431  0.00  0.00    -0.252 OA
ATOM     10  N   UNL     1       4.924  -2.643   0.115  0.00  0.00    -0.269 N 
ATOM     11  H   UNL     1       4.449  -0.158   0.113  0.00  0.00    +0.156 HD
ATOM     12  H   UNL     1       5.611  -2.139  -0.349  0.00  0.00    +0.156 HD
BRANCH   7  16
ATOM     13  C   UNL     1       1.021   1.380   2.981  0.00  0.00    +0.000 A 
ATOM     14  C   UNL     1       1.602   0.225   3.470  0.00  0.00    +0.002 A 
ATOM     15  C   UNL     1       2.541  -0.451   2.716  0.00  0.00    +0.023 A 
ATOM     16  C   UNL     1       2.902   0.030   1.464  0.00  0.00    +0.035 A 
ATOM     17  C   UNL     1       2.316   1.191   0.975  0.00  0.00    +0.023 A 
ATOM     18  C   UNL     1       1.378   1.862   1.735  0.00  0.00    +0.002 A 
ENDBRANCH   7  16
ENDBRANCH   1  10
BRANCH   4  19
ATOM     19  C   UNL     1       5.040  -8.282   0.067  0.00  0.00    +0.244 C 
ATOM     20  O   UNL     1       3.999  -8.912   0.067  0.00  0.00    -0.270 OA
ATOM     21  N   UNL     1       6.220  -8.932   0.054  0.00  0.00    -0.311 N 
ATOM     22  H   UNL     1       7.050  -8.430   0.054  0.00  0.00    +0.149 HD
BRANCH  21  23
ATOM     23  C   UNL     1       6.250 -10.397   0.042  0.00  0.00    +0.109 C 
BRANCH  23  24
ATOM     24  C   UNL     1       7.703 -10.877   0.030  0.00  0.00    +0.052 C 
BRANCH  24  25
ATOM     25  C   UNL     1       7.734 -12.383   0.017  0.00  0.00    -0.040 C 
ATOM     26  C   UNL     1       7.844 -13.185  -1.066  0.00  0.00    -0.001 A 
ATOM     27  C   UNL     1       7.963 -12.906  -2.502  0.00  0.00    +0.010 A 
ATOM     28  C   UNL     1       8.058 -13.942  -3.366  0.00  0.00    +0.001 A 
ATOM     29  C   UNL     1       8.046 -15.273  -2.926  0.00  0.00    +0.002 A 
ATOM     30  C   UNL     1       7.940 -15.609  -1.623  0.00  0.00    +0.026 A 
ATOM     31  C   UNL     1       7.834 -14.599  -0.627  0.00  0.00    +0.043 A 
ATOM     32  N   UNL     1       7.723 -14.668   0.677  0.00  0.00    -0.380 N 
ATOM     33  C   UNL     1       7.655 -13.305   1.214  0.00  0.00    +0.144 C 
ATOM     34  H   UNL     1       7.694 -15.485   1.201  0.00  0.00    +0.160 HD
ENDBRANCH  24  25
ENDBRANCH  23  24
ENDBRANCH  21  23
ENDBRANCH   4  19
TORSDOF 6
