REMARK  Name = ZINC02353321
REMARK  11 active torsions:
REMARK  status: ('A' for Active; 'I' for Inactive)
REMARK    1  A    between atoms: C_1  and  C_2
REMARK    2  A    between atoms: C_5  and  C_8
REMARK    3  A    between atoms: C_11  and  S_20
REMARK    4  A    between atoms: N_12  and  C_13
REMARK    5  A    between atoms: S_20  and  C_21
REMARK    6  A    between atoms: C_21  and  C_22
REMARK    7  A    between atoms: N_24  and  N_25
REMARK    8  A    between atoms: C_26  and  C_27
REMARK    9  A    between atoms: C_28  and  C_29
REMARK   10  A    between atoms: C_34  and  O_35
REMARK   11  A    between atoms: O_35  and  C_36
REMARK                            x       y       z     vdW  Elec       q    Type
REMARK                         _______ _______ _______ _____ _____    ______ ____
ROOT
ATOM      1  C   UNL     1      -2.501   0.983  -0.132  0.00  0.00    +0.169 A 
ATOM      2  N   UNL     1      -2.643  -0.300   0.108  0.00  0.00    -0.128 NA
ATOM      3  N   UNL     1      -3.890  -0.589   0.226  0.00  0.00    -0.122 NA
ATOM      4  C   UNL     1      -4.622   0.491   0.069  0.00  0.00    +0.197 A 
ATOM      5  N   UNL     1      -3.764   1.532  -0.159  0.00  0.00    -0.270 N 
ENDROOT
BRANCH   1  10
ATOM      6  C   UNL     1       2.464   3.793  -0.890  0.00  0.00    +0.044 C 
ATOM      7  C   UNL     1       1.164   3.056  -0.694  0.00  0.00    -0.050 A 
ATOM      8  C   UNL     1      -0.024   3.632  -1.107  0.00  0.00    +0.004 A 
ATOM      9  C   UNL     1      -1.217   2.963  -0.931  0.00  0.00    +0.012 A 
ATOM     10  C   UNL     1      -1.225   1.704  -0.329  0.00  0.00    +0.020 A 
ATOM     11  C   UNL     1      -0.023   1.126   0.081  0.00  0.00    +0.012 A 
ATOM     12  C   UNL     1       1.164   1.806  -0.101  0.00  0.00    +0.004 A 
ENDBRANCH   1  10
BRANCH   5  13
ATOM     13  C   UNL     1      -4.100   2.876  -0.377  0.00  0.00    +0.051 A 
ATOM     14  C   UNL     1      -3.775   3.837   0.571  0.00  0.00    +0.028 A 
ATOM     15  C   UNL     1      -4.102   5.160   0.351  0.00  0.00    +0.022 A 
ATOM     16  C   UNL     1      -4.763   5.528  -0.807  0.00  0.00    +0.041 A 
ATOM     17  C   UNL     1      -5.094   4.571  -1.751  0.00  0.00    +0.022 A 
ATOM     18  C   UNL     1      -4.764   3.247  -1.538  0.00  0.00    +0.028 A 
ATOM     19 CL   UNL     1      -5.179   7.191  -1.077  0.00  0.00    -0.084 Cl
ENDBRANCH   5  13
BRANCH   4  20
ATOM     20  S   UNL     1      -6.380   0.583   0.144  0.00  0.00    -0.076 S 
BRANCH  20  21
ATOM     21  C   UNL     1      -6.771  -1.152   0.479  0.00  0.00    +0.174 C 
BRANCH  21  22
ATOM     22  C   UNL     1      -8.265  -1.319   0.588  0.00  0.00    +0.242 C 
ATOM     23  O   UNL     1      -8.994  -0.358   0.452  0.00  0.00    -0.273 OA
ATOM     24  N   UNL     1      -8.791  -2.534   0.836  0.00  0.00    -0.206 N 
ATOM     25  H   UNL     1      -8.209  -3.302   0.945  0.00  0.00    +0.177 HD
BRANCH  24  26
ATOM     26  N   UNL     1     -10.180  -2.689   0.937  0.00  0.00    -0.188 NA
ATOM     27  C   UNL     1     -10.689  -3.864   1.177  0.00  0.00    +0.130 C 
BRANCH  27  28
ATOM     28  C   UNL     1     -12.094  -4.020   1.279  0.00  0.00    +0.022 C 
ATOM     29  C   UNL     1     -12.621  -5.237   1.528  0.00  0.00    +0.013 C 
BRANCH  29  30
ATOM     30  C   UNL     1     -14.079  -5.400   1.633  0.00  0.00    +0.017 A 
ATOM     31  C   UNL     1     -14.923  -4.296   1.478  0.00  0.00    +0.011 A 
ATOM     32  C   UNL     1     -16.288  -4.456   1.578  0.00  0.00    +0.001 A 
ATOM     33  C   UNL     1     -16.829  -5.705   1.833  0.00  0.00    +0.004 A 
ATOM     34  C   UNL     1     -16.006  -6.805   1.990  0.00  0.00    +0.046 A 
ATOM     35  C   UNL     1     -14.632  -6.665   1.886  0.00  0.00    +0.127 A 
BRANCH  35  36
ATOM     36  O   UNL     1     -13.823  -7.745   2.034  0.00  0.00    -0.495 OA
ATOM     37  C   UNL     1     -14.457  -9.000   2.289  0.00  0.00    +0.277 C 
ENDBRANCH  35  36
ENDBRANCH  29  30
ENDBRANCH  27  28
ENDBRANCH  24  26
ENDBRANCH  21  22
ENDBRANCH  20  21
ENDBRANCH   4  20
TORSDOF 9
