REMARK  Name = ZINC51394464
REMARK  3 active torsions:
REMARK  status: ('A' for Active; 'I' for Inactive)
REMARK    1  A    between atoms: N_5  and  C_9
REMARK    2  A    between atoms: C_9  and  C_10
REMARK    3  A    between atoms: C_14  and  C_17
REMARK                            x       y       z     vdW  Elec       q    Type
REMARK                         _______ _______ _______ _____ _____    ______ ____
ROOT
ATOM      1  C   UNL     1      -3.594  -0.807   0.015  0.00  0.00    +0.179 C 
ENDROOT
BRANCH   1   6
ATOM      2  C   UNL     1      -0.017   1.403   0.010  0.00  0.00    +0.079 A 
ATOM      3  C   UNL     1      -1.207   2.062   0.019  0.00  0.00    +0.077 A 
ATOM      4  C   UNL     1      -2.406   1.320   0.021  0.00  0.00    +0.268 A 
ATOM      5  O   UNL     1      -3.484   1.893   0.029  0.00  0.00    -0.266 OA
ATOM      6  N   UNL     1      -2.353  -0.027   0.013  0.00  0.00    -0.223 N 
ATOM      7  N   UNL     1      -1.117  -0.684   0.004  0.00  0.00    -0.126 NA
ATOM      8  C   UNL     1       0.002  -0.004   0.002  0.00  0.00    +0.287 A 
ATOM      9  O   UNL     1       1.190  -0.662  -0.013  0.00  0.00    -0.264 OA
ENDBRANCH   1   6
BRANCH   1  10
ATOM     10  C   UNL     1      -4.033  -1.070  -1.427  0.00  0.00    +0.141 C 
ATOM     11  C   UNL     1      -5.364  -1.864  -1.447  0.00  0.00    +0.036 C 
ATOM     12  C   UNL     1      -5.926  -1.461  -2.837  0.00  0.00    +0.046 C 
ATOM     13  C   UNL     1      -5.439  -0.003  -2.978  0.00  0.00    +0.231 C 
ATOM     14  O   UNL     1      -4.323   0.169  -2.094  0.00  0.00    -0.360 OA
BRANCH  13  15
ATOM     15  C   UNL     1      -5.010   0.259  -4.398  0.00  0.00    +0.384 C 
ATOM     16  O   UNL     1      -5.831   0.221  -5.299  0.00  0.00    -0.243 OA
ATOM     17  O   UNL     1      -3.843   0.508  -4.647  0.00  0.00    -0.243 OA
ENDBRANCH  13  15
ENDBRANCH   1  10
TORSDOF 3
