REMARK  Name = ZINC63698974
REMARK  4 active torsions:
REMARK  status: ('A' for Active; 'I' for Inactive)
REMARK    1  A    between atoms: C_1  and  C_2
REMARK    2  A    between atoms: C_4  and  C_23
REMARK    3  A    between atoms: N_12  and  C_14
REMARK    4  A    between atoms: C_28  and  N_29
REMARK                            x       y       z     vdW  Elec       q    Type
REMARK                         _______ _______ _______ _____ _____    ______ ____
ROOT
ATOM      1  C   UNL     1      -0.766   0.315  -0.417  0.00  0.00    +0.062 C 
ATOM      2  C   UNL     1      -1.439  -1.018  -0.625  0.00  0.00    +0.019 C 
ATOM      3  C   UNL     1      -2.721  -1.218  -0.518  0.00  0.00    -0.008 C 
ATOM      4  C   UNL     1      -3.866  -0.251  -0.348  0.00  0.00    +0.060 C 
ATOM      5  C   UNL     1      -4.749  -0.410  -1.595  0.00  0.00    +0.108 C 
ATOM      6  C   UNL     1      -4.833  -1.834  -2.041  0.00  0.00    +0.215 C 
ATOM      7  O   UNL     1      -5.768  -2.116  -2.759  0.00  0.00    -0.276 OA
ATOM      8  N   UNL     1      -4.000  -2.830  -1.740  0.00  0.00    -0.295 N 
ATOM      9  C   UNL     1      -2.964  -2.705  -0.723  0.00  0.00    +0.194 C 
ATOM     10  N   UNL     1      -1.657  -3.216  -1.149  0.00  0.00    -0.164 NA
ATOM     11  N   UNL     1      -0.773  -2.187  -0.960  0.00  0.00    -0.277 N 
ATOM     12  H   UNL     1      -4.087  -3.671  -2.216  0.00  0.00    +0.151 HD
ATOM     13  H   UNL     1       0.190  -2.265  -1.047  0.00  0.00    +0.166 HD
ENDROOT
BRANCH  10  14
ATOM     14  C   UNL     1      -1.271  -4.397  -0.364  0.00  0.00    +0.270 C 
ATOM     15  N   UNL     1      -2.240  -5.480  -0.574  0.00  0.00    -0.350 N 
ATOM     16  C   UNL     1      -2.769  -5.760   0.581  0.00  0.00    +0.061 A 
ATOM     17  C   UNL     1      -3.783  -6.736   1.006  0.00  0.00    +0.027 A 
ATOM     18  C   UNL     1      -4.142  -6.799   2.304  0.00  0.00    +0.002 A 
ATOM     19  C   UNL     1      -3.584  -5.963   3.287  0.00  0.00    +0.002 A 
ATOM     20  C   UNL     1      -2.648  -5.035   3.005  0.00  0.00    +0.027 A 
ATOM     21  C   UNL     1      -2.178  -4.875   1.622  0.00  0.00    +0.061 A 
ATOM     22  N   UNL     1      -1.306  -4.082   1.069  0.00  0.00    -0.350 N 
ATOM     23  H   UNL     1      -2.448  -5.908  -1.420  0.00  0.00    +0.163 HD
ATOM     24  H   UNL     1      -0.776  -3.408   1.522  0.00  0.00    +0.163 HD
ENDBRANCH  10  14
BRANCH   4  25
ATOM     25  C   UNL     1      -3.344   1.159  -0.257  0.00  0.00    -0.009 A 
ATOM     26  C   UNL     1      -2.921   1.815  -1.398  0.00  0.00    +0.006 A 
ATOM     27  C   UNL     1      -2.442   3.109  -1.314  0.00  0.00    +0.000 A 
ATOM     28  C   UNL     1      -2.385   3.747  -0.089  0.00  0.00    +0.002 A 
ATOM     29  C   UNL     1      -2.809   3.092   1.052  0.00  0.00    +0.033 A 
ATOM     30  C   UNL     1      -3.292   1.800   0.967  0.00  0.00    +0.130 A 
BRANCH  30  31
ATOM     31  N   UNL     1      -3.751   1.099   2.188  0.00  0.00    +0.057 N 
ATOM     32  O   UNL     1      -4.347   1.708   3.046  0.00  0.00    -0.126 OA
ATOM     33  O   UNL     1      -3.529  -0.081   2.328  0.00  0.00    -0.126 OA
ENDBRANCH  30  31
ENDBRANCH   4  25
TORSDOF 3
