REMARK  Name = ZINC13239490
REMARK  8 active torsions:
REMARK  status: ('A' for Active; 'I' for Inactive)
REMARK    1  A    between atoms: C_4  and  N_9
REMARK    2  A    between atoms: C_5  and  C_7
REMARK    3  A    between atoms: N_9  and  S_10
REMARK    4  A    between atoms: S_10  and  C_13
REMARK    5  A    between atoms: C_17  and  N_19
REMARK    6  A    between atoms: N_19  and  S_20
REMARK    7  A    between atoms: S_20  and  C_23
REMARK    8  A    between atoms: C_26  and  C_29
REMARK                            x       y       z     vdW  Elec       q    Type
REMARK                         _______ _______ _______ _____ _____    ______ ____
ROOT
ATOM      1  C   UNL     1       2.764   4.309  -1.309  0.00  0.00    +0.110 A 
ATOM      2  C   UNL     1       3.967   3.930  -0.742  0.00  0.00    +0.029 A 
ATOM      3  C   UNL     1       4.060   2.744  -0.037  0.00  0.00    +0.004 A 
ATOM      4  C   UNL     1       2.949   1.936   0.108  0.00  0.00    +0.024 A 
ATOM      5  C   UNL     1       1.741   2.311  -0.464  0.00  0.00    +0.050 A 
ATOM      6  C   UNL     1       1.651   3.503  -1.172  0.00  0.00    +0.053 A 
ENDROOT
BRANCH   1   7
ATOM      7  S   UNL     1       2.651   5.821  -2.206  0.00  0.00    +0.072 S 
ATOM      8  O   UNL     1       3.965   6.127  -2.653  0.00  0.00    -0.150 OA
ATOM      9  O   UNL     1       1.555   5.682  -3.099  0.00  0.00    -0.150 OA
BRANCH   7  10
ATOM     10  N   UNL     1       2.232   7.002  -1.124  0.00  0.00    -0.215 N 
ATOM     11  H   UNL     1       1.410   7.502  -1.245  0.00  0.00    +0.174 HD
BRANCH  10  15
ATOM     12  C   UNL     1       4.715   7.829   2.119  0.00  0.00    +0.001 A 
ATOM     13  C   UNL     1       5.255   7.408   0.913  0.00  0.00    +0.002 A 
ATOM     14  C   UNL     1       4.436   7.129  -0.161  0.00  0.00    +0.025 A 
ATOM     15  C   UNL     1       3.059   7.278  -0.043  0.00  0.00    +0.062 A 
ATOM     16  C   UNL     1       2.509   7.704   1.177  0.00  0.00    +0.085 A 
ATOM     17  C   UNL     1       3.353   7.978   2.257  0.00  0.00    +0.017 A 
BRANCH  16  18
ATOM     18  C   UNL     1       1.051   7.860   1.317  0.00  0.00    +0.388 C 
ATOM     19  O   UNL     1       0.320   7.621   0.376  0.00  0.00    -0.241 OA
ATOM     20  O   UNL     1       0.527   8.269   2.489  0.00  0.00    -0.241 OA
ENDBRANCH  16  18
ENDBRANCH  10  15
ENDBRANCH   7  10
ENDBRANCH   1   7
BRANCH   5  21
ATOM     21  N   UNL     1       0.616   1.494  -0.323  0.00  0.00    -0.216 N 
ATOM     22  H   UNL     1      -0.240   1.884  -0.086  0.00  0.00    +0.174 HD
BRANCH  21  23
ATOM     23  S   UNL     1       0.743  -0.139  -0.568  0.00  0.00    +0.072 S 
ATOM     24  O   UNL     1       1.840  -0.584   0.219  0.00  0.00    -0.150 OA
ATOM     25  O   UNL     1      -0.565  -0.674  -0.424  0.00  0.00    -0.150 OA
BRANCH  23  26
ATOM     26  C   UNL     1       1.202  -0.379  -2.252  0.00  0.00    +0.109 A 
ATOM     27  C   UNL     1       0.228  -0.412  -3.234  0.00  0.00    +0.029 A 
ATOM     28  C   UNL     1       0.581  -0.595  -4.555  0.00  0.00    +0.015 A 
ATOM     29  C   UNL     1       1.924  -0.756  -4.899  0.00  0.00    +0.037 A 
ATOM     30  C   UNL     1       2.902  -0.727  -3.904  0.00  0.00    +0.015 A 
ATOM     31  C   UNL     1       2.535  -0.539  -2.587  0.00  0.00    +0.029 A 
BRANCH  29  32
ATOM     32  C   UNL     1       2.309  -0.958  -6.312  0.00  0.00    +0.242 C 
ATOM     33  O   UNL     1       3.479  -1.098  -6.609  0.00  0.00    -0.270 OA
ATOM     34  N   UNL     1       1.363  -0.986  -7.271  0.00  0.00    -0.325 N 
ATOM     35  H   UNL     1       0.429  -0.874  -7.035  0.00  0.00    +0.145 HD
ATOM     36  H   UNL     1       1.615  -1.118  -8.198  0.00  0.00    +0.145 HD
ENDBRANCH  29  32
ENDBRANCH  23  26
ENDBRANCH  21  23
ENDBRANCH   5  21
TORSDOF 8
