REMARK  Name = ZINC20190936
REMARK  10 active torsions:
REMARK  status: ('A' for Active; 'I' for Inactive)
REMARK    1  A    between atoms: C_1  and  C_2
REMARK    2  A    between atoms: C_2  and  S_3
REMARK    3  A    between atoms: S_3  and  C_4
REMARK    4  A    between atoms: C_4  and  C_5
REMARK    5  A    between atoms: C_5  and  O_6
REMARK    6  A    between atoms: O_6  and  C_7
REMARK    7  A    between atoms: C_7  and  C_9
REMARK    8  A    between atoms: C_10  and  C_38
REMARK    9  A    between atoms: C_14  and  C_16
REMARK   10  A    between atoms: C_30  and  C_33
REMARK                            x       y       z     vdW  Elec       q    Type
REMARK                         _______ _______ _______ _____ _____    ______ ____
ROOT
ATOM      1  C   UNL     1      -5.804   3.299  -1.170  0.00  0.00    +0.065 C 
ATOM      2  C   UNL     1      -6.764   2.358  -1.138  0.00  0.00    +0.016 C 
ATOM      3  N   UNL     1      -7.089   1.740   0.037  0.00  0.00    -0.321 N 
ATOM      4  C   UNL     1      -6.763   2.311   1.238  0.00  0.00    +0.016 C 
ATOM      5  C   UNL     1      -5.798   3.252   1.310  0.00  0.00    +0.024 C 
ATOM      6  C   UNL     1      -5.059   3.693   0.071  0.00  0.00    +0.099 C 
ATOM      7  C   UNL     1      -5.453   3.846   2.537  0.00  0.00    +0.162 C 
ATOM      8  O   UNL     1      -4.589   4.700   2.564  0.00  0.00    -0.292 OA
ATOM      9  C   UNL     1      -6.133   3.441   3.816  0.00  0.00    +0.088 C 
ATOM     10  C   UNL     1      -6.597   1.986   3.695  0.00  0.00    +0.039 C 
ATOM     11  C   UNL     1      -7.509   1.867   2.472  0.00  0.00    +0.060 C 
ATOM     12  C   UNL     1      -7.485   1.981  -2.406  0.00  0.00    +0.061 C 
ATOM     13  H   UNL     1      -7.618   0.776   0.024  0.00  0.00    +0.152 HD
ENDROOT
BRANCH   6  14
ATOM     14  C   UNL     1      -3.695   3.051   0.054  0.00  0.00    +0.047 A 
ATOM     15  C   UNL     1      -3.578   1.711   0.046  0.00  0.00    +0.204 A 
ATOM     16  O   UNL     1      -2.396   1.086   0.031  0.00  0.00    -0.462 OA
ATOM     17  C   UNL     1      -1.225   1.755   0.017  0.00  0.00    +0.138 A 
ATOM     18  C   UNL     1      -0.013   1.076   0.008  0.00  0.00    +0.047 A 
ATOM     19  C   UNL     1       1.171   1.782   0.000  0.00  0.00    +0.004 A 
ATOM     20  C   UNL     1       1.168   3.170   0.007  0.00  0.00    +0.001 A 
ATOM     21  C   UNL     1      -0.022   3.862   0.023  0.00  0.00    +0.015 A 
ATOM     22  C   UNL     1      -1.226   3.159   0.031  0.00  0.00    +0.064 A 
ATOM     23  C   UNL     1      -2.526   3.857   0.048  0.00  0.00    +0.197 A 
ATOM     24  O   UNL     1      -2.594   5.075   0.054  0.00  0.00    -0.287 OA
ENDBRANCH   6  14
BRANCH  10  25
ATOM     25  C   UNL     1      -7.358   1.592   4.935  0.00  0.00    -0.006 A 
ATOM     26  C   UNL     1      -7.087   0.608   5.826  0.00  0.00    +0.011 A 
ATOM     27  C   UNL     1      -7.934   0.426   6.903  0.00  0.00    +0.008 A 
ATOM     28  C   UNL     1      -9.011   1.239   7.036  0.00  0.00    +0.045 A 
ATOM     29  S   UNL     1      -8.846   2.306   5.614  0.00  0.00    -0.101 S 
ENDBRANCH  10  25
BRANCH   1  30
ATOM     30  C   UNL     1      -5.492   3.930  -2.397  0.00  0.00    +0.338 C 
ATOM     31  O   UNL     1      -6.089   3.619  -3.410  0.00  0.00    -0.245 OA
BRANCH  30  32
ATOM     32  O   UNL     1      -4.531   4.876  -2.443  0.00  0.00    -0.460 OA
BRANCH  32  33
ATOM     33  C   UNL     1      -4.268   5.471  -3.715  0.00  0.00    +0.243 C 
BRANCH  33  34
ATOM     34  C   UNL     1      -3.157   6.513  -3.570  0.00  0.00    +0.110 C 
BRANCH  34  35
ATOM     35  S   UNL     1      -2.822   7.269  -5.185  0.00  0.00    -0.158 S 
BRANCH  35  37
ATOM     36  C   UNL     1      -1.117   9.182  -6.141  0.00  0.00    +0.015 C 
ATOM     37  C   UNL     1      -1.500   8.464  -4.845  0.00  0.00    +0.066 C 
ENDBRANCH  35  37
ENDBRANCH  34  35
ENDBRANCH  33  34
ENDBRANCH  32  33
ENDBRANCH  30  32
ENDBRANCH   1  30
TORSDOF 8
