REMARK  Name = ZINC12993089
REMARK  7 active torsions:
REMARK  status: ('A' for Active; 'I' for Inactive)
REMARK    1  A    between atoms: C_1  and  S_2
REMARK    2  A    between atoms: S_2  and  C_3
REMARK    3  A    between atoms: C_3  and  C_4
REMARK    4  A    between atoms: C_4  and  C_5
REMARK    5  A    between atoms: C_5  and  C_7
REMARK    6  A    between atoms: C_5  and  N_16
REMARK    7  A    between atoms: C_17  and  C_19
REMARK                            x       y       z     vdW  Elec       q    Type
REMARK                         _______ _______ _______ _____ _____    ______ ____
ROOT
ATOM      1  N   UNL     1       4.857   0.067  -0.060  0.00  0.00    -0.301 N 
ATOM      2  C   UNL     1       3.707  -0.636  -0.051  0.00  0.00    +0.245 C 
ATOM      3  O   UNL     1       3.738  -1.852  -0.061  0.00  0.00    -0.270 OA
ATOM      4  H   UNL     1       4.832   1.037  -0.052  0.00  0.00    +0.150 HD
ENDROOT
BRANCH   2   5
ATOM      5  C   UNL     1       2.412   0.069  -0.029  0.00  0.00    +0.039 A 
ATOM      6  C   UNL     1       2.378   1.466  -0.017  0.00  0.00    +0.014 A 
ATOM      7  C   UNL     1       1.167   2.121   0.002  0.00  0.00    +0.017 A 
ATOM      8  C   UNL     1      -0.017   1.395   0.010  0.00  0.00    +0.030 A 
ATOM      9  C   UNL     1       0.002  -0.004   0.002  0.00  0.00    +0.048 A 
ATOM     10  C   UNL     1       1.222  -0.662  -0.019  0.00  0.00    +0.037 A 
ATOM     11  N   UNL     1      -1.175  -0.748   0.021  0.00  0.00    -0.284 N 
ATOM     12  C   UNL     1      -2.379  -0.325  -0.355  0.00  0.00    +0.227 C 
ATOM     13  O   UNL     1      -3.307  -1.104  -0.288  0.00  0.00    -0.275 OA
ATOM     14  C   UNL     1      -2.654   1.065  -0.858  0.00  0.00    +0.170 C 
ATOM     15  S   UNL     1      -1.572   2.231   0.022  0.00  0.00    -0.114 S 
ATOM     16  H   UNL     1      -1.111  -1.663   0.337  0.00  0.00    +0.155 HD
ENDBRANCH   2   5
BRANCH   1  17
ATOM     17  C   UNL     1       6.144  -0.633  -0.083  0.00  0.00    +0.142 C 
BRANCH  17  18
ATOM     18  C   UNL     1       7.208   0.254   0.511  0.00  0.00    +0.158 A 
ATOM     19  N   UNL     1       7.387   1.524   0.257  0.00  0.00    -0.132 NA
ATOM     20  N   UNL     1       8.384   1.978   0.932  0.00  0.00    -0.129 NA
ATOM     21  C   UNL     1       8.901   1.005   1.665  0.00  0.00    +0.161 A 
ATOM     22  N   UNL     1       8.154  -0.120   1.415  0.00  0.00    -0.285 N 
ATOM     23  C   UNL     1       8.456  -1.300   2.029  0.00  0.00    +0.094 A 
ATOM     24  C   UNL     1       9.485  -1.376   2.899  0.00  0.00    +0.018 A 
ATOM     25  C   UNL     1      10.263  -0.241   3.180  0.00  0.00    +0.005 A 
ATOM     26  C   UNL     1       9.977   0.941   2.571  0.00  0.00    +0.048 A 
ENDBRANCH  17  18
BRANCH  17  27
ATOM     27  C   UNL     1       6.513  -0.975  -1.527  0.00  0.00    +0.041 C 
BRANCH  27  28
ATOM     28  C   UNL     1       5.499  -1.974  -2.090  0.00  0.00    +0.071 C 
BRANCH  28  30
ATOM     29  C   UNL     1       4.656  -3.557  -4.316  0.00  0.00    +0.084 C 
ATOM     30  S   UNL     1       5.937  -2.380  -3.803  0.00  0.00    -0.164 S 
ENDBRANCH  28  30
ENDBRANCH  27  28
ENDBRANCH  17  27
ENDBRANCH   1  17
TORSDOF 6
