REMARK  Name = ZINC40906714
REMARK  6 active torsions:
REMARK  status: ('A' for Active; 'I' for Inactive)
REMARK    1  A    between atoms: C_3  and  N_22
REMARK    2  A    between atoms: C_6  and  C_7
REMARK    3  A    between atoms: C_9  and  C_12
REMARK    4  A    between atoms: C_25  and  C_28
REMARK    5  A    between atoms: N_30  and  C_31
REMARK    6  A    between atoms: C_31  and  C_32
REMARK                            x       y       z     vdW  Elec       q    Type
REMARK                         _______ _______ _______ _____ _____    ______ ____
ROOT
ATOM      1  C   UNL     1      -0.017   1.389   0.010  0.00  0.00    +0.013 A 
ATOM      2  C   UNL     1       1.168   2.095   0.002  0.00  0.00    +0.027 A 
ATOM      3  C   UNL     1       2.381   1.418  -0.013  0.00  0.00    +0.065 A 
ATOM      4  C   UNL     1       2.404   0.026  -0.021  0.00  0.00    +0.145 A 
ATOM      5  C   UNL     1       1.220  -0.683  -0.013  0.00  0.00    +0.052 A 
ATOM      6  C   UNL     1       0.002  -0.004   0.002  0.00  0.00    +0.025 A 
ATOM      7  F   UNL     1       3.584  -0.631  -0.036  0.00  0.00    -0.204 F 
ENDROOT
BRANCH   3   8
ATOM      8  N   UNL     1       3.579   2.135  -0.021  0.00  0.00    -0.328 N 
ATOM      9  C   UNL     1       4.206   2.530  -1.290  0.00  0.00    +0.106 C 
ATOM     10  C   UNL     1       5.657   2.038  -1.297  0.00  0.00    +0.031 C 
ATOM     11  C   UNL     1       6.375   2.560  -0.051  0.00  0.00    +0.078 C 
ATOM     12  C   UNL     1       5.687   2.015   1.202  0.00  0.00    +0.031 C 
ATOM     13  C   UNL     1       4.234   2.512   1.239  0.00  0.00    +0.106 C 
BRANCH  11  14
ATOM     14  C   UNL     1       7.812   2.106  -0.073  0.00  0.00    +0.216 C 
ATOM     15  O   UNL     1       8.221   1.431  -0.994  0.00  0.00    -0.276 OA
ATOM     16  N   UNL     1       8.643   2.449   0.931  0.00  0.00    -0.313 N 
ATOM     17  H   UNL     1       8.316   2.989   1.668  0.00  0.00    +0.149 HD
BRANCH  16  18
ATOM     18  C   UNL     1      10.039   2.007   0.911  0.00  0.00    +0.135 C 
BRANCH  18  19
ATOM     19  C   UNL     1      10.758   2.529   2.156  0.00  0.00    +0.135 C 
ATOM     20  C   UNL     1      12.247   2.102   2.137  0.00  0.00    +0.035 C 
ATOM     21  C   UNL     1      12.881   3.201   3.033  0.00  0.00    +0.031 C 
ATOM     22  C   UNL     1      12.020   4.437   2.694  0.00  0.00    +0.160 C 
ATOM     23  O   UNL     1      10.777   3.965   2.156  0.00  0.00    -0.375 OA
ENDBRANCH  18  19
ENDBRANCH  16  18
ENDBRANCH  11  14
ENDBRANCH   3   8
BRANCH   6  24
ATOM     24  C   UNL     1      -1.272  -0.764   0.011  0.00  0.00    +0.202 A 
ATOM     25  N   UNL     1      -1.383  -2.102   0.010  0.00  0.00    -0.187 NA
ATOM     26  C   UNL     1      -2.651  -2.445   0.019  0.00  0.00    +0.259 A 
ATOM     27  O   UNL     1      -3.391  -1.322   0.026  0.00  0.00    -0.332 OA
ATOM     28  N   UNL     1      -2.474  -0.239   0.026  0.00  0.00    -0.056 NA
BRANCH  26  29
ATOM     29  C   UNL     1      -3.173  -3.826   0.021  0.00  0.00    +0.043 A 
ATOM     30  C   UNL     1      -2.291  -4.909   0.018  0.00  0.00    +0.017 A 
ATOM     31  C   UNL     1      -2.780  -6.197   0.020  0.00  0.00    +0.050 A 
ATOM     32  C   UNL     1      -4.150  -6.424   0.024  0.00  0.00    +0.166 A 
ATOM     33  C   UNL     1      -5.037  -5.347   0.027  0.00  0.00    +0.167 A 
ATOM     34  C   UNL     1      -4.551  -4.053   0.031  0.00  0.00    +0.062 A 
ATOM     35  O   UNL     1      -6.312  -5.834   0.031  0.00  0.00    -0.453 OA
ATOM     36  C   UNL     1      -6.200  -7.208  -0.383  0.00  0.00    +0.466 C 
ATOM     37  O   UNL     1      -4.871  -7.582   0.027  0.00  0.00    -0.453 OA
ENDBRANCH  26  29
ENDBRANCH   6  24
TORSDOF 6
