REMARK  Name = ZINC35697995
REMARK  13 active torsions:
REMARK  status: ('A' for Active; 'I' for Inactive)
REMARK    1  A    between atoms: C_1  and  C_2
REMARK    2  A    between atoms: C_2  and  N_3
REMARK    3  A    between atoms: N_3  and  C_4
REMARK    4  A    between atoms: C_4  and  C_5
REMARK    5  A    between atoms: C_6  and  C_8
REMARK    6  A    between atoms: C_9  and  C_34
REMARK    7  A    between atoms: C_13  and  C_15
REMARK    8  A    between atoms: C_18  and  N_21
REMARK    9  A    between atoms: C_24  and  C_27
REMARK   10  A    between atoms: C_28  and  N_30
REMARK   11  A    between atoms: N_30  and  C_31
REMARK   12  A    between atoms: C_31  and  C_32
REMARK   13  A    between atoms: C_31  and  C_33
REMARK                            x       y       z     vdW  Elec       q    Type
REMARK                         _______ _______ _______ _____ _____    ______ ____
ROOT
ATOM      1  C   UNL     1      -1.708  -0.672  -2.718  0.00  0.00    +0.060 C 
ATOM      2  C   UNL     1      -2.295  -0.766  -3.964  0.00  0.00    +0.051 C 
ATOM      3  N   UNL     1      -3.565  -0.434  -4.134  0.00  0.00    -0.230 NA
ATOM      4  C   UNL     1      -4.363   0.000  -3.181  0.00  0.00    +0.166 C 
ATOM      5  N   UNL     1      -3.976   0.164  -1.879  0.00  0.00    -0.267 N 
ATOM      6  C   UNL     1      -2.564  -0.186  -1.570  0.00  0.00    +0.148 C 
ATOM      7  C   UNL     1      -4.931   0.628  -0.996  0.00  0.00    +0.048 C 
ATOM      8  C   UNL     1      -6.165   0.882  -1.483  0.00  0.00    +0.072 C 
ATOM      9  S   UNL     1      -5.976   0.464  -3.205  0.00  0.00    -0.060 S 
ATOM     10  C   UNL     1      -1.484  -1.251  -5.138  0.00  0.00    +0.066 C 
ENDROOT
BRANCH   6  11
ATOM     11  C   UNL     1      -2.569  -1.256  -0.509  0.00  0.00    -0.022 A 
ATOM     12  C   UNL     1      -3.315  -2.406  -0.690  0.00  0.00    +0.008 A 
ATOM     13  C   UNL     1      -3.320  -3.388   0.283  0.00  0.00    +0.033 A 
ATOM     14  C   UNL     1      -2.577  -3.220   1.437  0.00  0.00    +0.126 A 
ATOM     15  C   UNL     1      -1.830  -2.071   1.617  0.00  0.00    +0.033 A 
ATOM     16  C   UNL     1      -1.823  -1.091   0.642  0.00  0.00    +0.008 A 
BRANCH  14  17
ATOM     17  N   UNL     1      -2.582  -4.271   2.479  0.00  0.00    +0.056 N 
ATOM     18  O   UNL     1      -3.236  -5.276   2.321  0.00  0.00    -0.126 OA
ATOM     19  O   UNL     1      -1.933  -4.125   3.488  0.00  0.00    -0.126 OA
ENDBRANCH  14  17
ENDBRANCH   6  11
BRANCH   1  21
ATOM     20  N   UNL     1       0.608  -0.118  -2.761  0.00  0.00    -0.298 N 
ATOM     21  C   UNL     1      -0.364  -1.021  -2.522  0.00  0.00    +0.246 C 
ATOM     22  O   UNL     1      -0.074  -2.141  -2.136  0.00  0.00    -0.270 OA
BRANCH  20  24
ATOM     23  C   UNL     1       0.132   1.349  -4.658  0.00  0.00    +0.024 C 
ATOM     24  C   UNL     1       0.258   1.254  -3.136  0.00  0.00    +0.104 C 
ENDBRANCH  20  24
BRANCH  20  25
ATOM     25  C   UNL     1       2.015  -0.509  -2.644  0.00  0.00    +0.104 C 
ATOM     26  C   UNL     1       2.495  -0.266  -1.211  0.00  0.00    +0.024 C 
ENDBRANCH  20  25
ENDBRANCH   1  21
BRANCH   7  27
ATOM     27  C   UNL     1      -4.616   0.837   0.424  0.00  0.00    +0.091 C 
ATOM     28  C   UNL     1      -5.598   1.136   1.296  0.00  0.00    +0.239 C 
ATOM     29  O   UNL     1      -6.893   1.103   0.895  0.00  0.00    -0.271 OA
BRANCH  28  30
ATOM     30  N   UNL     1      -5.286   1.478   2.601  0.00  0.00    -0.309 N 
ATOM     31  H   UNL     1      -4.359   1.573   2.869  0.00  0.00    +0.149 HD
BRANCH  30  32
ATOM     32  C   UNL     1      -6.357   1.695   3.577  0.00  0.00    +0.067 C 
ATOM     33  C   UNL     1      -6.701   0.370   4.260  0.00  0.00    +0.027 C 
ATOM     34  C   UNL     1      -5.892   2.706   4.627  0.00  0.00    +0.027 C 
ENDBRANCH  30  32
ENDBRANCH  28  30
ENDBRANCH   7  27
TORSDOF 8
