REMARK  Name = ZINC13979863
REMARK  9 active torsions:
REMARK  status: ('A' for Active; 'I' for Inactive)
REMARK    1  A    between atoms: C_1  and  C_2
REMARK    2  A    between atoms: C_4  and  O_10
REMARK    3  A    between atoms: C_6  and  C_9
REMARK    4  A    between atoms: O_10  and  C_11
REMARK    5  A    between atoms: C_11  and  C_12
REMARK    6  A    between atoms: N_14  and  N_15
REMARK    7  A    between atoms: N_15  and  C_16
REMARK    8  A    between atoms: C_16  and  N_18
REMARK    9  A    between atoms: C_19  and  C_21
REMARK                            x       y       z     vdW  Elec       q    Type
REMARK                         _______ _______ _______ _____ _____    ______ ____
ROOT
ATOM      1  C   UNL     1      -2.546   4.033   0.036  0.00  0.00    +0.267 C 
ATOM      2  O   UNL     1      -3.498   3.282   0.036  0.00  0.00    -0.271 OA
ATOM      3  N   UNL     1      -2.740   5.367   0.044  0.00  0.00    -0.232 N 
ATOM      4  H   UNL     1      -1.978   5.968   0.044  0.00  0.00    +0.173 HD
ENDROOT
BRANCH   3   5
ATOM      5  N   UNL     1      -4.041   5.886   0.053  0.00  0.00    -0.245 N 
ATOM      6  H   UNL     1      -4.803   5.285   0.053  0.00  0.00    +0.172 HD
BRANCH   5   7
ATOM      7  C   UNL     1      -4.235   7.220   0.061  0.00  0.00    +0.153 C 
ATOM      8  S   UNL     1      -5.825   7.854   0.072  0.00  0.00    -0.017 S 
BRANCH   7   9
ATOM      9  N   UNL     1      -3.176   8.054   0.061  0.00  0.00    -0.260 N 
ATOM     10  C   UNL     1      -3.370   9.388   0.069  0.00  0.00    +0.285 C 
ATOM     11  O   UNL     1      -4.500   9.839   0.077  0.00  0.00    -0.266 OA
ATOM     12  H   UNL     1      -2.275   7.695   0.055  0.00  0.00    +0.157 HD
BRANCH  10  13
ATOM     13  C   UNL     1      -2.220  10.295   0.069  0.00  0.00    +0.191 A 
ATOM     14  C   UNL     1      -2.275  11.661   0.076  0.00  0.00    +0.056 A 
ATOM     15  C   UNL     1      -0.949  12.117   0.072  0.00  0.00    +0.058 A 
ATOM     16  C   UNL     1      -0.151  11.024   0.063  0.00  0.00    +0.171 A 
ATOM     17  O   UNL     1      -0.921   9.928   0.066  0.00  0.00    -0.444 OA
ATOM     18 BR   UNL     1       1.740  11.041   0.053  0.00  0.00    -0.008 Br
ENDBRANCH  10  13
ENDBRANCH   7   9
ENDBRANCH   5   7
ENDBRANCH   3   5
BRANCH   1  19
ATOM     19  C   UNL     1      -1.146   3.475   0.026  0.00  0.00    +0.326 C 
BRANCH  19  20
ATOM     20  O   UNL     1      -1.202   2.047   0.019  0.00  0.00    -0.483 OA
BRANCH  20  24
ATOM     21  C   UNL     1       1.229  -2.184  -0.021  0.00  0.00    +0.045 C 
ATOM     22  C   UNL     1       1.208  -0.677  -0.013  0.00  0.00    -0.028 A 
ATOM     23  C   UNL     1       0.002  -0.004   0.002  0.00  0.00    +0.050 A 
ATOM     24  C   UNL     1      -0.017   1.383   0.010  0.00  0.00    +0.122 A 
ATOM     25  C   UNL     1       1.176   2.091   0.002  0.00  0.00    +0.050 A 
ATOM     26  C   UNL     1       2.380   1.414  -0.013  0.00  0.00    -0.028 A 
ATOM     27  C   UNL     1       2.397   0.030  -0.021  0.00  0.00    +0.047 A 
ATOM     28 CL   UNL     1       3.911  -0.818  -0.041  0.00  0.00    -0.083 Cl
ATOM     29  C   UNL     1       3.676   2.183  -0.022  0.00  0.00    +0.045 C 
ENDBRANCH  20  24
ENDBRANCH  19  20
ENDBRANCH   1  19
TORSDOF 7
