REMARK  Name = ZINC05736318
REMARK  7 active torsions:
REMARK  status: ('A' for Active; 'I' for Inactive)
REMARK    1  A    between atoms: C_4  and  C_7
REMARK    2  A    between atoms: C_7  and  C_8
REMARK    3  A    between atoms: N_10  and  N_11
REMARK    4  A    between atoms: C_12  and  C_13
REMARK    5  A    between atoms: C_12  and  C_24
REMARK    6  A    between atoms: C_14  and  C_15
REMARK    7  A    between atoms: C_19  and  N_21
REMARK                            x       y       z     vdW  Elec       q    Type
REMARK                         _______ _______ _______ _____ _____    ______ ____
ROOT
ATOM      1  N   UNL     1      -0.203   7.914   0.414  0.00  0.00    -0.180 NA
ATOM      2  C   UNL     1      -1.365   7.226   0.256  0.00  0.00    +0.089 C 
ENDROOT
BRANCH   2   3
ATOM      3  C   UNL     1      -2.652   7.869   0.575  0.00  0.00    +0.002 A 
ATOM      4  C   UNL     1      -2.749   8.749   1.661  0.00  0.00    +0.010 A 
ATOM      5  C   UNL     1      -3.955   9.350   1.950  0.00  0.00    +0.001 A 
ATOM      6  C   UNL     1      -5.072   9.077   1.177  0.00  0.00    +0.000 A 
ATOM      7  C   UNL     1      -4.986   8.203   0.104  0.00  0.00    +0.001 A 
ATOM      8  C   UNL     1      -3.786   7.598  -0.201  0.00  0.00    +0.010 A 
ENDBRANCH   2   3
BRANCH   1  11
ATOM      9  C   UNL     1       0.912   9.829   0.968  0.00  0.00    +0.237 C 
ATOM     10  O   UNL     1       1.966   9.239   0.949  0.00  0.00    -0.274 OA
ATOM     11  N   UNL     1      -0.233   9.173   0.695  0.00  0.00    -0.206 N 
ATOM     12  H   UNL     1      -1.079   9.647   0.711  0.00  0.00    +0.177 HD
BRANCH   9  13
ATOM     13  C   UNL     1       0.878  11.300   1.296  0.00  0.00    +0.132 C 
BRANCH  13  17
ATOM     14  C   UNL     1       4.849  12.686   2.040  0.00  0.00    +0.000 A 
ATOM     15  C   UNL     1       4.332  12.725   0.759  0.00  0.00    +0.000 A 
ATOM     16  C   UNL     1       3.047  12.276   0.518  0.00  0.00    +0.004 A 
ATOM     17  C   UNL     1       2.279  11.789   1.559  0.00  0.00    -0.039 A 
ATOM     18  C   UNL     1       2.794  11.756   2.841  0.00  0.00    +0.004 A 
ATOM     19  C   UNL     1       4.081  12.200   3.081  0.00  0.00    +0.000 A 
ENDBRANCH  13  17
ENDBRANCH   9  13
ENDBRANCH   1  11
BRANCH   2  20
ATOM     20  C   UNL     1      -1.339   5.913  -0.207  0.00  0.00    +0.030 C 
ATOM     21  C   UNL     1      -0.115   5.302  -0.511  0.00  0.00    +0.010 C 
BRANCH  21  22
ATOM     22  C   UNL     1      -0.088   3.973  -0.981  0.00  0.00    -0.023 A 
ATOM     23  C   UNL     1      -1.291   3.252  -1.146  0.00  0.00    +0.008 A 
ATOM     24  C   UNL     1      -1.252   1.968  -1.605  0.00  0.00    +0.003 A 
ATOM     25  C   UNL     1      -0.036   1.366  -1.900  0.00  0.00    +0.033 A 
ATOM     26  C   UNL     1       1.154   2.064  -1.742  0.00  0.00    +0.127 A 
ATOM     27  C   UNL     1       1.141   3.352  -1.288  0.00  0.00    +0.040 A 
BRANCH  26  28
ATOM     28  N   UNL     1       2.441   1.409  -2.065  0.00  0.00    +0.056 N 
ATOM     29  O   UNL     1       2.456   0.167  -2.502  0.00  0.00    -0.126 OA
ATOM     30  O   UNL     1       3.571   2.068  -1.916  0.00  0.00    -0.126 OA
ENDBRANCH  26  28
ENDBRANCH  21  22
ENDBRANCH   2  20
TORSDOF 7
