REMARK  Name = ZINC12986376
REMARK  11 active torsions:
REMARK  status: ('A' for Active; 'I' for Inactive)
REMARK    1  A    between atoms: C_1  and  C_2
REMARK    2  A    between atoms: C_5  and  C_8
REMARK    3  A    between atoms: C_8  and  N_9
REMARK    4  A    between atoms: N_12  and  C_13
REMARK    5  A    between atoms: C_13  and  C_14
REMARK    6  A    between atoms: N_16  and  C_17
REMARK    7  A    between atoms: C_17  and  C_18
REMARK    8  A    between atoms: N_20  and  C_21
REMARK    9  A    between atoms: C_22  and  C_29
REMARK   10  A    between atoms: C_24  and  C_28
REMARK   11  A    between atoms: C_26  and  C_27
REMARK                            x       y       z     vdW  Elec       q    Type
REMARK                         _______ _______ _______ _____ _____    ______ ____
ROOT
ATOM      1  C   UNL     1       3.265  -2.631  -1.794  0.00  0.00    +0.231 C 
ATOM      2  O   UNL     1       3.913  -1.824  -1.162  0.00  0.00    -0.274 OA
ATOM      3  N   UNL     1       3.504  -3.950  -1.646  0.00  0.00    -0.305 N 
ATOM      4  H   UNL     1       2.986  -4.596  -2.151  0.00  0.00    +0.149 HD
ENDROOT
BRANCH   1   5
ATOM      5  C   UNL     1       2.194  -2.161  -2.744  0.00  0.00    +0.201 C 
BRANCH   5   9
ATOM      6  N   UNL     1       1.183   1.296  -3.482  0.00  0.00    -0.295 N 
ATOM      7  C   UNL     1       1.240  -0.051  -3.500  0.00  0.00    +0.300 C 
ATOM      8  O   UNL     1       0.488  -0.681  -4.218  0.00  0.00    -0.253 OA
ATOM      9  N   UNL     1       2.131  -0.698  -2.724  0.00  0.00    -0.291 N 
ATOM     10  H   UNL     1       1.783   1.799  -2.909  0.00  0.00    +0.151 HD
ATOM     11  H   UNL     1       2.731  -0.195  -2.151  0.00  0.00    +0.151 HD
BRANCH   6  12
ATOM     12  C   UNL     1       0.218   2.000  -4.331  0.00  0.00    +0.141 C 
BRANCH  12  17
ATOM     13  C   UNL     1       0.752   7.699  -3.538  0.00  0.00    +0.044 C 
ATOM     14  C   UNL     1       0.612   6.213  -3.745  0.00  0.00    -0.050 A 
ATOM     15  C   UNL     1       1.358   5.577  -4.720  0.00  0.00    +0.003 A 
ATOM     16  C   UNL     1       1.231   4.214  -4.910  0.00  0.00    +0.005 A 
ATOM     17  C   UNL     1       0.357   3.486  -4.124  0.00  0.00    -0.030 A 
ATOM     18  C   UNL     1      -0.392   4.122  -3.152  0.00  0.00    +0.005 A 
ATOM     19  C   UNL     1      -0.261   5.484  -2.959  0.00  0.00    +0.003 A 
ENDBRANCH  12  17
ENDBRANCH   6  12
ENDBRANCH   5   9
ENDBRANCH   1   5
BRANCH   3  20
ATOM     20  C   UNL     1       4.545  -4.407  -0.723  0.00  0.00    +0.200 C 
BRANCH  20  21
ATOM     21  C   UNL     1       4.609  -5.912  -0.744  0.00  0.00    +0.234 C 
ATOM     22  O   UNL     1       3.859  -6.542  -1.459  0.00  0.00    -0.274 OA
ATOM     23  N   UNL     1       5.500  -6.559   0.033  0.00  0.00    -0.284 N 
ATOM     24  H   UNL     1       6.136  -6.056   0.566  0.00  0.00    +0.155 HD
BRANCH  23  25
ATOM     25  C   UNL     1       5.509  -7.958   0.072  0.00  0.00    +0.039 A 
ATOM     26  C   UNL     1       4.338  -8.655   0.337  0.00  0.00    -0.029 A 
ATOM     27  C   UNL     1       4.349 -10.035   0.370  0.00  0.00    +0.008 A 
ATOM     28  C   UNL     1       5.527 -10.724   0.149  0.00  0.00    -0.050 A 
ATOM     29  C   UNL     1       6.697 -10.033  -0.112  0.00  0.00    +0.008 A 
ATOM     30  C   UNL     1       6.691  -8.653  -0.151  0.00  0.00    -0.029 A 
ATOM     31  C   UNL     1       7.966  -7.901  -0.434  0.00  0.00    +0.045 C 
ATOM     32  C   UNL     1       5.537 -12.230   0.190  0.00  0.00    +0.044 C 
ATOM     33  C   UNL     1       3.054  -7.905   0.585  0.00  0.00    +0.045 C 
ENDBRANCH  23  25
ENDBRANCH  20  21
ENDBRANCH   3  20
TORSDOF 7
