REMARK  Name = ZINC49507474
REMARK  8 active torsions:
REMARK  status: ('A' for Active; 'I' for Inactive)
REMARK    1  A    between atoms: C_1  and  C_2
REMARK    2  A    between atoms: C_2  and  C_3
REMARK    3  A    between atoms: C_3  and  N_4
REMARK    4  A    between atoms: C_8  and  N_18
REMARK    5  A    between atoms: C_13  and  C_16
REMARK    6  A    between atoms: C_13  and  C_17
REMARK    7  A    between atoms: C_19  and  C_21
REMARK    8  A    between atoms: N_26  and  C_28
REMARK                            x       y       z     vdW  Elec       q    Type
REMARK                         _______ _______ _______ _____ _____    ______ ____
ROOT
ATOM      1  N   UNL     1       0.287  -2.183  -1.287  0.00  0.00    -0.268 N 
ATOM      2  C   UNL     1       1.212  -2.974  -0.587  0.00  0.00    +0.078 A 
ATOM      3  C   UNL     1       1.728  -2.547   0.626  0.00  0.00    +0.029 A 
ATOM      4  C   UNL     1       2.640  -3.334   1.302  0.00  0.00    +0.025 A 
ATOM      5  C   UNL     1       3.041  -4.552   0.768  0.00  0.00    +0.037 A 
ATOM      6  C   UNL     1       2.524  -4.983  -0.446  0.00  0.00    +0.070 A 
ATOM      7  C   UNL     1       1.608  -4.198  -1.124  0.00  0.00    +0.144 A 
ATOM      8  O   UNL     1       1.086  -4.615  -2.307  0.00  0.00    -0.489 OA
ATOM      9  C   UNL     1      -0.253  -5.103  -2.292  0.00  0.00    +0.244 C 
ATOM     10  C   UNL     1      -1.142  -4.195  -1.445  0.00  0.00    +0.076 C 
ATOM     11  C   UNL     1      -0.851  -2.748  -1.748  0.00  0.00    +0.229 C 
ATOM     12  O   UNL     1      -1.632  -2.095  -2.407  0.00  0.00    -0.275 OA
ATOM     13  C   UNL     1      -2.611  -4.491  -1.754  0.00  0.00    +0.024 C 
ATOM     14  C   UNL     1      -0.874  -4.462   0.038  0.00  0.00    +0.024 C 
ENDROOT
BRANCH   5  15
ATOM     15  N   UNL     1       3.968  -5.346   1.455  0.00  0.00    -0.285 N 
ATOM     16  C   UNL     1       4.842  -6.108   0.769  0.00  0.00    +0.222 C 
ATOM     17  O   UNL     1       4.889  -6.037  -0.441  0.00  0.00    -0.275 OA
ATOM     18  H   UNL     1       3.981  -5.347   2.425  0.00  0.00    +0.155 HD
BRANCH  16  19
ATOM     19  C   UNL     1       5.761  -7.049   1.504  0.00  0.00    +0.102 C 
ATOM     20  C   UNL     1       4.957  -8.157   2.225  0.00  0.00    +0.110 C 
ATOM     21  C   UNL     1       4.928  -9.299   1.233  0.00  0.00    +0.221 C 
ATOM     22  O   UNL     1       4.172 -10.246   1.286  0.00  0.00    -0.275 OA
ATOM     23  N   UNL     1       5.863  -9.112   0.285  0.00  0.00    -0.271 N 
ATOM     24  C   UNL     1       6.616  -7.872   0.515  0.00  0.00    +0.127 C 
BRANCH  23  25
ATOM     25  C   UNL     1       6.088  -9.986  -0.784  0.00  0.00    +0.037 A 
ATOM     26  C   UNL     1       5.400 -11.190  -0.857  0.00  0.00    +0.023 A 
ATOM     27  C   UNL     1       5.624 -12.050  -1.913  0.00  0.00    +0.003 A 
ATOM     28  C   UNL     1       6.534 -11.714  -2.899  0.00  0.00    +0.015 A 
ATOM     29  C   UNL     1       7.223 -10.516  -2.830  0.00  0.00    +0.020 A 
ATOM     30  C   UNL     1       6.997  -9.648  -1.778  0.00  0.00    +0.038 A 
ATOM     31 BR   UNL     1       8.466 -10.062  -4.180  0.00  0.00    -0.050 Br
ENDBRANCH  23  25
ENDBRANCH  16  19
ENDBRANCH   5  15
BRANCH   1  32
ATOM     32  C   UNL     1       0.550  -0.759  -1.509  0.00  0.00    +0.113 C 
BRANCH  32  34
ATOM     33  C   UNL     1       0.255   1.540  -0.577  0.00  0.00    +0.005 C 
ATOM     34  C   UNL     1      -0.019   0.052  -0.344  0.00  0.00    +0.016 C 
ENDBRANCH  32  34
ENDBRANCH   1  32
TORSDOF 5
