REMARK  Name = ZINC22281341
REMARK  14 active torsions:
REMARK  status: ('A' for Active; 'I' for Inactive)
REMARK    1  A    between atoms: C_1  and  C_2
REMARK    2  A    between atoms: C_2  and  N_3
REMARK    3  A    between atoms: N_3  and  C_4
REMARK    4  A    between atoms: C_4  and  C_5
REMARK    5  A    between atoms: C_6  and  C_8
REMARK    6  A    between atoms: C_8  and  S_9
REMARK    7  A    between atoms: S_9  and  C_10
REMARK    8  A    between atoms: C_13  and  S_16
REMARK    9  A    between atoms: N_14  and  N_15
REMARK   10  A    between atoms: S_16  and  C_17
REMARK   11  A    between atoms: C_17  and  C_18
REMARK   12  A    between atoms: N_20  and  C_21
REMARK   13  A    between atoms: C_21  and  C_22
REMARK   14  A    between atoms: C_22  and  N_28
REMARK                            x       y       z     vdW  Elec       q    Type
REMARK                         _______ _______ _______ _____ _____    ______ ____
ROOT
ATOM      1  S   UNL     1       1.522  -4.283   2.340  0.00  0.00    -0.075 S 
ENDROOT
BRANCH   1   5
ATOM      2  C   UNL     1       3.428  -6.040   5.287  0.00  0.00    +0.209 A 
ATOM      3  N   UNL     1       3.587  -4.785   5.629  0.00  0.00    -0.120 NA
ATOM      4  N   UNL     1       2.954  -3.990   4.664  0.00  0.00    -0.120 NA
ATOM      5  C   UNL     1       2.429  -4.786   3.765  0.00  0.00    +0.209 A 
ATOM      6  N   UNL     1       2.704  -6.074   4.129  0.00  0.00    -0.219 N 
BRANCH   6   7
ATOM      7  N   UNL     1       2.324  -7.198   3.452  0.00  0.00    -0.294 N 
ATOM      8  H   UNL     1       1.739  -7.111   2.525  0.00  0.00    +0.163 HD
ATOM      9  H   UNL     1       2.602  -8.191   3.835  0.00  0.00    +0.163 HD
ENDBRANCH   6   7
BRANCH   2  10
ATOM     10  S   UNL     1       4.036  -7.439   6.170  0.00  0.00    -0.075 S 
BRANCH  10  11
ATOM     11  C   UNL     1       4.893  -6.718   7.598  0.00  0.00    +0.173 C 
BRANCH  11  13
ATOM     12  N   UNL     1       6.153  -7.521   9.569  0.00  0.00    -0.301 N 
ATOM     13  C   UNL     1       5.468  -7.821   8.448  0.00  0.00    +0.226 C 
ATOM     14  O   UNL     1       5.315  -8.980   8.123  0.00  0.00    -0.275 OA
BRANCH  12  16
ATOM     15  C   UNL     1       8.131  -8.915   9.922  0.00  0.00    +0.024 C 
ATOM     16  C   UNL     1       6.712  -8.593  10.396  0.00  0.00    +0.104 C 
ENDBRANCH  12  16
BRANCH  12  17
ATOM     17  C   UNL     1       6.338  -6.121   9.962  0.00  0.00    +0.104 C 
ATOM     18  C   UNL     1       5.178  -5.686  10.859  0.00  0.00    +0.024 C 
ENDBRANCH  12  17
ENDBRANCH  11  13
ENDBRANCH  10  11
ENDBRANCH   2  10
ENDBRANCH   1   5
BRANCH   1  19
ATOM     19  C   UNL     1       1.510  -2.472   2.444  0.00  0.00    +0.173 C 
BRANCH  19  20
ATOM     20  C   UNL     1       0.755  -1.906   1.269  0.00  0.00    +0.223 C 
ATOM     21  O   UNL     1       0.273  -2.651   0.443  0.00  0.00    -0.275 OA
ATOM     22  N   UNL     1       0.616  -0.572   1.136  0.00  0.00    -0.313 N 
ATOM     23  H   UNL     1       1.053   0.104   1.886  0.00  0.00    +0.149 HD
BRANCH  22  24
ATOM     24  C   UNL     1      -0.118  -0.022  -0.006  0.00  0.00    +0.126 C 
BRANCH  24  25
ATOM     25  C   UNL     1       0.025   1.501  -0.019  0.00  0.00    +0.038 C 
ATOM     26  C   UNL     1      -0.345   2.059   1.357  0.00  0.00    +0.024 C 
ATOM     27  C   UNL     1      -1.791   1.686   1.687  0.00  0.00    +0.002 C 
ATOM     28  C   UNL     1      -2.725   2.277   0.629  0.00  0.00    +0.000 C 
ATOM     29  C   UNL     1      -2.355   1.718  -0.747  0.00  0.00    +0.002 C 
ATOM     30  C   UNL     1      -0.909   2.092  -1.077  0.00  0.00    +0.024 C 
BRANCH  25  31
ATOM     31  N   UNL     1       1.414   1.859  -0.336  0.00  0.00    -0.291 NA
ATOM     32  C   UNL     1       1.747   1.501  -1.722  0.00  0.00    +0.113 C 
ATOM     33  C   UNL     1       3.180   1.945  -2.028  0.00  0.00    +0.175 C 
ATOM     34  O   UNL     1       4.071   1.345  -1.084  0.00  0.00    -0.377 OA
ATOM     35  C   UNL     1       3.776   1.673   0.276  0.00  0.00    +0.175 C 
ATOM     36  C   UNL     1       2.349   1.226   0.605  0.00  0.00    +0.113 C 
ENDBRANCH  25  31
ENDBRANCH  24  25
ENDBRANCH  22  24
ENDBRANCH  19  20
ENDBRANCH   1  19
TORSDOF 12
