REMARK  Name = ZINC64202340
REMARK  5 active torsions:
REMARK  status: ('A' for Active; 'I' for Inactive)
REMARK    1  A    between atoms: C_4  and  C_7
REMARK    2  A    between atoms: C_7  and  N_8
REMARK    3  A    between atoms: C_9  and  C_11
REMARK    4  A    between atoms: C_16  and  N_17
REMARK    5  A    between atoms: C_18  and  C_20
REMARK                            x       y       z     vdW  Elec       q    Type
REMARK                         _______ _______ _______ _____ _____    ______ ____
ROOT
ATOM      1  C   UNL     1       5.760  -1.844   2.960  0.00  0.00    +0.058 A 
ATOM      2  C   UNL     1       5.039  -1.320   4.036  0.00  0.00    +0.015 A 
ATOM      3  C   UNL     1       5.464  -1.553   5.326  0.00  0.00    +0.001 A 
ATOM      4  C   UNL     1       6.603  -2.304   5.562  0.00  0.00    +0.002 A 
ATOM      5  C   UNL     1       7.326  -2.828   4.509  0.00  0.00    +0.024 A 
ATOM      6  C   UNL     1       6.910  -2.609   3.203  0.00  0.00    +0.046 A 
ENDROOT
BRANCH   1   8
ATOM      7  N   UNL     1       4.151  -0.949   1.349  0.00  0.00    -0.307 N 
ATOM      8  C   UNL     1       5.310  -1.599   1.576  0.00  0.00    +0.246 C 
ATOM      9  O   UNL     1       5.985  -1.983   0.640  0.00  0.00    -0.270 OA
ATOM     10  H   UNL     1       3.613  -0.643   2.095  0.00  0.00    +0.149 HD
BRANCH   7  11
ATOM     11  C   UNL     1       3.705  -0.706  -0.025  0.00  0.00    +0.139 C 
BRANCH  11  15
ATOM     12  C   UNL     1      -0.020   1.385   0.035  0.00  0.00    +0.000 A 
ATOM     13  C   UNL     1       1.169   2.091   0.020  0.00  0.00    +0.000 A 
ATOM     14  C   UNL     1       2.374   1.414   0.001  0.00  0.00    +0.005 A 
ATOM     15  C   UNL     1       2.391   0.032  -0.003  0.00  0.00    -0.030 A 
ATOM     16  C   UNL     1       1.202  -0.674   0.012  0.00  0.00    +0.005 A 
ATOM     17  C   UNL     1      -0.003   0.003   0.030  0.00  0.00    +0.000 A 
ENDBRANCH  11  15
ENDBRANCH   7  11
ENDBRANCH   1   8
BRANCH   6  18
ATOM     18  N   UNL     1       7.634  -3.141   2.139  0.00  0.00    -0.284 N 
ATOM     19  C   UNL     1       8.234  -4.341   2.266  0.00  0.00    +0.233 C 
ATOM     20  O   UNL     1       8.065  -5.001   3.269  0.00  0.00    -0.274 OA
ATOM     21  H   UNL     1       7.707  -2.648   1.307  0.00  0.00    +0.155 HD
BRANCH  19  22
ATOM     22  C   UNL     1       9.116  -4.863   1.161  0.00  0.00    +0.184 C 
ATOM     23  C   UNL     1       9.565  -6.260   1.544  0.00  0.00    +0.004 C 
ATOM     24  C   UNL     1      10.908  -6.483   1.626  0.00  0.00    -0.007 A 
ATOM     25  C   UNL     1      11.428  -7.802   1.991  0.00  0.00    +0.009 A 
ATOM     26  C   UNL     1      12.773  -7.978   2.061  0.00  0.00    +0.001 A 
ATOM     27  C   UNL     1      13.658  -6.933   1.794  0.00  0.00    +0.002 A 
ATOM     28  C   UNL     1      13.238  -5.688   1.450  0.00  0.00    +0.024 A 
ATOM     29  C   UNL     1      11.865  -5.399   1.349  0.00  0.00    +0.040 A 
ATOM     30  N   UNL     1      11.465  -4.173   1.011  0.00  0.00    -0.284 N 
ATOM     31  C   UNL     1      10.192  -3.834   0.900  0.00  0.00    +0.233 C 
ATOM     32  O   UNL     1       9.889  -2.698   0.589  0.00  0.00    -0.274 OA
ATOM     33  H   UNL     1      12.140  -3.498   0.839  0.00  0.00    +0.155 HD
ENDBRANCH  19  22
ENDBRANCH   6  18
TORSDOF 5
