REMARK  Name = ZINC06442981
REMARK  13 active torsions:
REMARK  status: ('A' for Active; 'I' for Inactive)
REMARK    1  A    between atoms: C_1  and  C_2
REMARK    2  A    between atoms: C_6  and  C_8
REMARK    3  A    between atoms: C_13  and  C_18
REMARK    4  A    between atoms: C_21  and  O_26
REMARK    5  A    between atoms: C_22  and  O_24
REMARK    6  A    between atoms: O_24  and  C_25
REMARK    7  A    between atoms: O_26  and  C_27
REMARK    8  A    between atoms: C_29  and  C_37
REMARK    9  A    between atoms: C_30  and  C_31
REMARK   10  A    between atoms: C_31  and  O_33
REMARK   11  A    between atoms: O_33  and  C_34
REMARK   12  A    between atoms: C_34  and  C_35
REMARK   13  A    between atoms: C_34  and  C_36
REMARK                            x       y       z     vdW  Elec       q    Type
REMARK                         _______ _______ _______ _____ _____    ______ ____
ROOT
ATOM      1  C   UNL     1      -0.070   5.347   0.030  0.00  0.00    +0.092 C 
ATOM      2  C   UNL     1      -0.800   5.839  -1.194  0.00  0.00    +0.024 C 
ATOM      3  C   UNL     1      -2.068   6.293  -1.105  0.00  0.00    +0.016 C 
ATOM      4  C   UNL     1      -2.804   6.789  -2.325  0.00  0.00    +0.059 C 
ATOM      5  C   UNL     1      -2.308   6.040  -3.564  0.00  0.00    +0.032 C 
ATOM      6  C   UNL     1      -0.798   6.263  -3.694  0.00  0.00    +0.088 C 
ATOM      7  C   UNL     1      -0.126   5.808  -2.428  0.00  0.00    +0.162 C 
ATOM      8  O   UNL     1       1.020   5.407  -2.471  0.00  0.00    -0.292 OA
ATOM      9  N   UNL     1      -2.715   6.317   0.102  0.00  0.00    -0.321 N 
ATOM     10  C   UNL     1      -2.007   6.275   1.271  0.00  0.00    +0.016 C 
ATOM     11  C   UNL     1      -0.741   5.824   1.285  0.00  0.00    +0.065 C 
ATOM     12  C   UNL     1      -2.651   6.738   2.552  0.00  0.00    +0.061 C 
ATOM     13  H   UNL     1      -3.813   6.371   0.137  0.00  0.00    +0.152 HD
ENDROOT
BRANCH   1  19
ATOM     14  C   UNL     1       2.490   1.048  -0.016  0.00  0.00    +0.044 C 
ATOM     15  C   UNL     1       1.175   1.783   0.000  0.00  0.00    -0.050 A 
ATOM     16  C   UNL     1      -0.013   1.076   0.008  0.00  0.00    +0.003 A 
ATOM     17  C   UNL     1      -1.219   1.750   0.017  0.00  0.00    +0.001 A 
ATOM     18  C   UNL     1      -1.238   3.133   0.029  0.00  0.00    +0.004 A 
ATOM     19  C   UNL     1      -0.050   3.840   0.022  0.00  0.00    -0.035 A 
ATOM     20  C   UNL     1       1.157   3.165   0.008  0.00  0.00    +0.008 A 
ENDBRANCH   1  19
BRANCH   5  21
ATOM     21  C   UNL     1      -3.010   6.568  -4.790  0.00  0.00    -0.040 A 
ATOM     22  C   UNL     1      -2.885   7.901  -5.135  0.00  0.00    +0.008 A 
ATOM     23  C   UNL     1      -3.526   8.390  -6.258  0.00  0.00    +0.049 A 
ATOM     24  C   UNL     1      -4.295   7.543  -7.040  0.00  0.00    +0.161 A 
ATOM     25  C   UNL     1      -4.420   6.202  -6.693  0.00  0.00    +0.162 A 
ATOM     26  C   UNL     1      -3.771   5.717  -5.569  0.00  0.00    +0.053 A 
BRANCH  25  27
ATOM     27  O   UNL     1      -5.173   5.367  -7.458  0.00  0.00    -0.491 OA
ATOM     28  C   UNL     1      -5.256   4.003  -7.041  0.00  0.00    +0.277 C 
ENDBRANCH  25  27
BRANCH  24  29
ATOM     29  O   UNL     1      -4.927   8.023  -8.145  0.00  0.00    -0.491 OA
ATOM     30  C   UNL     1      -4.755   9.410  -8.440  0.00  0.00    +0.277 C 
ENDBRANCH  24  29
ENDBRANCH   5  21
BRANCH  11  31
ATOM     31  C   UNL     1      -0.028   5.798   2.506  0.00  0.00    +0.338 C 
ATOM     32  O   UNL     1      -0.560   6.183   3.530  0.00  0.00    -0.245 OA
BRANCH  31  33
ATOM     33  O   UNL     1       1.244   5.348   2.534  0.00  0.00    -0.459 OA
BRANCH  33  34
ATOM     34  C   UNL     1       1.905   5.350   3.802  0.00  0.00    +0.171 C 
ATOM     35  C   UNL     1       2.928   4.214   3.845  0.00  0.00    +0.052 C 
ATOM     36  C   UNL     1       2.620   6.688   4.002  0.00  0.00    +0.052 C 
ENDBRANCH  33  34
ENDBRANCH  31  33
ENDBRANCH  11  31
TORSDOF 7
