REMARK  Name = ZINC06149347
REMARK  14 active torsions:
REMARK  status: ('A' for Active; 'I' for Inactive)
REMARK    1  A    between atoms: C_1  and  C_2
REMARK    2  A    between atoms: C_2  and  C_3
REMARK    3  A    between atoms: C_3  and  C_4
REMARK    4  A    between atoms: C_3  and  C_5
REMARK    5  A    between atoms: C_3  and  N_6
REMARK    6  A    between atoms: C_7  and  C_11
REMARK    7  A    between atoms: C_11  and  C_13
REMARK    8  A    between atoms: C_11  and  N_71
REMARK    9  A    between atoms: C_16  and  C_26
REMARK   10  A    between atoms: C_19  and  C_25
REMARK   11  A    between atoms: C_29  and  C_32
REMARK   12  A    between atoms: C_32  and  O_34
REMARK   13  A    between atoms: O_34  and  C_35
REMARK   14  A    between atoms: C_35  and  C_36
REMARK                            x       y       z     vdW  Elec       q    Type
REMARK                         _______ _______ _______ _____ _____    ______ ____
ROOT
ATOM      1  C   UNL     1       3.978   1.713   3.683  0.00  0.00    +0.039 C 
ENDROOT
BRANCH   1   2
ATOM      2  C   UNL     1       2.477   1.714   3.810  0.00  0.00    +0.011 A 
ATOM      3  C   UNL     1       1.711   1.286   2.776  0.00  0.00    +0.018 A 
ATOM      4  C   UNL     1       0.256   1.299   2.930  0.00  0.00    +0.002 A 
ATOM      5  C   UNL     1      -0.586   0.869   1.899  0.00  0.00    -0.041 A 
ATOM      6  C   UNL     1      -1.940   0.899   2.073  0.00  0.00    +0.004 A 
ATOM      7  C   UNL     1      -2.490   1.343   3.268  0.00  0.00    +0.005 A 
ATOM      8  C   UNL     1      -1.680   1.772   4.298  0.00  0.00    -0.026 A 
ATOM      9  C   UNL     1      -0.298   1.755   4.142  0.00  0.00    +0.052 A 
ATOM     10  N   UNL     1       0.536   2.178   5.155  0.00  0.00    -0.322 N 
ATOM     11  H   UNL     1       0.141   2.501   6.015  0.00  0.00    +0.169 HD
ATOM     12  C   UNL     1       1.872   2.162   5.004  0.00  0.00    +0.251 A 
ATOM     13  O   UNL     1       2.578   2.542   5.921  0.00  0.00    -0.268 OA
ATOM     14  C   UNL     1      -2.290   2.256   5.588  0.00  0.00    +0.046 C 
ATOM     15  C   UNL     1      -0.001   0.381   0.599  0.00  0.00    +0.044 C 
ENDBRANCH   1   2
BRANCH   1  21
ATOM     16  C   UNL     1       6.029   1.067   4.797  0.00  0.00    -0.077 C 
ATOM     17  C   UNL     1       6.594   0.403   6.055  0.00  0.00    -0.004 C 
ATOM     18  C   UNL     1       6.164  -1.066   6.088  0.00  0.00    +0.094 C 
ATOM     19  C   UNL     1       4.635  -1.144   6.047  0.00  0.00    -0.004 C 
ATOM     20  C   UNL     1       4.127  -0.435   4.789  0.00  0.00    -0.077 C 
ATOM     21  N   UNL     1       4.553   0.980   4.830  0.00  0.00    +0.389 N 
ATOM     22  H   UNL     1       4.214   1.405   5.701  0.00  0.00    -0.080 HD
BRANCH  18  23
ATOM     23  C   UNL     1       6.667  -1.711   7.353  0.00  0.00    +0.310 C 
ATOM     24  O   UNL     1       5.885  -2.185   8.143  0.00  0.00    -0.251 OA
BRANCH  23  25
ATOM     25  O   UNL     1       7.985  -1.759   7.604  0.00  0.00    -0.465 OA
BRANCH  25  26
ATOM     26  C   UNL     1       8.398  -2.396   8.842  0.00  0.00    +0.229 C 
ATOM     27  C   UNL     1       9.924  -2.355   8.952  0.00  0.00    +0.048 C 
ENDBRANCH  25  26
ENDBRANCH  23  25
ENDBRANCH  18  23
ENDBRANCH   1  21
BRANCH   1  29
ATOM     28  N   UNL     1       5.046   3.801   2.681  0.00  0.00    -0.225 N 
ATOM     29  C   UNL     1       4.485   3.132   3.705  0.00  0.00    +0.143 A 
ATOM     30  N   UNL     1       4.471   3.952   4.727  0.00  0.00    -0.115 NA
ATOM     31  N   UNL     1       4.991   5.069   4.349  0.00  0.00    -0.023 NA
ATOM     32  N   UNL     1       5.337   4.982   3.111  0.00  0.00    -0.043 NA
BRANCH  28  33
ATOM     33  C   UNL     1       5.279   3.286   1.329  0.00  0.00    +0.061 C 
ATOM     34  C   UNL     1       6.238   2.095   1.395  0.00  0.00    +0.036 C 
ATOM     35  C   UNL     1       3.950   2.837   0.718  0.00  0.00    +0.036 C 
BRANCH  33  37
ATOM     36  C   UNL     1       6.136   3.850  -0.949  0.00  0.00    +0.006 C 
ATOM     37  C   UNL     1       5.893   4.387   0.462  0.00  0.00    +0.026 C 
ENDBRANCH  33  37
ENDBRANCH  28  33
ENDBRANCH   1  29
TORSDOF 8
