REMARK  Name = ZINC03363342
REMARK  8 active torsions:
REMARK  status: ('A' for Active; 'I' for Inactive)
REMARK    1  A    between atoms: C_1  and  C_2
REMARK    2  A    between atoms: C_9  and  C_11
REMARK    3  A    between atoms: N_13  and  N_14
REMARK    4  A    between atoms: C_15  and  C_17
REMARK    5  A    between atoms: C_21  and  S_23
REMARK    6  A    between atoms: S_23  and  N_26
REMARK    7  A    between atoms: N_26  and  C_27
REMARK    8  A    between atoms: N_26  and  C_28
REMARK                            x       y       z     vdW  Elec       q    Type
REMARK                         _______ _______ _______ _____ _____    ______ ____
ROOT
ATOM      1  N   UNL     1       7.417   7.431  -4.450  0.00  0.00    -0.230 N 
ATOM      2  C   UNL     1       6.773   8.490  -3.921  0.00  0.00    +0.260 C 
ATOM      3  O   UNL     1       5.617   8.382  -3.563  0.00  0.00    -0.269 OA
ATOM      4  H   UNL     1       8.340   7.517  -4.735  0.00  0.00    +0.173 HD
ENDROOT
BRANCH   2   5
ATOM      5  C   UNL     1       7.474   9.784  -3.775  0.00  0.00    +0.040 A 
ATOM      6  C   UNL     1       8.805   9.909  -4.180  0.00  0.00    +0.013 A 
ATOM      7  C   UNL     1       9.451  11.120  -4.047  0.00  0.00    +0.003 A 
ATOM      8  C   UNL     1       8.788  12.206  -3.502  0.00  0.00    +0.029 A 
ATOM      9  C   UNL     1       7.471  12.087  -3.095  0.00  0.00    +0.109 A 
ATOM     10  C   UNL     1       6.811  10.883  -3.228  0.00  0.00    +0.042 A 
BRANCH   9  11
ATOM     11  S   UNL     1       6.636  13.475  -2.403  0.00  0.00    +0.074 S 
ATOM     12  O   UNL     1       7.378  14.626  -2.783  0.00  0.00    -0.150 OA
ATOM     13  O   UNL     1       5.259  13.319  -2.717  0.00  0.00    -0.150 OA
BRANCH  11  14
ATOM     14  N   UNL     1       6.763  13.353  -0.756  0.00  0.00    -0.206 N 
ATOM     15  C   UNL     1       5.806  12.534  -0.007  0.00  0.00    +0.157 C 
BRANCH  14  16
ATOM     16  C   UNL     1       7.781  14.030  -0.082  0.00  0.00    +0.052 A 
ATOM     17  C   UNL     1       7.467  15.036   0.824  0.00  0.00    +0.025 A 
ATOM     18  C   UNL     1       8.476  15.703   1.490  0.00  0.00    +0.003 A 
ATOM     19  C   UNL     1       9.798  15.372   1.257  0.00  0.00    +0.020 A 
ATOM     20  C   UNL     1      10.115  14.371   0.355  0.00  0.00    +0.043 A 
ATOM     21  C   UNL     1       9.109  13.696  -0.311  0.00  0.00    +0.044 A 
ATOM     22 CL   UNL     1      11.776  13.958   0.066  0.00  0.00    -0.083 Cl
ENDBRANCH  14  16
ENDBRANCH  11  14
ENDBRANCH   9  11
ENDBRANCH   2   5
BRANCH   1  25
ATOM     23  C   UNL     1       7.396   5.146  -5.117  0.00  0.00    +0.267 C 
ATOM     24  O   UNL     1       8.554   5.253  -5.475  0.00  0.00    -0.268 OA
ATOM     25  N   UNL     1       6.752   6.205  -4.588  0.00  0.00    -0.230 N 
ATOM     26  H   UNL     1       5.829   6.119  -4.303  0.00  0.00    +0.173 HD
BRANCH  23  34
ATOM     27  C   UNL     1       6.036  -2.178  -6.494  0.00  0.00    +0.008 C 
ATOM     28  C   UNL     1       5.744  -0.835  -5.822  0.00  0.00    -0.009 C 
ATOM     29  C   UNL     1       4.306  -0.412  -6.132  0.00  0.00    +0.009 C 
ATOM     30  C   UNL     1       3.939   0.784  -5.243  0.00  0.00    +0.043 C 
ATOM     31  C   UNL     1       5.049   1.787  -5.319  0.00  0.00    -0.006 A 
ATOM     32  C   UNL     1       6.310   1.584  -5.804  0.00  0.00    -0.036 A 
ATOM     33  C   UNL     1       7.172   2.668  -5.774  0.00  0.00    +0.024 A 
ATOM     34  C   UNL     1       6.700   3.863  -5.262  0.00  0.00    +0.076 A 
ATOM     35  S   UNL     1       5.024   3.436  -4.823  0.00  0.00    -0.088 S 
ATOM     36  C   UNL     1       6.722   0.217  -6.346  0.00  0.00    +0.039 C 
ENDBRANCH  23  34
ENDBRANCH   1  25
TORSDOF 6
