REMARK  Name = ZINC12635679
REMARK  12 active torsions:
REMARK  status: ('A' for Active; 'I' for Inactive)
REMARK    1  A    between atoms: C_1  and  C_2
REMARK    2  A    between atoms: C_2  and  O_3
REMARK    3  A    between atoms: O_3  and  C_4
REMARK    4  A    between atoms: C_4  and  C_6
REMARK    5  A    between atoms: C_6  and  C_35
REMARK    6  A    between atoms: C_11  and  C_13
REMARK    7  A    between atoms: C_16  and  N_19
REMARK    8  A    between atoms: N_19  and  C_20
REMARK    9  A    between atoms: N_19  and  C_21
REMARK   10  A    between atoms: N_24  and  C_27
REMARK   11  A    between atoms: C_31  and  O_33
REMARK   12  A    between atoms: O_33  and  C_34
REMARK                            x       y       z     vdW  Elec       q    Type
REMARK                         _______ _______ _______ _____ _____    ______ ____
ROOT
ATOM      1  C   UNL     1      -4.899   3.319  -0.192  0.00  0.00    +0.041 C 
ATOM      2  C   UNL     1      -4.660   4.174   0.978  0.00  0.00    +0.086 C 
ATOM      3  C   UNL     1      -3.199   3.787   1.423  0.00  0.00    +0.077 C 
ATOM      4  C   UNL     1      -2.554   3.866   0.043  0.00  0.00    -0.027 C 
ATOM      5  C   UNL     1      -3.023   4.886   2.422  0.00  0.00    +0.229 C 
ATOM      6  O   UNL     1      -1.994   5.466   2.693  0.00  0.00    -0.275 OA
ATOM      7  N   UNL     1      -4.256   5.101   2.969  0.00  0.00    -0.210 N 
ATOM      8  C   UNL     1      -5.260   4.523   2.243  0.00  0.00    +0.229 C 
ATOM      9  O   UNL     1      -6.408   4.345   2.591  0.00  0.00    -0.275 OA
ATOM     10  C   UNL     1      -5.885   3.991  -1.151  0.00  0.00    +0.002 C 
ATOM     11  N   UNL     1      -3.556   3.185  -0.828  0.00  0.00    +0.395 N 
ATOM     12  H   UNL     1      -3.565   3.626  -1.755  0.00  0.00    -0.083 HD
ATOM     13  H   UNL     1      -3.314   2.192  -0.922  0.00  0.00    -0.083 HD
ENDROOT
BRANCH   4  14
ATOM     14  C   UNL     1      -1.237   3.133   0.027  0.00  0.00    -0.060 A 
ATOM     15  C   UNL     1      -1.218   1.751   0.000  0.00  0.00    +0.004 A 
ATOM     16  C   UNL     1      -0.013   1.076  -0.008  0.00  0.00    +0.023 A 
ATOM     17  C   UNL     1       1.180   1.787  -0.001  0.00  0.00    +0.029 A 
ATOM     18  C   UNL     1       1.157   3.176   0.021  0.00  0.00    +0.023 A 
ATOM     19  C   UNL     1      -0.051   3.845   0.035  0.00  0.00    +0.004 A 
BRANCH  17  20
ATOM     20  N   UNL     1       2.401   1.108  -0.015  0.00  0.00    -0.336 N 
ATOM     21  C   UNL     1       2.427  -0.353   0.090  0.00  0.00    +0.129 C 
ATOM     22  C   UNL     1       3.654   1.857  -0.133  0.00  0.00    +0.129 C 
ENDBRANCH  17  20
ENDBRANCH   4  14
BRANCH   7  23
ATOM     23  C   UNL     1      -4.465   5.823   4.153  0.00  0.00    +0.047 A 
ATOM     24  C   UNL     1      -5.753   6.003   4.640  0.00  0.00    +0.024 A 
ATOM     25  C   UNL     1      -5.958   6.709   5.809  0.00  0.00    +0.005 A 
ATOM     26  C   UNL     1      -4.884   7.248   6.492  0.00  0.00    +0.046 A 
ATOM     27  C   UNL     1      -3.595   7.076   6.007  0.00  0.00    +0.122 A 
ATOM     28  C   UNL     1      -3.385   6.363   4.837  0.00  0.00    +0.069 A 
BRANCH  27  29
ATOM     29  O   UNL     1      -2.540   7.606   6.679  0.00  0.00    -0.495 OA
ATOM     30  C   UNL     1      -2.830   8.328   7.878  0.00  0.00    +0.277 C 
ENDBRANCH  27  29
ENDBRANCH   7  23
BRANCH   1  31
ATOM     31  C   UNL     1      -5.418   1.972   0.238  0.00  0.00    +0.297 C 
ATOM     32  O   UNL     1      -6.051   1.867   1.262  0.00  0.00    -0.252 OA
BRANCH  31  33
ATOM     33  O   UNL     1      -5.178   0.888  -0.516  0.00  0.00    -0.466 OA
BRANCH  33  35
ATOM     34  C   UNL     1      -5.337  -1.489  -1.024  0.00  0.00    +0.048 C 
ATOM     35  C   UNL     1      -5.709  -0.377  -0.041  0.00  0.00    +0.228 C 
ENDBRANCH  33  35
ENDBRANCH  31  33
ENDBRANCH   1  31
TORSDOF 7
