REMARK  Name = ZINC39324813
REMARK  9 active torsions:
REMARK  status: ('A' for Active; 'I' for Inactive)
REMARK    1  A    between atoms: C_1  and  C_2
REMARK    2  A    between atoms: C_9  and  C_14
REMARK    3  A    between atoms: C_14  and  N_15
REMARK    4  A    between atoms: N_15  and  C_16
REMARK    5  A    between atoms: N_15  and  S_26
REMARK    6  A    between atoms: C_16  and  C_17
REMARK    7  A    between atoms: S_26  and  C_29
REMARK    8  A    between atoms: C_32  and  C_35
REMARK    9  A    between atoms: C_35  and  C_37
REMARK                            x       y       z     vdW  Elec       q    Type
REMARK                         _______ _______ _______ _____ _____    ______ ____
ROOT
ATOM      1  N   UNL     1      -1.009  -6.414   3.027  0.00  0.00    -0.171 NA
ENDROOT
BRANCH   1   2
ATOM      2  S   UNL     1      -1.657  -7.300   1.787  0.00  0.00    +0.061 S 
ATOM      3  O   UNL     1      -2.028  -8.557   2.337  0.00  0.00    -0.153 OA
ATOM      4  O   UNL     1      -2.587  -6.453   1.126  0.00  0.00    -0.153 OA
BRANCH   2   5
ATOM      5  C   UNL     1      -0.359  -7.617   0.639  0.00  0.00    +0.106 A 
ATOM      6  C   UNL     1      -0.209  -6.804  -0.472  0.00  0.00    +0.029 A 
ATOM      7  C   UNL     1       0.804  -7.046  -1.375  0.00  0.00    +0.013 A 
ATOM      8  C   UNL     1       1.682  -8.114  -1.167  0.00  0.00    +0.017 A 
ATOM      9  C   UNL     1       1.525  -8.930  -0.042  0.00  0.00    +0.013 A 
ATOM     10  C   UNL     1       0.510  -8.672   0.855  0.00  0.00    +0.029 A 
BRANCH   8  11
ATOM     11  C   UNL     1       2.766  -8.379  -2.126  0.00  0.00    +0.160 C 
ATOM     12  O   UNL     1       2.900  -7.670  -3.101  0.00  0.00    -0.292 OA
ATOM     13  C   UNL     1       3.710  -9.532  -1.898  0.00  0.00    +0.091 C 
ENDBRANCH   8  11
ENDBRANCH   2   5
ENDBRANCH   1   2
BRANCH   1  14
ATOM     14  C   UNL     1      -1.133  -4.954   3.026  0.00  0.00    +0.126 C 
BRANCH  14  23
ATOM     15  C   UNL     1       0.898   1.687   1.359  0.00  0.00    +0.044 C 
ATOM     16  C   UNL     1       1.010   0.186   1.283  0.00  0.00    -0.050 A 
ATOM     17  C   UNL     1       1.648  -0.397   0.188  0.00  0.00    +0.005 A 
ATOM     18  C   UNL     1       1.788  -1.742   0.051  0.00  0.00    +0.024 A 
ATOM     19  C   UNL     1       1.283  -2.615   1.032  0.00  0.00    +0.040 A 
ATOM     20  N   UNL     1       1.426  -3.933   0.888  0.00  0.00    -0.284 N 
ATOM     21  C   UNL     1       0.976  -4.809   1.770  0.00  0.00    +0.225 C 
ATOM     22  O   UNL     1       1.137  -6.000   1.584  0.00  0.00    -0.275 OA
ATOM     23  C   UNL     1       0.262  -4.324   3.011  0.00  0.00    +0.114 C 
ATOM     24  C   UNL     1       0.097  -2.826   3.180  0.00  0.00    -0.003 C 
ATOM     25  C   UNL     1       0.605  -2.027   2.200  0.00  0.00    -0.007 A 
ATOM     26  C   UNL     1       0.494  -0.571   2.286  0.00  0.00    +0.012 A 
ATOM     27  H   UNL     1       1.882  -4.264   0.098  0.00  0.00    +0.155 HD
ENDBRANCH  14  23
ENDBRANCH   1  14
BRANCH   1  28
ATOM     28  C   UNL     1      -0.312  -7.090   4.124  0.00  0.00    +0.144 C 
BRANCH  28  29
ATOM     29  C   UNL     1      -1.271  -7.315   5.265  0.00  0.00    -0.028 A 
ATOM     30  C   UNL     1      -1.412  -6.352   6.247  0.00  0.00    +0.009 A 
ATOM     31  C   UNL     1      -2.291  -6.554   7.295  0.00  0.00    +0.050 A 
ATOM     32  C   UNL     1      -3.031  -7.723   7.364  0.00  0.00    +0.166 A 
ATOM     33  C   UNL     1      -2.889  -8.692   6.375  0.00  0.00    +0.167 A 
ATOM     34  C   UNL     1      -2.011  -8.481   5.324  0.00  0.00    +0.054 A 
ATOM     35  O   UNL     1      -3.717  -9.737   6.665  0.00  0.00    -0.453 OA
ATOM     36  C   UNL     1      -4.064  -9.578   8.054  0.00  0.00    +0.466 C 
ATOM     37  O   UNL     1      -3.949  -8.160   8.275  0.00  0.00    -0.453 OA
ENDBRANCH  28  29
ENDBRANCH   1  28
TORSDOF 7
