REMARK  Name = ZINC40042840
REMARK  15 active torsions:
REMARK  status: ('A' for Active; 'I' for Inactive)
REMARK    1  A    between atoms: C_1  and  C_2
REMARK    2  A    between atoms: C_4  and  C_32
REMARK    3  A    between atoms: C_6  and  C_28
REMARK    4  A    between atoms: C_10  and  C_11
REMARK    5  A    between atoms: C_11  and  O_13
REMARK    6  A    between atoms: O_13  and  C_14
REMARK    7  A    between atoms: C_14  and  C_15
REMARK    8  A    between atoms: N_17  and  C_18
REMARK    9  A    between atoms: C_20  and  O_26
REMARK   10  A    between atoms: C_23  and  O_24
REMARK   11  A    between atoms: O_24  and  C_25
REMARK   12  A    between atoms: O_26  and  C_27
REMARK   13  A    between atoms: C_28  and  C_29
REMARK   14  A    between atoms: C_28  and  C_30
REMARK   15  A    between atoms: C_28  and  C_31
REMARK                            x       y       z     vdW  Elec       q    Type
REMARK                         _______ _______ _______ _____ _____    ______ ____
ROOT
ATOM      1  C   UNL     1       1.903  -0.053   1.758  0.00  0.00    +0.347 C 
ATOM      2  O   UNL     1       2.026   1.151   1.864  0.00  0.00    -0.244 OA
ENDROOT
BRANCH   1  12
ATOM      3  C   UNL     1       0.857   1.528  -0.611  0.00  0.00    +0.046 C 
ATOM      4  C   UNL     1       0.802   0.024  -0.539  0.00  0.00    -0.018 A 
ATOM      5  C   UNL     1       0.253  -0.711  -1.601  0.00  0.00    +0.032 A 
ATOM      6  C   UNL     1      -0.301  -0.250  -2.821  0.00  0.00    +0.050 A 
ATOM      7  N   UNL     1      -0.766  -1.122  -3.689  0.00  0.00    -0.236 NA
ATOM      8  C   UNL     1      -0.738  -2.425  -3.468  0.00  0.00    +0.136 A 
ATOM      9  N   UNL     1      -0.237  -2.922  -2.354  0.00  0.00    -0.224 NA
ATOM     10  C   UNL     1       0.251  -2.121  -1.432  0.00  0.00    +0.113 A 
ATOM     11  S   UNL     1       0.997  -2.342   0.162  0.00  0.00    -0.062 S 
ATOM     12  C   UNL     1       1.289  -0.625   0.553  0.00  0.00    +0.102 A 
ATOM     13  C   UNL     1      -0.357   1.226  -3.121  0.00  0.00    +0.066 C 
BRANCH   8  14
ATOM     14  C   UNL     1      -1.290  -3.362  -4.511  0.00  0.00    +0.022 C 
ATOM     15  C   UNL     1      -0.517  -3.182  -5.819  0.00  0.00    +0.019 C 
ATOM     16  C   UNL     1      -1.145  -4.806  -4.028  0.00  0.00    +0.019 C 
ATOM     17  C   UNL     1      -2.769  -3.049  -4.746  0.00  0.00    +0.019 C 
ENDBRANCH   8  14
ENDBRANCH   1  12
BRANCH   1  18
ATOM     18  O   UNL     1       2.331  -0.865   2.746  0.00  0.00    -0.451 OA
BRANCH  18  19
ATOM     19  C   UNL     1       2.919  -0.240   3.890  0.00  0.00    +0.328 C 
BRANCH  19  20
ATOM     20  C   UNL     1       3.334  -1.296   4.881  0.00  0.00    +0.255 C 
ATOM     21  O   UNL     1       3.145  -2.469   4.633  0.00  0.00    -0.272 OA
ATOM     22  N   UNL     1       3.914  -0.939   6.043  0.00  0.00    -0.280 N 
ATOM     23  H   UNL     1       3.992  -0.001   6.278  0.00  0.00    +0.155 HD
BRANCH  22  24
ATOM     24  C   UNL     1       4.406  -1.921   6.913  0.00  0.00    +0.079 A 
ATOM     25  C   UNL     1       4.775  -3.164   6.419  0.00  0.00    +0.072 A 
ATOM     26  C   UNL     1       5.261  -4.135   7.282  0.00  0.00    +0.122 A 
ATOM     27  C   UNL     1       5.378  -3.863   8.637  0.00  0.00    +0.049 A 
ATOM     28  C   UNL     1       5.011  -2.626   9.132  0.00  0.00    +0.051 A 
ATOM     29  C   UNL     1       4.530  -1.650   8.273  0.00  0.00    +0.141 A 
BRANCH  29  30
ATOM     30  O   UNL     1       4.175  -0.430   8.760  0.00  0.00    -0.493 OA
ATOM     31  C   UNL     1       4.329  -0.222  10.165  0.00  0.00    +0.277 C 
ENDBRANCH  29  30
BRANCH  26  32
ATOM     32  O   UNL     1       5.622  -5.353   6.799  0.00  0.00    -0.495 OA
ATOM     33  C   UNL     1       6.114  -6.305   7.744  0.00  0.00    +0.277 C 
ENDBRANCH  26  32
ENDBRANCH  22  24
ENDBRANCH  19  20
ENDBRANCH  18  19
ENDBRANCH   1  18
TORSDOF 8
