REMARK  Name = ZINC06993214
REMARK  2 active torsions:
REMARK  status: ('A' for Active; 'I' for Inactive)
REMARK    1  A    between atoms: C_12  and  C_14
REMARK    2  A    between atoms: N_16  and  N_17
REMARK                            x       y       z     vdW  Elec       q    Type
REMARK                         _______ _______ _______ _____ _____    ______ ____
ROOT
ATOM      1  C   UNL     1       3.106   1.699  -1.145  0.00  0.00    +0.267 C 
ATOM      2  O   UNL     1       2.600   2.150  -2.156  0.00  0.00    -0.268 OA
ATOM      3  N   UNL     1       2.382   1.612  -0.011  0.00  0.00    -0.219 N 
ATOM      4  H   UNL     1       2.785   1.253   0.795  0.00  0.00    +0.174 HD
ENDROOT
BRANCH   1  16
ATOM      5  C   UNL     1      10.808  -1.131   0.270  0.00  0.00    +0.000 A 
ATOM      6  C   UNL     1       9.766  -1.344   1.156  0.00  0.00    +0.001 A 
ATOM      7  C   UNL     1       8.504  -0.866   0.864  0.00  0.00    +0.009 A 
ATOM      8  C   UNL     1       8.284  -0.180  -0.323  0.00  0.00    -0.008 A 
ATOM      9  C   UNL     1       9.351   0.072  -1.202  0.00  0.00    -0.039 A 
ATOM     10  C   UNL     1      10.601  -0.426  -0.902  0.00  0.00    +0.004 A 
ATOM     11  C   UNL     1       9.136   0.914  -2.428  0.00  0.00    +0.040 C 
ATOM     12  C   UNL     1       7.771   0.701  -3.071  0.00  0.00    +0.041 C 
ATOM     13  C   UNL     1       6.681   0.786  -2.010  0.00  0.00    -0.032 A 
ATOM     14  C   UNL     1       6.978   0.335  -0.721  0.00  0.00    +0.023 A 
ATOM     15  S   UNL     1       5.475   0.567   0.174  0.00  0.00    -0.083 S 
ATOM     16  C   UNL     1       4.501   1.252  -1.159  0.00  0.00    +0.076 A 
ATOM     17  C   UNL     1       5.407   1.257  -2.210  0.00  0.00    +0.025 A 
ENDBRANCH   1  16
BRANCH   3  18
ATOM     18  N   UNL     1       1.048   2.039   0.003  0.00  0.00    -0.137 N 
ATOM     19  C   UNL     1      -0.014   1.208   0.009  0.00  0.00    +0.263 C 
ATOM     20  O   UNL     1       0.002  -0.004   0.002  0.00  0.00    -0.271 OA
ATOM     21  C   UNL     1      -1.230   2.107   0.018  0.00  0.00    +0.114 C 
ATOM     22  C   UNL     1      -2.058   1.866   1.276  0.00  0.00    +0.035 C 
ATOM     23  C   UNL     1      -3.268   2.804   1.280  0.00  0.00    +0.003 C 
ATOM     24  C   UNL     1      -4.116   2.547   0.033  0.00  0.00    +0.000 C 
ATOM     25  C   UNL     1      -3.279   2.817  -1.219  0.00  0.00    +0.003 C 
ATOM     26  C   UNL     1      -2.069   1.879  -1.234  0.00  0.00    +0.035 C 
ATOM     27  N   UNL     1      -0.670   3.464   0.026  0.00  0.00    -0.284 N 
ATOM     28  C   UNL     1       0.670   3.323   0.013  0.00  0.00    +0.326 C 
ATOM     29  O   UNL     1       1.448   4.257   0.010  0.00  0.00    -0.251 OA
ATOM     30  H   UNL     1      -1.166   4.297   0.034  0.00  0.00    +0.151 HD
ENDBRANCH   3  18
TORSDOF 2
