REMARK  Name = ZINC12665692
REMARK  12 active torsions:
REMARK  status: ('A' for Active; 'I' for Inactive)
REMARK    1  A    between atoms: C_1  and  C_2
REMARK    2  A    between atoms: C_2  and  C_3
REMARK    3  A    between atoms: C_3  and  C_4
REMARK    4  A    between atoms: C_4  and  C_5
REMARK    5  A    between atoms: N_13  and  C_14
REMARK    6  A    between atoms: C_14  and  C_16
REMARK    7  A    between atoms: N_21  and  S_23
REMARK    8  A    between atoms: S_23  and  C_26
REMARK    9  A    between atoms: C_29  and  O_32
REMARK   10  A    between atoms: O_32  and  C_33
REMARK   11  A    between atoms: N_34  and  C_35
REMARK   12  A    between atoms: C_35  and  C_36
REMARK                            x       y       z     vdW  Elec       q    Type
REMARK                         _______ _______ _______ _____ _____    ______ ____
ROOT
ATOM      1  C   UNL     1      -2.096   2.416  -0.135  0.00  0.00    +0.243 C 
ATOM      2  O   UNL     1      -2.451   1.284   0.131  0.00  0.00    -0.273 OA
ENDROOT
BRANCH   1  11
ATOM      3  C   UNL     1       2.466   0.069  -4.886  0.00  0.00    -0.046 A 
ATOM      4  C   UNL     1       1.156  -0.299  -5.141  0.00  0.00    +0.006 A 
ATOM      5  C   UNL     1       0.131   0.099  -4.316  0.00  0.00    +0.027 A 
ATOM      6  C   UNL     1       0.385   0.895  -3.188  0.00  0.00    +0.058 A 
ATOM      7  C   UNL     1       1.721   1.253  -2.956  0.00  0.00    +0.039 A 
ATOM      8  C   UNL     1       2.745   0.853  -3.781  0.00  0.00    +0.020 A 
ATOM      9  S   UNL     1       1.629   2.232  -1.478  0.00  0.00    -0.052 S 
ATOM     10  C   UNL     1      -0.084   2.145  -1.223  0.00  0.00    +0.167 A 
ATOM     11  N   UNL     1      -0.803   2.698  -0.248  0.00  0.00    -0.156 NA
ATOM     12  N   UNL     1      -0.518   1.382  -2.261  0.00  0.00    -0.310 N 
BRANCH   3  13
ATOM     13  C   UNL     1       3.576  -0.379  -5.803  0.00  0.00    +0.035 C 
BRANCH  13  14
ATOM     14  C   UNL     1       4.130  -1.719  -5.315  0.00  0.00    +0.004 C 
BRANCH  14  16
ATOM     15  C   UNL     1       5.810  -3.514  -5.757  0.00  0.00    +0.004 C 
ATOM     16  C   UNL     1       5.256  -2.174  -6.245  0.00  0.00    -0.003 C 
ENDBRANCH  14  16
ENDBRANCH  13  14
ENDBRANCH   3  13
BRANCH  12  17
ATOM     17  C   UNL     1      -1.944   1.076  -2.398  0.00  0.00    +0.212 C 
BRANCH  17  18
ATOM     18  C   UNL     1      -2.224  -0.235  -1.791  0.00  0.00    -0.084 C 
ATOM     19  C   UNL     1      -2.448  -1.281  -1.306  0.00  0.00    +0.005 C 
ENDBRANCH  17  18
ENDBRANCH  12  17
ENDBRANCH   1  11
BRANCH   1  20
ATOM     20  C   UNL     1      -3.124   3.501  -0.336  0.00  0.00    +0.093 C 
ATOM     21  C   UNL     1      -2.993   4.071  -1.750  0.00  0.00    +0.015 C 
ATOM     22  C   UNL     1      -4.015   5.194  -1.945  0.00  0.00    +0.018 C 
ATOM     23  C   UNL     1      -5.429   4.628  -1.780  0.00  0.00    +0.109 C 
ATOM     24  N   UNL     1      -5.518   3.950  -0.479  0.00  0.00    -0.176 NA
ATOM     25  C   UNL     1      -4.527   2.915  -0.153  0.00  0.00    +0.122 C 
BRANCH  24  26
ATOM     26  S   UNL     1      -6.711   4.346   0.598  0.00  0.00    +0.061 S 
ATOM     27  O   UNL     1      -7.775   4.903  -0.161  0.00  0.00    -0.153 OA
ATOM     28  O   UNL     1      -6.887   3.216   1.442  0.00  0.00    -0.153 OA
BRANCH  26  29
ATOM     29  C   UNL     1      -6.086   5.642   1.616  0.00  0.00    +0.106 A 
ATOM     30  C   UNL     1      -5.419   5.338   2.788  0.00  0.00    +0.032 A 
ATOM     31  C   UNL     1      -4.923   6.352   3.584  0.00  0.00    +0.047 A 
ATOM     32  C   UNL     1      -5.104   7.676   3.213  0.00  0.00    +0.120 A 
ATOM     33  C   UNL     1      -5.779   7.978   2.039  0.00  0.00    +0.047 A 
ATOM     34  C   UNL     1      -6.268   6.961   1.243  0.00  0.00    +0.032 A 
BRANCH  32  35
ATOM     35  O   UNL     1      -4.622   8.675   3.997  0.00  0.00    -0.495 OA
ATOM     36  C   UNL     1      -3.938   8.290   5.191  0.00  0.00    +0.277 C 
ENDBRANCH  32  35
ENDBRANCH  26  29
ENDBRANCH  24  26
ENDBRANCH   1  20
TORSDOF 10
