REMARK  Name = ZINC39252542
REMARK  10 active torsions:
REMARK  status: ('A' for Active; 'I' for Inactive)
REMARK    1  A    between atoms: C_1  and  C_2
REMARK    2  A    between atoms: C_2  and  O_3
REMARK    3  A    between atoms: O_3  and  C_4
REMARK    4  A    between atoms: C_4  and  C_6
REMARK    5  A    between atoms: C_8  and  N_16
REMARK    6  A    between atoms: C_17  and  C_19
REMARK    7  A    between atoms: C_19  and  S_20
REMARK    8  A    between atoms: S_20  and  C_21
REMARK    9  A    between atoms: C_25  and  C_33
REMARK   10  A    between atoms: C_26  and  C_28
REMARK                            x       y       z     vdW  Elec       q    Type
REMARK                         _______ _______ _______ _____ _____    ______ ____
ROOT
ATOM      1  N   UNL     1       3.430  -1.576  -1.229  0.00  0.00    -0.301 N 
ATOM      2  C   UNL     1       4.658  -1.998  -0.870  0.00  0.00    +0.224 C 
ATOM      3  O   UNL     1       5.348  -2.601  -1.664  0.00  0.00    -0.275 OA
ATOM      4  H   UNL     1       2.878  -1.093  -0.594  0.00  0.00    +0.150 HD
ENDROOT
BRANCH   1   6
ATOM      5  C   UNL     1       1.468  -2.353  -2.550  0.00  0.00    +0.155 C 
ATOM      6  C   UNL     1       2.928  -1.846  -2.578  0.00  0.00    +0.153 C 
ATOM      7  S   UNL     1       3.725  -3.334  -3.312  0.00  0.00    -0.106 S 
ATOM      8  C   UNL     1       2.482  -4.536  -2.876  0.00  0.00    -0.013 C 
ATOM      9  C   UNL     1       1.408  -3.868  -2.501  0.00  0.00    -0.044 C 
ATOM     10  C   UNL     1       0.326  -4.876  -2.093  0.00  0.00    +0.033 C 
ATOM     11  C   UNL     1       0.760  -6.217  -2.716  0.00  0.00    +0.009 C 
ATOM     12  C   UNL     1       2.284  -6.031  -2.804  0.00  0.00    +0.042 C 
BRANCH   5  13
ATOM     13  C   UNL     1       0.775  -1.794  -1.334  0.00  0.00    +0.317 C 
ATOM     14  O   UNL     1       0.314  -2.540  -0.504  0.00  0.00    -0.250 OA
BRANCH  13  15
ATOM     15  O   UNL     1       0.671  -0.465  -1.174  0.00  0.00    -0.464 OA
BRANCH  15  17
ATOM     16  C   UNL     1      -0.019   1.526   0.010  0.00  0.00    +0.048 C 
ATOM     17  C   UNL     1       0.002  -0.004   0.002  0.00  0.00    +0.229 C 
ENDBRANCH  15  17
ENDBRANCH  13  15
ENDBRANCH   5  13
ENDBRANCH   1   6
BRANCH   2  18
ATOM     18  C   UNL     1       5.175  -1.720   0.518  0.00  0.00    +0.173 C 
BRANCH  18  19
ATOM     19  S   UNL     1       6.844  -2.409   0.692  0.00  0.00    -0.077 S 
BRANCH  19  20
ATOM     20  C   UNL     1       7.301  -2.007   2.345  0.00  0.00    +0.193 A 
ATOM     21  N   UNL     1       6.439  -1.344   3.106  0.00  0.00    -0.182 NA
ATOM     22  C   UNL     1       6.737  -1.019   4.356  0.00  0.00    +0.292 A 
ATOM     23  O   UNL     1       5.848  -0.344   5.121  0.00  0.00    -0.264 OA
ATOM     24  C   UNL     1       7.993  -1.388   4.876  0.00  0.00    +0.147 A 
ATOM     25  C   UNL     1       8.881  -2.093   4.031  0.00  0.00    +0.131 A 
ATOM     26  N   UNL     1       8.492  -2.381   2.789  0.00  0.00    -0.217 NA
BRANCH  25  27
ATOM     27  C   UNL     1      10.208  -2.506   4.515  0.00  0.00    +0.154 A 
ATOM     28  C   UNL     1      10.866  -3.649   4.172  0.00  0.00    +0.051 A 
ATOM     29  C   UNL     1      12.090  -3.635   4.864  0.00  0.00    +0.042 A 
ATOM     30  C   UNL     1      12.123  -2.498   5.589  0.00  0.00    +0.196 A 
ATOM     31  O   UNL     1      10.988  -1.816   5.372  0.00  0.00    -0.461 OA
ENDBRANCH  25  27
BRANCH  24  32
ATOM     32  C   UNL     1       8.360  -1.058   6.220  0.00  0.00    +0.107 C 
ATOM     33  N   UNL     1       8.651  -0.797   7.287  0.00  0.00    -0.191 NA
ENDBRANCH  24  32
ENDBRANCH  19  20
ENDBRANCH  18  19
ENDBRANCH   2  18
TORSDOF 9
