REMARK  Name = ZINC27836704
REMARK  4 active torsions:
REMARK  status: ('A' for Active; 'I' for Inactive)
REMARK    1  A    between atoms: C_1  and  C_2
REMARK    2  A    between atoms: C_5  and  N_8
REMARK    3  A    between atoms: C_10  and  C_19
REMARK    4  A    between atoms: C_24  and  C_27
REMARK                            x       y       z     vdW  Elec       q    Type
REMARK                         _______ _______ _______ _____ _____    ______ ____
ROOT
ATOM      1  N   UNL     1      -0.642  -5.149  -0.527  0.00  0.00    -0.325 N 
ATOM      2  C   UNL     1      -1.736  -4.632  -0.011  0.00  0.00    +0.212 A 
ATOM      3  C   UNL     1      -1.954  -3.171   0.005  0.00  0.00    +0.098 A 
ATOM      4  C   UNL     1      -3.270  -2.728   0.020  0.00  0.00    +0.030 A 
ATOM      5  C   UNL     1      -4.323  -3.746   0.006  0.00  0.00    +0.018 A 
ATOM      6  C   UNL     1      -5.653  -3.400  -0.256  0.00  0.00    +0.011 A 
ATOM      7  C   UNL     1      -6.617  -4.369  -0.263  0.00  0.00    +0.001 A 
ATOM      8  C   UNL     1      -6.288  -5.693  -0.011  0.00  0.00    +0.004 A 
ATOM      9  C   UNL     1      -4.982  -6.055   0.251  0.00  0.00    +0.047 A 
ATOM     10  C   UNL     1      -3.987  -5.089   0.264  0.00  0.00    +0.137 A 
ATOM     11  O   UNL     1      -2.700  -5.425   0.523  0.00  0.00    -0.439 OA
ATOM     12  H   UNL     1       0.087  -4.499  -1.034  0.00  0.00    +0.169 HD
ENDROOT
BRANCH   3  13
ATOM     13  C   UNL     1      -0.825  -2.227   0.012  0.00  0.00    +0.255 C 
ATOM     14  O   UNL     1       0.318  -2.644   0.004  0.00  0.00    -0.270 OA
ATOM     15  N   UNL     1      -1.057  -0.899   0.027  0.00  0.00    -0.261 N 
ATOM     16  C   UNL     1       0.008  -0.008   0.033  0.00  0.00    +0.165 A 
ATOM     17  N   UNL     1      -0.008   1.312   0.047  0.00  0.00    -0.225 NA
ATOM     18  C   UNL     1       1.116   2.013   0.052  0.00  0.00    +0.080 A 
ATOM     19  C   UNL     1       2.316   1.357   0.041  0.00  0.00    +0.076 A 
ATOM     20  S   UNL     1       1.763  -0.344   0.025  0.00  0.00    -0.060 S 
ATOM     21  H   UNL     1      -2.090  -0.521   0.034  0.00  0.00    +0.157 HD
BRANCH  18  22
ATOM     22  C   UNL     1       1.074   3.495   0.067  0.00  0.00    +0.002 A 
ATOM     23  C   UNL     1       2.273   4.226   0.077  0.00  0.00    +0.010 A 
ATOM     24  C   UNL     1       2.262   5.584   0.085  0.00  0.00    +0.009 A 
ATOM     25  C   UNL     1       1.037   6.276   0.096  0.00  0.00    -0.018 A 
ATOM     26  C   UNL     1       0.999   7.681   0.111  0.00  0.00    +0.008 A 
ATOM     27  C   UNL     1      -0.202   8.322   0.121  0.00  0.00    +0.001 A 
ATOM     28  C   UNL     1      -1.398   7.608   0.118  0.00  0.00    +0.001 A 
ATOM     29  C   UNL     1      -1.401   6.247   0.104  0.00  0.00    +0.008 A 
ATOM     30  C   UNL     1      -0.180   5.549   0.092  0.00  0.00    -0.017 A 
ATOM     31  C   UNL     1      -0.146   4.146   0.077  0.00  0.00    +0.018 A 
ENDBRANCH  18  22
ENDBRANCH   3  13
BRANCH   1  36
ATOM     32  C   UNL     1       0.311 -10.698  -0.145  0.00  0.00    +0.044 C 
ATOM     33  C   UNL     1       0.057  -9.217  -0.247  0.00  0.00    -0.050 A 
ATOM     34  C   UNL     1      -0.544  -8.697  -1.381  0.00  0.00    +0.005 A 
ATOM     35  C   UNL     1      -0.781  -7.342  -1.481  0.00  0.00    +0.026 A 
ATOM     36  C   UNL     1      -0.412  -6.493  -0.435  0.00  0.00    +0.042 A 
ATOM     37  C   UNL     1       0.200  -7.024   0.704  0.00  0.00    +0.026 A 
ATOM     38  C   UNL     1       0.424  -8.382   0.793  0.00  0.00    +0.005 A 
ENDBRANCH   1  36
TORSDOF 3
