REMARK  Name = ZINC08918466
REMARK  3 active torsions:
REMARK  status: ('A' for Active; 'I' for Inactive)
REMARK    1  A    between atoms: C_1  and  C_2
REMARK    2  A    between atoms: C_4  and  C_35
REMARK    3  A    between atoms: N_20  and  C_23
REMARK                            x       y       z     vdW  Elec       q    Type
REMARK                         _______ _______ _______ _____ _____    ______ ____
ROOT
ATOM      1  C   UNL     1       4.241   4.098  -2.201  0.00  0.00    +0.044 C 
ATOM      2  C   UNL     1       3.481   2.812  -2.001  0.00  0.00    -0.050 A 
ATOM      3  C   UNL     1       4.046   1.607  -2.376  0.00  0.00    +0.008 A 
ATOM      4  C   UNL     1       3.355   0.427  -2.194  0.00  0.00    -0.029 A 
ATOM      5  C   UNL     1       2.080   0.440  -1.631  0.00  0.00    +0.039 A 
ATOM      6  C   UNL     1       1.522   1.659  -1.258  0.00  0.00    -0.027 A 
ATOM      7  C   UNL     1       2.215   2.834  -1.440  0.00  0.00    +0.008 A 
ATOM      8  C   UNL     1       0.167   1.335  -0.694  0.00  0.00    +0.053 C 
ATOM      9  C   UNL     1      -0.946   2.040  -1.477  0.00  0.00    +0.089 C 
ATOM     10  C   UNL     1      -2.003   2.421  -0.405  0.00  0.00    +0.074 C 
ATOM     11  C   UNL     1      -1.429   1.906   0.928  0.00  0.00    -0.054 C 
ATOM     12  C   UNL     1       0.554   3.175   0.827  0.00  0.00    -0.076 C 
ATOM     13  C   UNL     1      -0.280   3.813   1.956  0.00  0.00    -0.020 C 
ATOM     14  C   UNL     1      -1.584   2.994   2.006  0.00  0.00    -0.016 C 
ATOM     15  C   UNL     1      -1.960   3.948  -0.422  0.00  0.00    +0.228 C 
ATOM     16  O   UNL     1      -2.633   4.673   0.279  0.00  0.00    -0.275 OA
ATOM     17  N   UNL     1      -1.072   4.361  -1.333  0.00  0.00    -0.210 N 
ATOM     18  C   UNL     1      -0.446   3.374  -1.985  0.00  0.00    +0.229 C 
ATOM     19  O   UNL     1       0.391   3.526  -2.849  0.00  0.00    -0.275 OA
ATOM     20  C   UNL     1       0.049  -0.161  -0.799  0.00  0.00    +0.212 C 
ATOM     21  O   UNL     1      -0.896  -0.839  -0.453  0.00  0.00    -0.277 OA
ATOM     22  N   UNL     1       1.195  -0.603  -1.351  0.00  0.00    -0.286 N 
ATOM     23  C   UNL     1       3.980  -0.881  -2.606  0.00  0.00    +0.045 C 
ATOM     24  H   UNL     1       1.384  -1.537  -1.532  0.00  0.00    +0.155 HD
ATOM     25  N   UNL     1      -0.008   1.816   0.680  0.00  0.00    +0.395 N 
ATOM     26  H   UNL     1       0.440   1.172   1.342  0.00  0.00    -0.079 HD
ENDROOT
BRANCH  17  27
ATOM     27  C   UNL     1      -0.817   5.718  -1.585  0.00  0.00    +0.048 A 
ATOM     28  C   UNL     1       0.183   6.377  -0.883  0.00  0.00    +0.028 A 
ATOM     29  C   UNL     1       0.435   7.713  -1.129  0.00  0.00    +0.051 A 
ATOM     30  C   UNL     1      -0.308   8.398  -2.078  0.00  0.00    +0.166 A 
ATOM     31  C   UNL     1      -1.312   7.739  -2.783  0.00  0.00    +0.168 A 
ATOM     32  C   UNL     1      -1.560   6.398  -2.539  0.00  0.00    +0.073 A 
ATOM     33  O   UNL     1      -1.889   8.622  -3.648  0.00  0.00    -0.453 OA
ATOM     34  C   UNL     1      -0.961   9.717  -3.758  0.00  0.00    +0.466 C 
ATOM     35  O   UNL     1      -0.257   9.695  -2.502  0.00  0.00    -0.453 OA
ENDBRANCH  17  27
TORSDOF 1
