REMARK  Name = ZINC40360670
REMARK  8 active torsions:
REMARK  status: ('A' for Active; 'I' for Inactive)
REMARK    1  A    between atoms: C_1  and  C_2
REMARK    2  A    between atoms: C_5  and  N_8
REMARK    3  A    between atoms: C_18  and  C_19
REMARK    4  A    between atoms: C_19  and  C_21
REMARK    5  A    between atoms: C_19  and  N_22
REMARK    6  A    between atoms: N_22  and  C_23
REMARK    7  A    between atoms: N_26  and  C_27
REMARK    8  A    between atoms: C_32  and  C_33
REMARK                            x       y       z     vdW  Elec       q    Type
REMARK                         _______ _______ _______ _____ _____    ______ ____
ROOT
ATOM      1  N   UNL     1      -0.971  -4.559   0.487  0.00  0.00    -0.263 N 
ATOM      2  C   UNL     1      -1.082  -5.260  -0.665  0.00  0.00    +0.266 A 
ATOM      3  O   UNL     1      -2.131  -5.302  -1.281  0.00  0.00    -0.267 OA
ATOM      4  C   UNL     1       0.113  -5.969  -1.144  0.00  0.00    +0.065 A 
ATOM      5  C   UNL     1       0.104  -6.719  -2.319  0.00  0.00    +0.017 A 
ATOM      6  C   UNL     1       1.243  -7.359  -2.721  0.00  0.00    +0.021 A 
ATOM      7  C   UNL     1       2.410  -7.271  -1.971  0.00  0.00    +0.043 A 
ATOM      8  C   UNL     1       2.445  -6.536  -0.805  0.00  0.00    +0.048 A 
ATOM      9  C   UNL     1       1.294  -5.873  -0.375  0.00  0.00    +0.080 A 
ATOM     10  N   UNL     1       1.280  -5.137   0.765  0.00  0.00    -0.231 NA
ATOM     11  C   UNL     1       0.210  -4.517   1.161  0.00  0.00    +0.138 A 
ATOM     12 CL   UNL     1       3.840  -8.096  -2.508  0.00  0.00    -0.083 Cl
ENDROOT
BRANCH   1  17
ATOM     13  C   UNL     1      -5.463  -1.747   2.513  0.00  0.00    +0.044 C 
ATOM     14  C   UNL     1      -4.270  -2.494   1.975  0.00  0.00    -0.050 A 
ATOM     15  C   UNL     1      -4.148  -3.853   2.200  0.00  0.00    +0.005 A 
ATOM     16  C   UNL     1      -3.056  -4.540   1.708  0.00  0.00    +0.026 A 
ATOM     17  C   UNL     1      -2.080  -3.865   0.987  0.00  0.00    +0.051 A 
ATOM     18  C   UNL     1      -2.205  -2.500   0.763  0.00  0.00    +0.026 A 
ATOM     19  C   UNL     1      -3.303  -1.819   1.253  0.00  0.00    +0.005 A 
ENDBRANCH   1  17
BRANCH  11  20
ATOM     20  C   UNL     1       0.279  -3.716   2.435  0.00  0.00    +0.141 C 
ATOM     21  C   UNL     1       1.399  -2.679   2.326  0.00  0.00    +0.036 C 
BRANCH  20  22
ATOM     22  N   UNL     1       0.550  -4.612   3.562  0.00  0.00    -0.279 N 
ATOM     23  C   UNL     1       1.777  -5.413   3.582  0.00  0.00    +0.134 C 
ATOM     24  C   UNL     1      -0.328  -4.699   4.580  0.00  0.00    +0.307 C 
ATOM     25  O   UNL     1      -1.346  -4.034   4.564  0.00  0.00    -0.252 OA
ATOM     26  N   UNL     1      -0.078  -5.523   5.617  0.00  0.00    -0.269 N 
ATOM     27  H   UNL     1       0.686  -6.120   5.589  0.00  0.00    +0.156 HD
BRANCH  26  28
ATOM     28  C   UNL     1      -0.921  -5.518   6.734  0.00  0.00    +0.046 A 
ATOM     29  C   UNL     1      -1.746  -4.428   6.978  0.00  0.00    +0.024 A 
ATOM     30  C   UNL     1      -2.577  -4.426   8.081  0.00  0.00    +0.002 A 
ATOM     31  C   UNL     1      -2.588  -5.508   8.943  0.00  0.00    +0.001 A 
ATOM     32  C   UNL     1      -1.767  -6.594   8.703  0.00  0.00    +0.014 A 
ATOM     33  C   UNL     1      -0.938  -6.605   7.598  0.00  0.00    +0.076 A 
BRANCH  33  34
ATOM     34  C   UNL     1      -0.049  -7.792   7.334  0.00  0.00    +0.419 C 
ATOM     35  F   UNL     1      -0.243  -8.752   8.333  0.00  0.00    -0.166 F 
ATOM     36  F   UNL     1      -0.367  -8.345   6.089  0.00  0.00    -0.166 F 
ATOM     37  F   UNL     1       1.289  -7.382   7.334  0.00  0.00    -0.166 F 
ENDBRANCH  33  34
ENDBRANCH  26  28
ENDBRANCH  20  22
ENDBRANCH  11  20
TORSDOF 5
