REMARK  Name = ZINC02647873
REMARK  6 active torsions:
REMARK  status: ('A' for Active; 'I' for Inactive)
REMARK    1  A    between atoms: C_1  and  C_2
REMARK    2  A    between atoms: C_5  and  S_8
REMARK    3  A    between atoms: S_8  and  C_9
REMARK    4  A    between atoms: C_12  and  C_18
REMARK    5  A    between atoms: C_14  and  N_15
REMARK    6  A    between atoms: C_30  and  C_33
REMARK                            x       y       z     vdW  Elec       q    Type
REMARK                         _______ _______ _______ _____ _____    ______ ____
ROOT
ATOM      1  C   UNL     1       0.819   1.774  -0.476  0.00  0.00    +0.007 C 
ATOM      2  C   UNL     1       0.217   0.601   0.261  0.00  0.00    +0.011 A 
ATOM      3  C   UNL     1       0.628  -0.674   0.077  0.00  0.00    -0.015 A 
ATOM      4  C   UNL     1      -0.169  -1.510   0.947  0.00  0.00    +0.004 A 
ATOM      5  C   UNL     1      -0.191  -2.888   1.183  0.00  0.00    +0.010 A 
ATOM      6  C   UNL     1      -1.105  -3.347   2.100  0.00  0.00    +0.001 A 
ATOM      7  C   UNL     1      -1.970  -2.495   2.766  0.00  0.00    +0.002 A 
ATOM      8  C   UNL     1      -1.970  -1.127   2.553  0.00  0.00    +0.026 A 
ATOM      9  C   UNL     1      -1.053  -0.633   1.628  0.00  0.00    +0.047 A 
ATOM     10  N   UNL     1      -0.789   0.633   1.187  0.00  0.00    -0.359 N 
ATOM     11  H   UNL     1      -1.247   1.434   1.486  0.00  0.00    +0.166 HD
ATOM     12  C   UNL     1       1.724  -1.065  -0.882  0.00  0.00    +0.036 C 
ATOM     13  C   UNL     1       1.963   0.115  -1.835  0.00  0.00    -0.068 C 
ATOM     14  N   UNL     1       2.117   1.359  -1.052  0.00  0.00    +0.388 N 
ATOM     15  H   UNL     1       2.788   1.199  -0.292  0.00  0.00    -0.084 HD
ATOM     16  H   UNL     1       2.467   2.103  -1.667  0.00  0.00    -0.084 HD
ENDROOT
BRANCH  12  17
ATOM     17  C   UNL     1       1.302  -2.279  -1.669  0.00  0.00    -0.023 A 
ATOM     18  C   UNL     1       0.171  -2.231  -2.462  0.00  0.00    +0.005 A 
ATOM     19  C   UNL     1      -0.216  -3.344  -3.184  0.00  0.00    +0.000 A 
ATOM     20  C   UNL     1       0.529  -4.507  -3.114  0.00  0.00    +0.001 A 
ATOM     21  C   UNL     1       1.660  -4.557  -2.322  0.00  0.00    +0.020 A 
ATOM     22  C   UNL     1       2.051  -3.441  -1.603  0.00  0.00    +0.045 A 
ATOM     23 CL   UNL     1       3.476  -3.500  -0.613  0.00  0.00    -0.083 Cl
ENDBRANCH  12  17
BRANCH   1  27
ATOM     24  C   UNL     1      -1.822   3.013  -3.601  0.00  0.00    +0.043 A 
ATOM     25  C   UNL     1      -2.302   2.245  -2.546  0.00  0.00    +0.017 A 
ATOM     26  C   UNL     1      -1.446   1.847  -1.539  0.00  0.00    +0.003 A 
ATOM     27  C   UNL     1      -0.112   2.210  -1.578  0.00  0.00    -0.054 A 
ATOM     28  C   UNL     1       0.368   2.978  -2.623  0.00  0.00    +0.036 A 
ATOM     29  C   UNL     1      -0.481   3.376  -3.637  0.00  0.00    +0.140 A 
BRANCH  29  30
ATOM     30  N   UNL     1       0.035   4.193  -4.758  0.00  0.00    +0.058 N 
ATOM     31  O   UNL     1       1.211   4.511  -4.790  0.00  0.00    -0.126 OA
ATOM     32  O   UNL     1      -0.715   4.547  -5.650  0.00  0.00    -0.126 OA
ENDBRANCH  29  30
BRANCH  24  33
ATOM     33  S   UNL     1      -2.910   3.523  -4.889  0.00  0.00    -0.087 S 
BRANCH  33  38
ATOM     34  C   UNL     1      -4.038   9.319  -3.638  0.00  0.00    +0.044 C 
ATOM     35  C   UNL     1      -3.756   7.872  -3.950  0.00  0.00    -0.050 A 
ATOM     36  C   UNL     1      -4.252   7.308  -5.112  0.00  0.00    +0.004 A 
ATOM     37  C   UNL     1      -3.996   5.982  -5.401  0.00  0.00    +0.015 A 
ATOM     38  C   UNL     1      -3.239   5.215  -4.524  0.00  0.00    +0.013 A 
ATOM     39  C   UNL     1      -2.746   5.784  -3.356  0.00  0.00    +0.015 A 
ATOM     40  C   UNL     1      -3.002   7.112  -3.075  0.00  0.00    +0.004 A 
ENDBRANCH  33  38
ENDBRANCH  24  33
ENDBRANCH   1  27
TORSDOF 5
