REMARK  Name = ZINC39678399
REMARK  5 active torsions:
REMARK  status: ('A' for Active; 'I' for Inactive)
REMARK    1  A    between atoms: C_4  and  N_33
REMARK    2  A    between atoms: C_5  and  C_7
REMARK    3  A    between atoms: C_7  and  N_8
REMARK    4  A    between atoms: C_9  and  C_11
REMARK    5  A    between atoms: C_22  and  C_24
REMARK                            x       y       z     vdW  Elec       q    Type
REMARK                         _______ _______ _______ _____ _____    ______ ____
ROOT
ATOM      1  C   UNL     1       1.814  -4.512   2.962  0.00  0.00    +0.100 C 
ATOM      2  C   UNL     1       0.740  -3.987   3.940  0.00  0.00    +0.121 C 
ATOM      3  N   UNL     1      -0.268  -5.071   4.007  0.00  0.00    -0.296 N 
ATOM      4  C   UNL     1       0.532  -6.319   4.005  0.00  0.00    +0.115 C 
ATOM      5  C   UNL     1       1.677  -6.043   3.010  0.00  0.00    -0.004 C 
ATOM      6  C   UNL     1       2.974  -6.675   3.508  0.00  0.00    -0.010 C 
ATOM      7  C   UNL     1       2.833  -8.199   3.492  0.00  0.00    -0.082 C 
ATOM      8  N   UNL     1       2.539  -8.651   2.127  0.00  0.00    +0.379 N 
ATOM      9  C   UNL     1       1.244  -8.114   1.690  0.00  0.00    -0.082 C 
ATOM     10  C   UNL     1       1.318  -6.585   1.630  0.00  0.00    -0.010 C 
ATOM     11  C   UNL     1      -1.609  -4.950   4.059  0.00  0.00    +0.252 C 
ATOM     12  O   UNL     1      -2.308  -5.944   4.112  0.00  0.00    -0.270 OA
ATOM     13  H   UNL     1       3.263  -8.328   1.503  0.00  0.00    -0.086 HD
ATOM     14  H   UNL     1       2.507  -9.659   2.107  0.00  0.00    -0.086 HD
ENDROOT
BRANCH  11  15
ATOM     15  C   UNL     1      -2.230  -3.611   4.051  0.00  0.00    +0.108 A 
ATOM     16  C   UNL     1      -2.580  -3.005   2.840  0.00  0.00    +0.138 A 
ATOM     17  C   UNL     1      -3.161  -1.751   2.842  0.00  0.00    +0.041 A 
ATOM     18  C   UNL     1      -3.397  -1.095   4.036  0.00  0.00    +0.026 A 
ATOM     19  C   UNL     1      -3.054  -1.687   5.239  0.00  0.00    +0.077 A 
ATOM     20  C   UNL     1      -2.476  -2.944   5.256  0.00  0.00    +0.156 A 
ATOM     21  F   UNL     1      -2.147  -3.523   6.431  0.00  0.00    -0.203 F 
ATOM     22 CL   UNL     1      -3.354  -0.852   6.731  0.00  0.00    -0.081 Cl
ATOM     23  F   UNL     1      -2.350  -3.643   1.672  0.00  0.00    -0.205 F 
ENDBRANCH  11  15
BRANCH   1  25
ATOM     24  N   UNL     1       2.564  -3.545   0.812  0.00  0.00    -0.311 N 
ATOM     25  C   UNL     1       1.548  -4.005   1.568  0.00  0.00    +0.218 C 
ATOM     26  O   UNL     1       0.418  -4.012   1.126  0.00  0.00    -0.275 OA
ATOM     27  H   UNL     1       3.467  -3.539   1.166  0.00  0.00    +0.149 HD
BRANCH  24  28
ATOM     28  C   UNL     1       2.305  -3.052  -0.543  0.00  0.00    +0.141 C 
BRANCH  28  33
ATOM     29  C   UNL     1       5.103  -0.837  -1.776  0.00  0.00    +0.000 A 
ATOM     30  C   UNL     1       5.975  -1.762  -2.319  0.00  0.00    +0.002 A 
ATOM     31  C   UNL     1       5.664  -3.107  -2.289  0.00  0.00    +0.023 A 
ATOM     32  C   UNL     1       4.472  -3.530  -1.713  0.00  0.00    +0.034 A 
ATOM     33  C   UNL     1       3.599  -2.598  -1.168  0.00  0.00    -0.009 A 
ATOM     34  C   UNL     1       3.916  -1.254  -1.202  0.00  0.00    +0.007 A 
BRANCH  32  35
ATOM     35  N   UNL     1       4.154  -4.890  -1.681  0.00  0.00    -0.330 N 
ATOM     36  C   UNL     1       3.409  -5.510  -2.785  0.00  0.00    +0.105 C 
ATOM     37  C   UNL     1       4.195  -6.724  -3.289  0.00  0.00    +0.019 C 
ATOM     38  C   UNL     1       4.479  -7.665  -2.116  0.00  0.00    +0.003 C 
ATOM     39  C   UNL     1       5.331  -6.939  -1.073  0.00  0.00    +0.019 C 
ATOM     40  C   UNL     1       4.563  -5.728  -0.546  0.00  0.00    +0.105 C 
ENDBRANCH  32  35
ENDBRANCH  28  33
ENDBRANCH  24  28
ENDBRANCH   1  25
TORSDOF 5
