REMARK  Name = ZINC40322482
REMARK  8 active torsions:
REMARK  status: ('A' for Active; 'I' for Inactive)
REMARK    1  A    between atoms: C_1  and  C_2
REMARK    2  A    between atoms: C_5  and  S_8
REMARK    3  A    between atoms: S_8  and  C_11
REMARK    4  A    between atoms: C_14  and  C_16
REMARK    5  A    between atoms: N_18  and  C_19
REMARK    6  A    between atoms: C_19  and  C_20
REMARK    7  A    between atoms: C_20  and  C_22
REMARK    8  A    between atoms: C_20  and  N_29
REMARK                            x       y       z     vdW  Elec       q    Type
REMARK                         _______ _______ _______ _____ _____    ______ ____
ROOT
ATOM      1  C   UNL     1       4.776  -6.157  -1.669  0.00  0.00    +0.279 C 
ATOM      2  O   UNL     1       5.786  -6.671  -1.226  0.00  0.00    -0.267 OA
ATOM      3  N   UNL     1       4.647  -5.961  -2.997  0.00  0.00    -0.310 N 
ATOM      4  H   UNL     1       3.842  -5.551  -3.350  0.00  0.00    +0.149 HD
ENDROOT
BRANCH   1   8
ATOM      5  C   UNL     1       1.796  -4.943  -0.025  0.00  0.00    +0.246 A 
ATOM      6  C   UNL     1       2.480  -5.372   1.058  0.00  0.00    +0.070 A 
ATOM      7  C   UNL     1       3.700  -5.891   0.598  0.00  0.00    +0.056 A 
ATOM      8  C   UNL     1       3.699  -5.751  -0.760  0.00  0.00    +0.192 A 
ATOM      9  O   UNL     1       2.532  -5.178  -1.119  0.00  0.00    -0.433 OA
BRANCH   5  10
ATOM     10  S   UNL     1       0.197  -4.203  -0.003  0.00  0.00    +0.058 S 
ATOM     11  O   UNL     1      -0.434  -4.637   1.194  0.00  0.00    -0.161 OA
ATOM     12  O   UNL     1      -0.370  -4.424  -1.286  0.00  0.00    -0.161 OA
BRANCH  10  17
ATOM     13  C   UNL     1       0.991   1.754   0.529  0.00  0.00    +0.044 C 
ATOM     14  C   UNL     1       0.793   0.266   0.396  0.00  0.00    -0.050 A 
ATOM     15  C   UNL     1       0.734  -0.314  -0.857  0.00  0.00    +0.005 A 
ATOM     16  C   UNL     1       0.552  -1.679  -0.979  0.00  0.00    +0.028 A 
ATOM     17  C   UNL     1       0.430  -2.464   0.152  0.00  0.00    +0.097 A 
ATOM     18  C   UNL     1       0.490  -1.883   1.406  0.00  0.00    +0.028 A 
ATOM     19  C   UNL     1       0.676  -0.519   1.528  0.00  0.00    +0.005 A 
ENDBRANCH  10  17
ENDBRANCH   5  10
ENDBRANCH   1   8
BRANCH   3  20
ATOM     20  C   UNL     1       5.722  -6.366  -3.905  0.00  0.00    +0.094 C 
BRANCH  20  21
ATOM     21  C   UNL     1       5.274  -6.156  -5.353  0.00  0.00    -0.020 C 
BRANCH  21  22
ATOM     22  C   UNL     1       4.104  -7.058  -5.652  0.00  0.00    -0.059 A 
ATOM     23  C   UNL     1       4.317  -8.393  -5.942  0.00  0.00    +0.003 A 
ATOM     24  C   UNL     1       3.244  -9.220  -6.217  0.00  0.00    +0.020 A 
ATOM     25  C   UNL     1       1.957  -8.712  -6.201  0.00  0.00    +0.041 A 
ATOM     26  C   UNL     1       1.745  -7.376  -5.910  0.00  0.00    +0.020 A 
ATOM     27  C   UNL     1       2.818  -6.551  -5.630  0.00  0.00    +0.003 A 
ATOM     28 CL   UNL     1       0.610  -9.751  -6.546  0.00  0.00    -0.084 Cl
ENDBRANCH  21  22
BRANCH  21  29
ATOM     29  N   UNL     1       6.383  -6.476  -6.260  0.00  0.00    +0.385 N 
ATOM     30  C   UNL     1       7.504  -5.564  -6.002  0.00  0.00    -0.078 C 
ATOM     31  C   UNL     1       8.691  -5.944  -6.888  0.00  0.00    -0.019 C 
ATOM     32  C   UNL     1       8.277  -5.842  -8.359  0.00  0.00    -0.004 C 
ATOM     33  C   UNL     1       7.061  -6.742  -8.600  0.00  0.00    -0.019 C 
ATOM     34  C   UNL     1       5.934  -6.332  -7.650  0.00  0.00    -0.078 C 
ATOM     35  H   UNL     1       6.683  -7.427  -6.102  0.00  0.00    -0.081 HD
ENDBRANCH  21  29
ENDBRANCH  20  21
ENDBRANCH   3  20
TORSDOF 7
