REMARK  Name = ZINC54432721
REMARK  3 active torsions:
REMARK  status: ('A' for Active; 'I' for Inactive)
REMARK    1  A    between atoms: C_4  and  O_18
REMARK    2  A    between atoms: C_6  and  N_9
REMARK    3  A    between atoms: C_10  and  C_12
REMARK                            x       y       z     vdW  Elec       q    Type
REMARK                         _______ _______ _______ _____ _____    ______ ____
ROOT
ATOM      1  N   UNL     1       0.762  -1.976   1.234  0.00  0.00    -0.305 N 
ATOM      2  C   UNL     1      -0.282  -2.667   1.733  0.00  0.00    +0.270 C 
ATOM      3  O   UNL     1      -1.240  -2.075   2.190  0.00  0.00    -0.268 OA
ATOM      4  H   UNL     1       1.526  -2.448   0.869  0.00  0.00    +0.149 HD
ENDROOT
BRANCH   2   5
ATOM      5  C   UNL     1      -0.262  -4.148   1.725  0.00  0.00    +0.210 A 
ATOM      6  C   UNL     1      -1.325  -5.025   2.228  0.00  0.00    +0.192 A 
ATOM      7  N   UNL     1      -0.952  -6.263   2.053  0.00  0.00    -0.033 NA
ATOM      8  O   UNL     1       0.329  -6.252   1.448  0.00  0.00    -0.240 OA
ATOM      9  N   UNL     1       0.704  -4.898   1.263  0.00  0.00    -0.042 NA
ATOM     10  N   UNL     1      -2.523  -4.609   2.792  0.00  0.00    -0.339 N 
ATOM     11  H   UNL     1      -2.714  -3.662   2.882  0.00  0.00    +0.144 HD
ATOM     12  H   UNL     1      -3.169  -5.264   3.098  0.00  0.00    +0.144 HD
ENDBRANCH   2   5
BRANCH   1  17
ATOM     13  C   UNL     1      -0.019   1.526   0.010  0.00  0.00    +0.002 C 
ATOM     14  C   UNL     1       1.417   2.055  -0.000  0.00  0.00    +0.003 C 
ATOM     15  C   UNL     1       2.157   1.548   1.239  0.00  0.00    +0.033 C 
ATOM     16  C   UNL     1       2.178   0.019   1.231  0.00  0.00    +0.135 C 
ATOM     17  C   UNL     1       0.742  -0.511   1.242  0.00  0.00    +0.102 C 
ATOM     18  C   UNL     1       0.002  -0.004   0.002  0.00  0.00    +0.025 C 
BRANCH  16  19
ATOM     19  O   UNL     1       2.869  -0.455   2.388  0.00  0.00    -0.390 OA
ATOM     20  H   UNL     1       3.787  -0.157   2.447  0.00  0.00    +0.210 HD
ENDBRANCH  16  19
ENDBRANCH   1  17
TORSDOF 3
