REMARK  Name = ZINC08934281
REMARK  11 active torsions:
REMARK  status: ('A' for Active; 'I' for Inactive)
REMARK    1  A    between atoms: C_1  and  C_2
REMARK    2  A    between atoms: C_2  and  C_34
REMARK    3  A    between atoms: N_4  and  C_5
REMARK    4  A    between atoms: C_8  and  O_11
REMARK    5  A    between atoms: O_11  and  C_12
REMARK    6  A    between atoms: C_16  and  C_23
REMARK    7  A    between atoms: C_17  and  C_19
REMARK    8  A    between atoms: C_19  and  O_21
REMARK    9  A    between atoms: O_21  and  C_22
REMARK   10  A    between atoms: C_23  and  O_25
REMARK   11  A    between atoms: O_25  and  C_26
REMARK                            x       y       z     vdW  Elec       q    Type
REMARK                         _______ _______ _______ _____ _____    ______ ____
ROOT
ATOM      1  C   UNL     1      -0.703   1.494  -0.537  0.00  0.00    +0.038 C 
ATOM      2  C   UNL     1      -0.226   0.126  -0.044  0.00  0.00    +0.069 C 
ATOM      3  C   UNL     1       0.649  -0.508  -1.095  0.00  0.00    +0.074 C 
ATOM      4  N   UNL     1       0.119  -1.295  -2.007  0.00  0.00    -0.249 NA
ATOM      5  C   UNL     1       2.035  -0.257  -1.100  0.00  0.00    +0.028 C 
ATOM      6  C   UNL     1       2.836  -0.723  -2.143  0.00  0.00    +0.060 C 
ATOM      7  S   UNL     1       4.227   0.063  -2.922  0.00  0.00    -0.073 S 
ATOM      8  C   UNL     1       4.774  -1.065  -4.158  0.00  0.00    +0.118 C 
ATOM      9  C   UNL     1       4.038  -2.205  -4.215  0.00  0.00    +0.118 C 
ATOM     10  S   UNL     1       2.735  -2.259  -3.031  0.00  0.00    -0.073 S 
ATOM     11  C   UNL     1       2.628   0.509   0.020  0.00  0.00    +0.006 A 
ATOM     12  C   UNL     1       3.944   0.958  -0.034  0.00  0.00    +0.010 A 
ATOM     13  C   UNL     1       4.463   1.681   1.024  0.00  0.00    +0.001 A 
ATOM     14  C   UNL     1       3.681   1.961   2.130  0.00  0.00    +0.002 A 
ATOM     15  C   UNL     1       2.372   1.515   2.195  0.00  0.00    +0.023 A 
ATOM     16  C   UNL     1       1.841   0.785   1.147  0.00  0.00    +0.036 A 
ATOM     17  N   UNL     1       0.532   0.294   1.200  0.00  0.00    -0.333 N 
ATOM     18  C   UNL     1      -1.438  -0.771   0.216  0.00  0.00    +0.038 C 
ATOM     19  H   UNL     1       0.129   0.067   2.052  0.00  0.00    +0.147 HD
ENDROOT
BRANCH   4  20
ATOM     20  C   UNL     1       0.530  -1.207  -3.308  0.00  0.00    +0.064 A 
ATOM     21  C   UNL     1       1.033  -0.002  -3.805  0.00  0.00    +0.031 A 
ATOM     22  C   UNL     1       1.446   0.081  -5.118  0.00  0.00    +0.048 A 
ATOM     23  C   UNL     1       1.364  -1.030  -5.945  0.00  0.00    +0.120 A 
ATOM     24  C   UNL     1       0.865  -2.230  -5.457  0.00  0.00    +0.048 A 
ATOM     25  C   UNL     1       0.455  -2.325  -4.144  0.00  0.00    +0.031 A 
BRANCH  23  26
ATOM     26  O   UNL     1       1.772  -0.943  -7.239  0.00  0.00    -0.495 OA
ATOM     27  C   UNL     1       1.552  -2.087  -8.068  0.00  0.00    +0.277 C 
ENDBRANCH  23  26
ENDBRANCH   4  20
BRANCH   9  28
ATOM     28  C   UNL     1       4.308  -3.294  -5.169  0.00  0.00    +0.347 C 
ATOM     29  O   UNL     1       5.280  -3.237  -5.896  0.00  0.00    -0.244 OA
BRANCH  28  30
ATOM     30  O   UNL     1       3.476  -4.353  -5.236  0.00  0.00    -0.464 OA
ATOM     31  C   UNL     1       3.799  -5.372  -6.185  0.00  0.00    +0.280 C 
ENDBRANCH  28  30
ENDBRANCH   9  28
BRANCH   8  32
ATOM     32  C   UNL     1       5.919  -0.799  -5.045  0.00  0.00    +0.347 C 
ATOM     33  O   UNL     1       5.761  -0.160  -6.067  0.00  0.00    -0.244 OA
BRANCH  32  34
ATOM     34  O   UNL     1       7.143  -1.263  -4.724  0.00  0.00    -0.464 OA
ATOM     35  C   UNL     1       8.227  -0.874  -5.569  0.00  0.00    +0.280 C 
ENDBRANCH  32  34
ENDBRANCH   8  32
TORSDOF 6
