REMARK  Name = ZINC65036532
REMARK  14 active torsions:
REMARK  status: ('A' for Active; 'I' for Inactive)
REMARK    1  A    between atoms: C_1  and  C_2
REMARK    2  A    between atoms: C_2  and  N_3
REMARK    3  A    between atoms: N_3  and  C_4
REMARK    4  A    between atoms: C_4  and  C_5
REMARK    5  A    between atoms: C_6  and  C_8
REMARK    6  A    between atoms: C_9  and  C_32
REMARK    7  A    between atoms: C_11  and  C_13
REMARK    8  A    between atoms: C_15  and  S_20
REMARK    9  A    between atoms: C_16  and  C_19
REMARK   10  A    between atoms: N_17  and  C_18
REMARK   11  A    between atoms: S_20  and  N_23
REMARK   12  A    between atoms: N_23  and  C_24
REMARK   13  A    between atoms: C_28  and  C_31
REMARK   14  A    between atoms: C_29  and  C_30
REMARK                            x       y       z     vdW  Elec       q    Type
REMARK                         _______ _______ _______ _____ _____    ______ ____
ROOT
ATOM      1  C   UNL     1      -6.714  -3.641   1.182  0.00  0.00    +0.076 A 
ATOM      2  C   UNL     1      -7.186  -3.996  -0.051  0.00  0.00    +0.059 A 
ATOM      3  C   UNL     1      -8.391  -4.682   0.145  0.00  0.00    +0.131 A 
ATOM      4  C   UNL     1      -8.626  -4.731   1.477  0.00  0.00    +0.043 A 
ATOM      5  N   UNL     1      -7.606  -4.102   2.121  0.00  0.00    -0.344 N 
ATOM      6  C   UNL     1      -7.480  -3.941   3.571  0.00  0.00    +0.149 C 
ATOM      7  C   UNL     1      -9.817  -5.377   2.137  0.00  0.00    +0.065 C 
ENDROOT
BRANCH   1  11
ATOM      8  C   UNL     1      -3.158  -1.556   1.522  0.00  0.00    +0.097 A 
ATOM      9  C   UNL     1      -3.830  -1.876   2.695  0.00  0.00    +0.058 A 
ATOM     10  N   UNL     1      -4.954  -2.533   2.625  0.00  0.00    -0.242 NA
ATOM     11  C   UNL     1      -5.473  -2.904   1.456  0.00  0.00    +0.126 A 
ATOM     12  S   UNL     1      -4.263  -2.261   0.306  0.00  0.00    -0.061 S 
ATOM     13  C   UNL     1      -3.267  -1.470   4.033  0.00  0.00    +0.067 C 
BRANCH   8  15
ATOM     14  N   UNL     1      -1.481  -0.519   0.092  0.00  0.00    -0.298 N 
ATOM     15  C   UNL     1      -1.897  -0.836   1.334  0.00  0.00    +0.255 C 
ATOM     16  O   UNL     1      -1.225  -0.522   2.300  0.00  0.00    -0.269 OA
BRANCH  14  18
ATOM     17  C   UNL     1      -0.296   1.616  -0.039  0.00  0.00    +0.024 C 
ATOM     18  C   UNL     1      -0.165   0.093  -0.106  0.00  0.00    +0.105 C 
ENDBRANCH  14  18
BRANCH  14  19
ATOM     19  C   UNL     1      -2.344  -0.788  -1.061  0.00  0.00    +0.105 C 
ATOM     20  C   UNL     1      -2.081  -2.205  -1.575  0.00  0.00    +0.024 C 
ENDBRANCH  14  19
ENDBRANCH   8  15
ENDBRANCH   1  11
BRANCH   3  21
ATOM     21  S   UNL     1      -9.418  -5.360  -1.116  0.00  0.00    +0.093 S 
ATOM     22  O   UNL     1     -10.742  -4.922  -0.841  0.00  0.00    -0.148 OA
ATOM     23  O   UNL     1      -8.769  -5.097  -2.352  0.00  0.00    -0.148 OA
BRANCH  21  24
ATOM     24  N   UNL     1      -9.413  -7.005  -0.919  0.00  0.00    -0.098 NA
BRANCH  24  25
ATOM     25  C   UNL     1     -10.150  -7.814  -1.787  0.00  0.00    +0.077 A 
ATOM     26  C   UNL     1     -10.883  -7.241  -2.819  0.00  0.00    +0.027 A 
ATOM     27  C   UNL     1     -11.610  -8.044  -3.676  0.00  0.00    +0.002 A 
ATOM     28  C   UNL     1     -11.610  -9.416  -3.507  0.00  0.00    +0.004 A 
ATOM     29  C   UNL     1     -10.882  -9.990  -2.481  0.00  0.00    -0.046 A 
ATOM     30  C   UNL     1     -10.148  -9.193  -1.624  0.00  0.00    -0.023 A 
ATOM     31  C   UNL     1      -9.349  -9.819  -0.509  0.00  0.00    +0.046 C 
ATOM     32  C   UNL     1     -10.885 -11.486  -2.300  0.00  0.00    +0.044 C 
ENDBRANCH  24  25
ENDBRANCH  21  24
ENDBRANCH   3  21
TORSDOF 7
