REMARK  Name = ZINC13078031
REMARK  15 active torsions:
REMARK  status: ('A' for Active; 'I' for Inactive)
REMARK    1  A    between atoms: C_1  and  C_2
REMARK    2  A    between atoms: C_2  and  N_3
REMARK    3  A    between atoms: C_4  and  C_6
REMARK    4  A    between atoms: C_6  and  O_7
REMARK    5  A    between atoms: O_7  and  C_8
REMARK    6  A    between atoms: C_11  and  C_17
REMARK    7  A    between atoms: C_13  and  O_14
REMARK    8  A    between atoms: O_14  and  C_15
REMARK    9  A    between atoms: C_15  and  C_16
REMARK   10  A    between atoms: N_18  and  N_19
REMARK   11  A    between atoms: C_20  and  C_28
REMARK   12  A    between atoms: C_23  and  S_24
REMARK   13  A    between atoms: S_24  and  C_25
REMARK   14  A    between atoms: C_25  and  C_26
REMARK   15  A    between atoms: C_32  and  C_33
REMARK                            x       y       z     vdW  Elec       q    Type
REMARK                         _______ _______ _______ _____ _____    ______ ____
ROOT
ATOM      1  C   UNL     1      -1.263  -0.760   0.009  0.00  0.00    +0.141 C 
ATOM      2  N   UNL     1      -1.244  -2.058   0.002  0.00  0.00    -0.170 NA
ENDROOT
BRANCH   1   6
ATOM      3  C   UNL     1       2.387   1.414  -0.013  0.00  0.00    +0.163 A 
ATOM      4  C   UNL     1       2.406   0.026  -0.021  0.00  0.00    +0.050 A 
ATOM      5  C   UNL     1       1.224  -0.683  -0.013  0.00  0.00    +0.013 A 
ATOM      6  C   UNL     1       0.002  -0.004   0.002  0.00  0.00    -0.002 A 
ATOM      7  C   UNL     1      -0.017   1.393   0.010  0.00  0.00    +0.059 A 
ATOM      8  C   UNL     1       1.173   2.097   0.002  0.00  0.00    +0.163 A 
BRANCH   3   9
ATOM      9  O   UNL     1       3.555   2.108  -0.021  0.00  0.00    -0.479 OA
BRANCH   9  10
ATOM     10  C   UNL     1       4.763   1.345  -0.036  0.00  0.00    +0.324 C 
BRANCH  10  12
ATOM     11  N   UNL     1       7.198   1.778  -0.057  0.00  0.00    -0.313 N 
ATOM     12  C   UNL     1       5.947   2.277  -0.043  0.00  0.00    +0.251 C 
ATOM     13  O   UNL     1       5.773   3.478  -0.034  0.00  0.00    -0.272 OA
ATOM     14  H   UNL     1       7.337   0.818  -0.064  0.00  0.00    +0.149 HD
BRANCH  11  16
ATOM     15  C   UNL     1       9.642   1.867  -0.080  0.00  0.00    +0.024 C 
ATOM     16  C   UNL     1       8.349   2.685  -0.063  0.00  0.00    +0.101 C 
ENDBRANCH  11  16
ENDBRANCH  10  12
ENDBRANCH   9  10
ENDBRANCH   3   9
BRANCH   8  17
ATOM     17  O   UNL     1       1.158   3.457   0.010  0.00  0.00    -0.489 OA
BRANCH  17  18
ATOM     18  C   UNL     1      -0.122   4.092   0.025  0.00  0.00    +0.226 C 
ATOM     19  C   UNL     1       0.061   5.611   0.032  0.00  0.00    +0.048 C 
ENDBRANCH  17  18
ENDBRANCH   8  17
ENDBRANCH   1   6
BRANCH   2  20
ATOM     20  N   UNL     1      -2.446  -2.777   0.010  0.00  0.00    -0.187 N 
ATOM     21  C   UNL     1      -3.172  -3.198  -1.083  0.00  0.00    +0.189 A 
ATOM     22  N   UNL     1      -4.226  -3.833  -0.624  0.00  0.00    -0.126 NA
ATOM     23  N   UNL     1      -4.211  -3.838   0.661  0.00  0.00    -0.120 NA
ATOM     24  C   UNL     1      -3.145  -3.213   1.105  0.00  0.00    +0.213 A 
BRANCH  21  25
ATOM     25  C   UNL     1      -2.828  -2.978  -2.504  0.00  0.00    +0.062 A 
ATOM     26  C   UNL     1      -1.654  -2.273  -3.034  0.00  0.00    +0.053 A 
ATOM     27  C   UNL     1      -1.763  -2.324  -4.372  0.00  0.00    +0.196 A 
ATOM     28  O   UNL     1      -2.882  -2.989  -4.695  0.00  0.00    -0.467 OA
ATOM     29  C   UNL     1      -3.531  -3.393  -3.593  0.00  0.00    +0.113 A 
ATOM     30  C   UNL     1      -4.821  -4.171  -3.565  0.00  0.00    +0.087 C 
ENDBRANCH  21  25
BRANCH  24  31
ATOM     31  S   UNL     1      -2.698  -2.975   2.792  0.00  0.00    -0.073 S 
BRANCH  31  32
ATOM     32  C   UNL     1      -4.080  -3.815   3.605  0.00  0.00    +0.202 C 
BRANCH  32  33
ATOM     33  C   UNL     1      -3.907  -3.737   5.100  0.00  0.00    +0.366 C 
ATOM     34  O   UNL     1      -2.947  -3.172   5.568  0.00  0.00    -0.245 OA
ATOM     35  O   UNL     1      -4.819  -4.296   5.911  0.00  0.00    -0.245 OA
ENDBRANCH  32  33
ENDBRANCH  31  32
ENDBRANCH  24  31
ENDBRANCH   2  20
TORSDOF 12
