REMARK  Name = ZINC26550181
REMARK  4 active torsions:
REMARK  status: ('A' for Active; 'I' for Inactive)
REMARK    1  A    between atoms: C_1  and  C_2
REMARK    2  A    between atoms: C_3  and  C_9
REMARK    3  A    between atoms: C_4  and  C_8
REMARK    4  A    between atoms: C_9  and  C_10
REMARK                            x       y       z     vdW  Elec       q    Type
REMARK                         _______ _______ _______ _____ _____    ______ ____
ROOT
ATOM      1  C   UNL     1      -0.018   1.503   0.010  0.00  0.00    +0.065 C 
ATOM      2  C   UNL     1       0.002  -0.004   0.002  0.00  0.00    +0.037 A 
ATOM      3  C   UNL     1      -0.003  -0.796  -1.095  0.00  0.00    +0.002 A 
ATOM      4  C   UNL     1       0.024  -2.127  -0.666  0.00  0.00    +0.064 A 
ATOM      5  N   UNL     1       0.036  -2.134   0.643  0.00  0.00    -0.179 NA
ATOM      6  N   UNL     1       0.023  -0.805   1.088  0.00  0.00    -0.281 N 
ATOM      7  H   UNL     1       0.026  -0.366   2.096  0.00  0.00    +0.189 HD
ATOM      8  C   UNL     1       0.031  -3.343  -1.556  0.00  0.00    +0.068 C 
ENDROOT
BRANCH   3   9
ATOM      9  C   UNL     1      -0.029  -0.327  -2.527  0.00  0.00    +0.103 C 
BRANCH   9  10
ATOM     10  C   UNL     1       1.382  -0.152  -3.024  0.00  0.00    +0.107 A 
ATOM     11  N   UNL     1       2.186  -1.014  -3.613  0.00  0.00    -0.145 NA
ATOM     12  N   UNL     1       3.353  -0.706  -3.978  0.00  0.00    -0.134 NA
ATOM     13  C   UNL     1       3.849   0.509  -3.778  0.00  0.00    +0.169 A 
ATOM     14  S   UNL     1       2.449   1.286  -2.977  0.00  0.00    -0.043 S 
ATOM     15  S   UNL     1       5.431   1.168  -4.186  0.00  0.00    -0.021 SA
ENDBRANCH   9  10
ENDBRANCH   3   9
TORSDOF 2
