REMARK  Name = ZINC05383715
REMARK  8 active torsions:
REMARK  status: ('A' for Active; 'I' for Inactive)
REMARK    1  A    between atoms: C_1  and  C_2
REMARK    2  A    between atoms: C_2  and  C_3
REMARK    3  A    between atoms: C_2  and  C_4
REMARK    4  A    between atoms: C_2  and  C_5
REMARK    5  A    between atoms: C_12  and  N_16
REMARK    6  A    between atoms: C_13  and  C_14
REMARK    7  A    between atoms: C_17  and  C_19
REMARK    8  A    between atoms: C_22  and  N_26
REMARK                            x       y       z     vdW  Elec       q    Type
REMARK                         _______ _______ _______ _____ _____    ______ ____
ROOT
ATOM      1  C   UNL     1       0.718  -0.497  -1.257  0.00  0.00    -0.000 C 
ATOM      2  C   UNL     1       0.745  -2.029  -1.264  0.00  0.00    +0.009 C 
ATOM      3  C   UNL     1       1.234  -2.534  -2.624  0.00  0.00    +0.037 C 
ATOM      4  C   UNL     1       2.546  -1.841  -2.959  0.00  0.00    -0.018 A 
ATOM      5  C   UNL     1       2.920  -0.705  -2.331  0.00  0.00    -0.004 A 
ATOM      6  S   UNL     1       4.483  -0.290  -3.047  0.00  0.00    -0.077 S 
ATOM      7  C   UNL     1       4.645  -1.559  -4.135  0.00  0.00    +0.090 A 
ATOM      8  C   UNL     1       3.495  -2.310  -3.953  0.00  0.00    +0.084 A 
ATOM      9  C   UNL     1       2.161   0.028  -1.267  0.00  0.00    +0.047 C 
ENDROOT
BRANCH   1  11
ATOM     10  C   UNL     1      -0.019   1.526   0.010  0.00  0.00    +0.011 C 
ATOM     11  C   UNL     1       0.002  -0.004   0.002  0.00  0.00    -0.035 C 
ATOM     12  C   UNL     1       0.742  -0.511   1.242  0.00  0.00    +0.011 C 
ATOM     13  C   UNL     1      -1.433  -0.534   0.013  0.00  0.00    +0.011 C 
ENDBRANCH   1  11
BRANCH   7  14
ATOM     14  N   UNL     1       5.689  -1.800  -5.015  0.00  0.00    -0.275 N 
ATOM     15  C   UNL     1       6.740  -0.957  -5.061  0.00  0.00    +0.250 C 
ATOM     16  O   UNL     1       6.772   0.015  -4.330  0.00  0.00    -0.270 OA
ATOM     17  H   UNL     1       5.664  -2.575  -5.598  0.00  0.00    +0.156 HD
BRANCH  15  18
ATOM     18  C   UNL     1       7.853  -1.213  -5.998  0.00  0.00    +0.055 A 
ATOM     19  C   UNL     1       7.816  -2.324  -6.843  0.00  0.00    +0.017 A 
ATOM     20  C   UNL     1       8.858  -2.558  -7.715  0.00  0.00    +0.033 A 
ATOM     21  C   UNL     1       9.939  -1.694  -7.756  0.00  0.00    +0.128 A 
ATOM     22  C   UNL     1       9.983  -0.591  -6.923  0.00  0.00    +0.053 A 
ATOM     23  C   UNL     1       8.943  -0.341  -6.048  0.00  0.00    +0.055 A 
ATOM     24 CL   UNL     1       8.996   1.048  -5.008  0.00  0.00    -0.083 Cl
BRANCH  21  25
ATOM     25  N   UNL     1      11.054  -1.952  -8.695  0.00  0.00    +0.056 N 
ATOM     26  O   UNL     1      11.019  -2.916  -9.424  0.00  0.00    -0.126 OA
ATOM     27  O   UNL     1      11.999  -1.200  -8.732  0.00  0.00    -0.126 OA
ENDBRANCH  21  25
ENDBRANCH  15  18
ENDBRANCH   7  14
BRANCH   8  28
ATOM     28  C   UNL     1       3.253  -3.500  -4.712  0.00  0.00    +0.102 C 
ATOM     29  N   UNL     1       3.061  -4.444  -5.314  0.00  0.00    -0.191 NA
ENDBRANCH   8  28
TORSDOF 5
