REMARK  Name = ZINC38762956
REMARK  14 active torsions:
REMARK  status: ('A' for Active; 'I' for Inactive)
REMARK    1  A    between atoms: C_1  and  C_2
REMARK    2  A    between atoms: C_2  and  C_3
REMARK    3  A    between atoms: C_3  and  C_4
REMARK    4  A    between atoms: C_4  and  N_5
REMARK    5  A    between atoms: C_6  and  N_35
REMARK    6  A    between atoms: C_8  and  N_15
REMARK    7  A    between atoms: N_15  and  C_16
REMARK    8  A    between atoms: C_21  and  C_23
REMARK    9  A    between atoms: C_23  and  S_24
REMARK   10  A    between atoms: S_24  and  C_25
REMARK   11  A    between atoms: C_29  and  C_31
REMARK   12  A    between atoms: C_31  and  C_32
REMARK   13  A    between atoms: C_31  and  C_33
REMARK   14  A    between atoms: C_31  and  C_34
REMARK                            x       y       z     vdW  Elec       q    Type
REMARK                         _______ _______ _______ _____ _____    ______ ____
ROOT
ATOM      1  N   UNL     1       0.802  -2.817  -6.085  0.00  0.00    -0.286 N 
ATOM      2  C   UNL     1       0.450  -4.112  -6.210  0.00  0.00    +0.227 C 
ATOM      3  O   UNL     1      -0.191  -4.476  -7.172  0.00  0.00    -0.275 OA
ENDROOT
BRANCH   1   6
ATOM      4  N   UNL     1       3.491  -1.215  -4.086  0.00  0.00    -0.296 N 
ATOM      5  C   UNL     1       2.923  -1.973  -5.205  0.00  0.00    +0.047 C 
ATOM      6  C   UNL     1       1.479  -2.355  -4.871  0.00  0.00    +0.167 C 
ATOM      7  C   UNL     1       0.760  -1.150  -4.320  0.00  0.00    +0.261 C 
ATOM      8  O   UNL     1      -0.551  -0.989  -4.559  0.00  0.00    -0.272 OA
ATOM      9  N   UNL     1       1.402  -0.263  -3.613  0.00  0.00    -0.126 NA
ATOM     10  C   UNL     1       2.720  -0.372  -3.378  0.00  0.00    +0.327 C 
ATOM     11  O   UNL     1       3.228   0.311  -2.508  0.00  0.00    -0.250 OA
BRANCH   5  12
ATOM     12  N   UNL     1       2.946  -1.148  -6.420  0.00  0.00    +0.392 N 
ATOM     13  H   UNL     1       3.878  -0.790  -6.566  0.00  0.00    -0.087 HD
ATOM     14  H   UNL     1       2.673  -1.709  -7.212  0.00  0.00    -0.087 HD
ATOM     15  H   UNL     1       2.302  -0.378  -6.315  0.00  0.00    -0.087 HD
ENDBRANCH   5  12
BRANCH   4  16
ATOM     16  C   UNL     1       4.904  -1.381  -3.736  0.00  0.00    +0.107 C 
BRANCH  16  17
ATOM     17  C   UNL     1       5.046  -2.512  -2.716  0.00  0.00    +0.019 C 
BRANCH  17  19
ATOM     18  C   UNL     1       6.665  -3.817  -1.329  0.00  0.00    +0.004 C 
ATOM     19  C   UNL     1       6.522  -2.685  -2.349  0.00  0.00    -0.002 C 
ENDBRANCH  17  19
ENDBRANCH  16  17
ENDBRANCH   4  16
ENDBRANCH   1   6
BRANCH   1  20
ATOM     20  C   UNL     1       0.507  -1.871  -7.164  0.00  0.00    +0.077 C 
ATOM     21  C   UNL     1      -1.017  -1.785  -7.390  0.00  0.00    +0.022 C 
ATOM     22  C   UNL     1      -1.166  -1.637  -8.924  0.00  0.00    +0.002 C 
ATOM     23  C   UNL     1      -0.054  -2.569  -9.467  0.00  0.00    +0.002 C 
ATOM     24  C   UNL     1       1.119  -2.369  -8.485  0.00  0.00    +0.022 C 
ENDBRANCH   1  20
BRANCH   2  25
ATOM     25  C   UNL     1       0.854  -5.107  -5.153  0.00  0.00    +0.173 C 
BRANCH  25  26
ATOM     26  S   UNL     1       0.368  -6.775  -5.676  0.00  0.00    -0.077 S 
BRANCH  26  27
ATOM     27  C   UNL     1       0.902  -7.809  -4.353  0.00  0.00    +0.185 A 
ATOM     28  N   UNL     1       0.764  -9.151  -4.287  0.00  0.00    -0.254 N 
ATOM     29  H   UNL     1       0.356  -9.727  -4.952  0.00  0.00    +0.191 HD
ATOM     30  N   UNL     1       1.329  -9.546  -3.063  0.00  0.00    -0.156 NA
ATOM     31  C   UNL     1       1.762  -8.464  -2.475  0.00  0.00    +0.157 A 
ATOM     32  N   UNL     1       1.511  -7.412  -3.255  0.00  0.00    -0.205 NA
BRANCH  31  33
ATOM     33  C   UNL     1       2.445  -8.412  -1.133  0.00  0.00    +0.024 C 
ATOM     34  C   UNL     1       2.553  -9.827  -0.561  0.00  0.00    +0.019 C 
ATOM     35  C   UNL     1       3.846  -7.819  -1.294  0.00  0.00    +0.019 C 
ATOM     36  C   UNL     1       1.628  -7.538  -0.179  0.00  0.00    +0.019 C 
ENDBRANCH  31  33
ENDBRANCH  26  27
ENDBRANCH  25  26
ENDBRANCH   2  25
TORSDOF 10
