REMARK  Name = ZINC33663016
REMARK  2 active torsions:
REMARK  status: ('A' for Active; 'I' for Inactive)
REMARK    1  A    between atoms: C_6  and  N_7
REMARK    2  A    between atoms: C_8  and  C_10
REMARK                            x       y       z     vdW  Elec       q    Type
REMARK                         _______ _______ _______ _____ _____    ______ ____
ROOT
ATOM      1  C   UNL     1       1.279   2.115  -0.006  0.00  0.00    +0.238 C 
ATOM      2  C   UNL     1       2.032   1.868   1.279  0.00  0.00    +0.191 C 
ATOM      3  C   UNL     1       3.353   2.702   1.265  0.00  0.00    +0.187 C 
ATOM      4  C   UNL     1       2.899   4.133   1.281  0.00  0.00    +0.209 C 
ATOM      5  C   UNL     1       2.156   4.330  -0.077  0.00  0.00    +0.286 C 
ATOM      6  O   UNL     1       0.999   3.534  -0.111  0.00  0.00    -0.333 OA
ATOM      7  O   UNL     1       2.031   5.749  -0.084  0.00  0.00    -0.317 OA
ATOM      8  C   UNL     1       3.312   6.196   0.421  0.00  0.00    +0.174 C 
ATOM      9  O   UNL     1       3.897   5.138   1.209  0.00  0.00    -0.338 OA
ATOM     10  C   UNL     1       3.107   7.430   1.296  0.00  0.00    +0.065 C 
ATOM     11  C   UNL     1       2.491   8.554   0.460  0.00  0.00    +0.005 C 
ATOM     12  C   UNL     1       3.426   8.891  -0.704  0.00  0.00    +0.000 C 
ATOM     13  C   UNL     1       3.613   7.654  -1.584  0.00  0.00    +0.005 C 
ATOM     14  C   UNL     1       4.231   6.527  -0.753  0.00  0.00    +0.065 C 
ATOM     15  O   UNL     1       4.048   2.182   2.388  0.00  0.00    -0.340 OA
ATOM     16  C   UNL     1       3.604   0.814   2.521  0.00  0.00    +0.171 C 
ATOM     17  O   UNL     1       2.558   0.566   1.550  0.00  0.00    -0.340 OA
ATOM     18  C   UNL     1       3.052   0.591   3.927  0.00  0.00    +0.065 C 
ATOM     19  C   UNL     1       4.158   0.837   4.955  0.00  0.00    +0.005 C 
ATOM     20  C   UNL     1       5.319  -0.124   4.693  0.00  0.00    +0.000 C 
ATOM     21  C   UNL     1       5.875   0.116   3.288  0.00  0.00    +0.005 C 
ATOM     22  C   UNL     1       4.773  -0.131   2.255  0.00  0.00    +0.065 C 
ENDROOT
BRANCH   1  24
ATOM     23  N   UNL     1       0.002  -0.004   0.002  0.00  0.00    -0.283 N 
ATOM     24  C   UNL     1      -0.016   1.343   0.011  0.00  0.00    +0.249 C 
ATOM     25  O   UNL     1      -1.074   1.936   0.027  0.00  0.00    -0.273 OA
ATOM     26  H   UNL     1       0.958  -0.541  -0.094  0.00  0.00    +0.155 HD
BRANCH  23  32
ATOM     27  C   UNL     1      -1.220  -1.928   0.800  0.00  0.00    +0.025 A 
ATOM     28  C   UNL     1      -2.404  -2.631   0.916  0.00  0.00    +0.023 A 
ATOM     29  C   UNL     1      -3.561  -2.140   0.340  0.00  0.00    +0.059 A 
ATOM     30  C   UNL     1      -3.538  -0.938  -0.349  0.00  0.00    +0.061 A 
ATOM     31  C   UNL     1      -2.358  -0.228  -0.463  0.00  0.00    +0.044 A 
ATOM     32  C   UNL     1      -1.195  -0.721   0.115  0.00  0.00    +0.035 A 
ATOM     33 CL   UNL     1      -4.992  -0.324  -1.071  0.00  0.00    -0.082 Cl
ATOM     34 CL   UNL     1      -5.045  -3.030   0.481  0.00  0.00    -0.082 Cl
ENDBRANCH  23  32
ENDBRANCH   1  24
TORSDOF 2
