REMARK  Name = ZINC35341381
REMARK  4 active torsions:
REMARK  status: ('A' for Active; 'I' for Inactive)
REMARK    1  A    between atoms: C_5  and  N_14
REMARK    2  A    between atoms: C_6  and  N_7
REMARK    3  A    between atoms: N_7  and  C_8
REMARK    4  A    between atoms: C_8  and  C_9
REMARK                            x       y       z     vdW  Elec       q    Type
REMARK                         _______ _______ _______ _____ _____    ______ ____
ROOT
ATOM      1  C   UNL     1       0.015   1.390  -0.271  0.00  0.00    +0.030 A 
ATOM      2  C   UNL     1       1.214   2.073  -0.228  0.00  0.00    -0.024 A 
ATOM      3  C   UNL     1       2.394   1.390   0.038  0.00  0.00    +0.039 A 
ATOM      4  C   UNL     1       2.368   0.020   0.260  0.00  0.00    +0.058 A 
ATOM      5  C   UNL     1       1.170  -0.664   0.216  0.00  0.00    +0.149 A 
ATOM      6  C   UNL     1      -0.011   0.019  -0.049  0.00  0.00    +0.058 A 
ATOM      7  N   UNL     1       3.609   2.087   0.081  0.00  0.00    -0.285 N 
ATOM      8  C   UNL     1       3.623   3.423   0.240  0.00  0.00    +0.218 C 
ATOM      9  O   UNL     1       4.683   4.013   0.260  0.00  0.00    -0.275 OA
ATOM     10  C   UNL     1       2.340   4.194   0.392  0.00  0.00    +0.101 C 
ATOM     11  C   UNL     1       1.246   3.560  -0.469  0.00  0.00    +0.046 C 
ATOM     12  H   UNL     1       4.445   1.602  -0.003  0.00  0.00    +0.155 HD
ENDROOT
BRANCH   5  13
ATOM     13  N   UNL     1       1.142  -2.125   0.452  0.00  0.00    +0.058 N 
ATOM     14  O   UNL     1       0.226  -2.621   1.066  0.00  0.00    -0.126 OA
ATOM     15  O   UNL     1       2.036  -2.822   0.031  0.00  0.00    -0.126 OA
ENDBRANCH   5  13
BRANCH   6  16
ATOM     16  N   UNL     1      -1.225  -0.674  -0.093  0.00  0.00    -0.342 N 
ATOM     17  H   UNL     1      -1.234  -1.641  -0.023  0.00  0.00    +0.146 HD
BRANCH  16  18
ATOM     18  C   UNL     1      -2.483   0.061  -0.244  0.00  0.00    +0.105 C 
BRANCH  18  19
ATOM     19  C   UNL     1      -3.652  -0.926  -0.263  0.00  0.00    +0.006 C 
ATOM     20  C   UNL     1      -3.602  -1.780  -1.547  0.00  0.00    +0.005 C 
ATOM     21  C   UNL     1      -5.088  -1.957  -1.944  0.00  0.00    +0.000 C 
ATOM     22  C   UNL     1      -5.701  -0.577  -1.598  0.00  0.00    +0.000 C 
ATOM     23  C   UNL     1      -4.987  -0.161  -0.296  0.00  0.00    +0.005 C 
ENDBRANCH  18  19
ENDBRANCH  16  18
ENDBRANCH   6  16
TORSDOF 4
