REMARK  Name = ZINC35531933
REMARK  10 active torsions:
REMARK  status: ('A' for Active; 'I' for Inactive)
REMARK    1  A    between atoms: C_1  and  C_2
REMARK    2  A    between atoms: C_2  and  C_3
REMARK    3  A    between atoms: C_3  and  C_4
REMARK    4  A    between atoms: C_4  and  N_5
REMARK    5  A    between atoms: C_17  and  S_18
REMARK    6  A    between atoms: S_18  and  C_19
REMARK    7  A    between atoms: C_19  and  C_20
REMARK    8  A    between atoms: N_22  and  C_23
REMARK    9  A    between atoms: C_26  and  C_30
REMARK   10  A    between atoms: C_27  and  C_29
REMARK                            x       y       z     vdW  Elec       q    Type
REMARK                         _______ _______ _______ _____ _____    ______ ____
ROOT
ATOM      1  N   UNL     1       1.429  -2.475  -2.477  0.00  0.00    -0.276 N 
ATOM      2  C   UNL     1       0.727  -2.706  -3.608  0.00  0.00    +0.270 A 
ATOM      3  O   UNL     1      -0.475  -2.514  -3.634  0.00  0.00    -0.266 OA
ATOM      4  C   UNL     1       1.393  -3.167  -4.752  0.00  0.00    +0.101 A 
ATOM      5  C   UNL     1       2.768  -3.398  -4.761  0.00  0.00    +0.071 A 
ATOM      6  C   UNL     1       3.252  -3.852  -5.985  0.00  0.00    +0.035 A 
ATOM      7  C   UNL     1       2.400  -4.027  -7.018  0.00  0.00    +0.048 A 
ATOM      8  S   UNL     1       0.899  -3.590  -6.401  0.00  0.00    -0.090 S 
ATOM      9  N   UNL     1       3.460  -3.146  -3.562  0.00  0.00    -0.255 N 
ATOM     10  C   UNL     1       2.799  -2.691  -2.458  0.00  0.00    +0.240 A 
ATOM     11  N   UNL     1       3.682  -2.537  -1.496  0.00  0.00    -0.109 NA
ATOM     12  N   UNL     1       4.939  -2.895  -2.000  0.00  0.00    -0.120 NA
ATOM     13  C   UNL     1       4.784  -3.269  -3.248  0.00  0.00    +0.198 A 
ENDROOT
BRANCH   1  14
ATOM     14  C   UNL     1       0.745  -1.993  -1.274  0.00  0.00    +0.128 C 
BRANCH  14  15
ATOM     15  C   UNL     1       0.727  -0.463  -1.277  0.00  0.00    +0.021 C 
BRANCH  15  17
ATOM     16  C   UNL     1      -0.005   1.571  -0.024  0.00  0.00    +0.004 C 
ATOM     17  C   UNL     1       0.013   0.041  -0.021  0.00  0.00    -0.002 C 
ENDBRANCH  15  17
ENDBRANCH  14  15
ENDBRANCH   1  14
BRANCH  13  18
ATOM     18  S   UNL     1       6.061  -3.813  -4.333  0.00  0.00    -0.076 S 
BRANCH  18  19
ATOM     19  C   UNL     1       7.560  -3.750  -3.314  0.00  0.00    +0.173 C 
BRANCH  19  20
ATOM     20  C   UNL     1       8.744  -4.197  -4.132  0.00  0.00    +0.227 C 
ATOM     21  O   UNL     1       8.591  -4.526  -5.290  0.00  0.00    -0.275 OA
ATOM     22  N   UNL     1       9.972  -4.231  -3.578  0.00  0.00    -0.285 N 
ATOM     23  H   UNL     1      10.106  -3.905  -2.675  0.00  0.00    +0.155 HD
BRANCH  22  24
ATOM     24  C   UNL     1      11.054  -4.737  -4.307  0.00  0.00    +0.034 A 
ATOM     25  C   UNL     1      12.056  -5.449  -3.660  0.00  0.00    +0.023 A 
ATOM     26  C   UNL     1      13.123  -5.947  -4.382  0.00  0.00    +0.005 A 
ATOM     27  C   UNL     1      13.194  -5.737  -5.747  0.00  0.00    -0.047 A 
ATOM     28  C   UNL     1      12.199  -5.028  -6.394  0.00  0.00    -0.046 A 
ATOM     29  C   UNL     1      11.126  -4.533  -5.678  0.00  0.00    +0.027 A 
ATOM     30  C   UNL     1      12.281  -4.801  -7.881  0.00  0.00    +0.044 C 
ATOM     31  C   UNL     1      14.360  -6.281  -6.532  0.00  0.00    +0.044 C 
ENDBRANCH  22  24
ENDBRANCH  19  20
ENDBRANCH  18  19
ENDBRANCH  13  18
TORSDOF 7
