REMARK  Name = ZINC12524302
REMARK  5 active torsions:
REMARK  status: ('A' for Active; 'I' for Inactive)
REMARK    1  A    between atoms: C_1  and  N_2
REMARK    2  A    between atoms: N_11  and  N_12
REMARK    3  A    between atoms: C_13  and  C_15
REMARK    4  A    between atoms: C_18  and  S_21
REMARK    5  A    between atoms: S_21  and  N_24
REMARK                            x       y       z     vdW  Elec       q    Type
REMARK                         _______ _______ _______ _____ _____    ______ ____
ROOT
ATOM      1  C   UNL     1      -3.490   9.948   0.086  0.00  0.00    +0.038 A 
ATOM      2  C   UNL     1      -2.148  10.333   0.082  0.00  0.00    +0.015 A 
ATOM      3  C   UNL     1      -1.818  11.673   0.081  0.00  0.00    +0.029 A 
ATOM      4  C   UNL     1      -2.814  12.634   0.095  0.00  0.00    +0.109 A 
ATOM      5  C   UNL     1      -4.146  12.259   0.105  0.00  0.00    +0.029 A 
ATOM      6  C   UNL     1      -4.489  10.923   0.101  0.00  0.00    +0.015 A 
ENDROOT
BRANCH   1   8
ATOM      7  N   UNL     1      -2.884   7.577   0.069  0.00  0.00    -0.201 N 
ATOM      8  C   UNL     1      -3.851   8.515   0.083  0.00  0.00    +0.263 C 
ATOM      9  O   UNL     1      -5.021   8.182   0.092  0.00  0.00    -0.268 OA
ATOM     10  H   UNL     1      -1.951   7.842   0.062  0.00  0.00    +0.178 HD
BRANCH   7  21
ATOM     11  C   UNL     1      -3.746   3.319   0.056  0.00  0.00    +0.151 C 
ATOM     12  N   UNL     1      -2.416   3.934   0.046  0.00  0.00    -0.321 N 
ATOM     13  C   UNL     1      -1.282   3.138   0.032  0.00  0.00    +0.057 A 
ATOM     14  C   UNL     1      -1.226   1.734   0.018  0.00  0.00    +0.027 A 
ATOM     15  C   UNL     1      -0.019   1.075   0.009  0.00  0.00    +0.002 A 
ATOM     16  C   UNL     1       1.178   1.770   0.001  0.00  0.00    +0.001 A 
ATOM     17  C   UNL     1       1.153   3.154   0.009  0.00  0.00    +0.017 A 
ATOM     18  C   UNL     1      -0.053   3.813   0.024  0.00  0.00    +0.039 A 
ATOM     19  S   UNL     1      -0.517   5.528   0.037  0.00  0.00    -0.048 S 
ATOM     20  C   UNL     1      -2.288   5.309   0.052  0.00  0.00    +0.191 A 
ATOM     21  N   UNL     1      -3.226   6.218   0.065  0.00  0.00    -0.154 NA
ENDBRANCH   7  21
ENDBRANCH   1   8
BRANCH   4  22
ATOM     22  S   UNL     1      -2.384  14.342   0.099  0.00  0.00    +0.075 S 
ATOM     23  O   UNL     1      -1.082  14.435  -0.463  0.00  0.00    -0.150 OA
ATOM     24  O   UNL     1      -3.497  15.043  -0.438  0.00  0.00    -0.150 OA
BRANCH  22  25
ATOM     25  N   UNL     1      -2.250  14.809   1.683  0.00  0.00    -0.203 N 
ATOM     26  C   UNL     1      -3.385  15.435   2.375  0.00  0.00    +0.132 C 
ATOM     27  C   UNL     1      -2.856  16.636   3.162  0.00  0.00    +0.025 C 
ATOM     28  C   UNL     1      -1.872  16.140   4.222  0.00  0.00    +0.038 C 
ATOM     29  C   UNL     1      -0.834  15.244   3.600  0.00  0.00    -0.025 A 
ATOM     30  C   UNL     1      -1.053  14.620   2.381  0.00  0.00    +0.054 A 
ATOM     31  C   UNL     1      -0.075  13.794   1.837  0.00  0.00    +0.025 A 
ATOM     32  C   UNL     1       1.115  13.597   2.510  0.00  0.00    +0.002 A 
ATOM     33  C   UNL     1       1.333  14.221   3.724  0.00  0.00    +0.000 A 
ATOM     34  C   UNL     1       0.362  15.042   4.266  0.00  0.00    +0.005 A 
ENDBRANCH  22  25
ENDBRANCH   4  22
TORSDOF 4
