REMARK  Name = ZINC39676569
REMARK  13 active torsions:
REMARK  status: ('A' for Active; 'I' for Inactive)
REMARK    1  A    between atoms: C_1  and  C_2
REMARK    2  A    between atoms: C_2  and  C_3
REMARK    3  A    between atoms: C_3  and  C_4
REMARK    4  A    between atoms: C_3  and  C_6
REMARK    5  A    between atoms: C_4  and  C_5
REMARK    6  A    between atoms: C_10  and  C_19
REMARK    7  A    between atoms: N_21  and  C_22
REMARK    8  A    between atoms: C_22  and  C_23
REMARK    9  A    between atoms: C_22  and  C_31
REMARK   10  A    between atoms: C_26  and  O_29
REMARK   11  A    between atoms: O_29  and  C_30
REMARK   12  A    between atoms: C_34  and  O_37
REMARK   13  A    between atoms: O_37  and  C_38
REMARK                            x       y       z     vdW  Elec       q    Type
REMARK                         _______ _______ _______ _____ _____    ______ ____
ROOT
ATOM      1  C   UNL     1       4.765  -1.551  -0.888  0.00  0.00    +0.219 C 
ATOM      2  O   UNL     1       4.504  -1.072   0.195  0.00  0.00    -0.275 OA
ATOM      3  N   UNL     1       5.974  -1.341  -1.445  0.00  0.00    -0.304 N 
ATOM      4  H   UNL     1       6.183  -1.724  -2.311  0.00  0.00    +0.150 HD
ENDROOT
BRANCH   1   9
ATOM      5  C   UNL     1       1.074  -2.236   0.839  0.00  0.00    +0.219 C 
ATOM      6  O   UNL     1       0.739  -3.028   1.693  0.00  0.00    -0.275 OA
ATOM      7  N   UNL     1       1.810  -2.649  -0.212  0.00  0.00    -0.300 N 
ATOM      8  C   UNL     1       2.317  -1.835  -1.342  0.00  0.00    +0.121 C 
ATOM      9  C   UNL     1       3.736  -2.382  -1.612  0.00  0.00    +0.100 C 
ATOM     10  C   UNL     1       3.716  -3.816  -1.057  0.00  0.00    -0.004 C 
ATOM     11  C   UNL     1       2.302  -4.018  -0.494  0.00  0.00    +0.115 C 
ATOM     12  C   UNL     1       4.747  -3.966   0.057  0.00  0.00    -0.010 C 
ATOM     13  C   UNL     1       4.748  -5.415   0.554  0.00  0.00    -0.082 C 
ATOM     14  N   UNL     1       5.068  -6.315  -0.560  0.00  0.00    +0.379 N 
ATOM     15  C   UNL     1       4.022  -6.233  -1.587  0.00  0.00    -0.082 C 
ATOM     16  C   UNL     1       3.990  -4.819  -2.174  0.00  0.00    -0.010 C 
ATOM     17  H   UNL     1       5.954  -6.049  -0.963  0.00  0.00    -0.086 HD
ATOM     18  H   UNL     1       5.128  -7.263  -0.219  0.00  0.00    -0.086 HD
BRANCH   5  19
ATOM     19  C   UNL     1       0.668  -0.789   0.952  0.00  0.00    +0.075 C 
BRANCH  19  21
ATOM     20  C   UNL     1      -0.467   1.102  -0.223  0.00  0.00    +0.004 C 
ATOM     21  C   UNL     1      -0.174  -0.399  -0.265  0.00  0.00    +0.009 C 
ENDBRANCH  19  21
BRANCH  19  22
ATOM     22  C   UNL     1      -0.155  -0.588   2.226  0.00  0.00    +0.009 C 
ATOM     23  C   UNL     1       0.734  -0.821   3.449  0.00  0.00    +0.004 C 
ENDBRANCH  19  22
ENDBRANCH   5  19
ENDBRANCH   1   9
BRANCH   3  24
ATOM     24  C   UNL     1       6.974  -0.533  -0.741  0.00  0.00    +0.134 C 
BRANCH  24  25
ATOM     25  C   UNL     1       7.731  -1.404   0.228  0.00  0.00    -0.023 A 
ATOM     26  C   UNL     1       8.098  -2.686  -0.138  0.00  0.00    +0.009 A 
ATOM     27  C   UNL     1       8.793  -3.486   0.748  0.00  0.00    +0.046 A 
ATOM     28  C   UNL     1       9.122  -3.002   2.006  0.00  0.00    +0.120 A 
ATOM     29  C   UNL     1       8.753  -1.716   2.371  0.00  0.00    +0.046 A 
ATOM     30  C   UNL     1       8.063  -0.917   1.479  0.00  0.00    +0.009 A 
BRANCH  28  31
ATOM     31  O   UNL     1       9.805  -3.788   2.880  0.00  0.00    -0.495 OA
ATOM     32  C   UNL     1      10.110  -3.224   4.157  0.00  0.00    +0.277 C 
ENDBRANCH  28  31
ENDBRANCH  24  25
BRANCH  24  33
ATOM     33  C   UNL     1       7.934   0.060  -1.740  0.00  0.00    -0.023 A 
ATOM     34  C   UNL     1       8.364  -0.694  -2.816  0.00  0.00    +0.009 A 
ATOM     35  C   UNL     1       9.244  -0.153  -3.732  0.00  0.00    +0.046 A 
ATOM     36  C   UNL     1       9.696   1.149  -3.573  0.00  0.00    +0.120 A 
ATOM     37  C   UNL     1       9.262   1.905  -2.493  0.00  0.00    +0.046 A 
ATOM     38  C   UNL     1       8.378   1.360  -1.582  0.00  0.00    +0.009 A 
BRANCH  36  39
ATOM     39  O   UNL     1      10.562   1.684  -4.473  0.00  0.00    -0.495 OA
ATOM     40  C   UNL     1      10.985   3.030  -4.246  0.00  0.00    +0.277 C 
ENDBRANCH  36  39
ENDBRANCH  24  33
ENDBRANCH   3  24
TORSDOF 9
