REMARK  Name = ZINC63076559
REMARK  6 active torsions:
REMARK  status: ('A' for Active; 'I' for Inactive)
REMARK    1  A    between atoms: C_1  and  C_2
REMARK    2  A    between atoms: C_2  and  C_3
REMARK    3  A    between atoms: C_2  and  C_4
REMARK    4  A    between atoms: C_6  and  N_20
REMARK    5  A    between atoms: C_8  and  C_10
REMARK    6  A    between atoms: N_20  and  N_21
REMARK                            x       y       z     vdW  Elec       q    Type
REMARK                         _______ _______ _______ _____ _____    ______ ____
ROOT
ATOM      1  C   UNL     1       0.707  -0.490  -1.238  0.00  0.00    +0.050 A 
ATOM      2  C   UNL     1       0.017  -0.622  -2.428  0.00  0.00    +0.068 A 
ATOM      3  C   UNL     1       0.710  -1.076  -3.554  0.00  0.00    +0.136 A 
ATOM      4  N   UNL     1       2.002  -1.363  -3.442  0.00  0.00    -0.210 NA
ATOM      5  C   UNL     1       2.627  -1.222  -2.283  0.00  0.00    +0.180 A 
ATOM      6  N   UNL     1       1.996  -0.790  -1.200  0.00  0.00    -0.231 NA
ENDROOT
BRANCH   5   7
ATOM      7  C   UNL     1       4.071  -1.553  -2.195  0.00  0.00    +0.109 A 
ATOM      8  C   UNL     1       4.743  -2.001  -3.342  0.00  0.00    +0.032 A 
ATOM      9  C   UNL     1       6.070  -2.307  -3.275  0.00  0.00    +0.012 A 
ATOM     10  C   UNL     1       6.727  -2.161  -2.038  0.00  0.00    +0.000 A 
ATOM     11  C   UNL     1       8.092  -2.458  -1.898  0.00  0.00    +0.010 A 
ATOM     12  C   UNL     1       8.694  -2.305  -0.686  0.00  0.00    +0.001 A 
ATOM     13  C   UNL     1       7.973  -1.855   0.419  0.00  0.00    +0.002 A 
ATOM     14  C   UNL     1       6.649  -1.558   0.320  0.00  0.00    +0.028 A 
ATOM     15  C   UNL     1       5.992  -1.704  -0.915  0.00  0.00    +0.072 A 
ATOM     16  N   UNL     1       4.695  -1.413  -1.041  0.00  0.00    -0.244 NA
ENDBRANCH   5   7
BRANCH   1  18
ATOM     17  C   UNL     1      -0.019   1.526   0.010  0.00  0.00    +0.014 C 
ATOM     18  C   UNL     1       0.002  -0.004   0.002  0.00  0.00    +0.032 C 
ATOM     19  C   UNL     1      -1.433  -0.534   0.013  0.00  0.00    +0.014 C 
ENDBRANCH   1  18
BRANCH   3  20
ATOM     20  N   UNL     1       0.058  -1.224  -4.768  0.00  0.00    -0.267 N 
ATOM     21  H   UNL     1      -0.886  -1.013  -4.840  0.00  0.00    +0.167 HD
BRANCH  20  22
ATOM     22  N   UNL     1       0.745  -1.668  -5.862  0.00  0.00    -0.255 NA
ATOM     23  H   UNL     1       0.142  -1.725  -6.668  0.00  0.00    +0.140 HD
ATOM     24  H   UNL     1       1.545  -1.082  -6.048  0.00  0.00    +0.140 HD
ENDBRANCH  20  22
ENDBRANCH   3  20
TORSDOF 4
