REMARK  Name = ZINC14134957
REMARK  7 active torsions:
REMARK  status: ('A' for Active; 'I' for Inactive)
REMARK    1  A    between atoms: C_1  and  C_2
REMARK    2  A    between atoms: C_2  and  C_27
REMARK    3  A    between atoms: N_5  and  C_9
REMARK    4  A    between atoms: C_9  and  C_10
REMARK    5  A    between atoms: N_12  and  C_13
REMARK    6  A    between atoms: C_16  and  S_19
REMARK    7  A    between atoms: S_19  and  N_22
REMARK                            x       y       z     vdW  Elec       q    Type
REMARK                         _______ _______ _______ _____ _____    ______ ____
ROOT
ATOM      1  C   UNL     1      -3.222   1.715   3.445  0.00  0.00    +0.047 C 
ATOM      2  C   UNL     1      -2.282   2.675   2.713  0.00  0.00    +0.135 C 
ATOM      3  C   UNL     1      -2.032   2.208   1.292  0.00  0.00    +0.251 C 
ATOM      4  O   UNL     1      -2.853   2.071   0.411  0.00  0.00    -0.272 OA
ATOM      5  N   UNL     1      -0.707   1.976   1.214  0.00  0.00    -0.215 N 
ATOM      6  C   UNL     1      -0.090   2.235   2.373  0.00  0.00    +0.310 C 
ATOM      7  O   UNL     1       1.105   2.104   2.546  0.00  0.00    -0.252 OA
ATOM      8  N   UNL     1      -0.942   2.656   3.325  0.00  0.00    -0.281 N 
ATOM      9  H   UNL     1      -0.718   2.901   4.236  0.00  0.00    +0.152 HD
ENDROOT
BRANCH   2  10
ATOM     10  C   UNL     1      -2.847   4.072   2.715  0.00  0.00    -0.012 A 
ATOM     11  C   UNL     1      -3.697   4.475   1.702  0.00  0.00    +0.010 A 
ATOM     12  C   UNL     1      -4.216   5.756   1.701  0.00  0.00    +0.050 A 
ATOM     13  C   UNL     1      -3.885   6.641   2.716  0.00  0.00    +0.162 A 
ATOM     14  C   UNL     1      -3.032   6.236   3.735  0.00  0.00    +0.162 A 
ATOM     15  C   UNL     1      -2.518   4.947   3.733  0.00  0.00    +0.055 A 
ATOM     16  O   UNL     1      -2.697   7.087   4.743  0.00  0.00    -0.485 OA
ATOM     17  C   UNL     1      -2.932   8.480   4.513  0.00  0.00    +0.270 C 
ATOM     18  C   UNL     1      -4.340   8.639   3.923  0.00  0.00    +0.270 C 
ATOM     19  O   UNL     1      -4.398   7.902   2.697  0.00  0.00    -0.485 OA
ENDBRANCH   2  10
BRANCH   5  20
ATOM     20  C   UNL     1      -0.024   1.503   0.007  0.00  0.00    +0.214 C 
BRANCH  20  21
ATOM     21  C   UNL     1       0.004  -0.004   0.003  0.00  0.00    +0.235 C 
ATOM     22  O   UNL     1      -0.497  -0.622   0.918  0.00  0.00    -0.274 OA
ATOM     23  N   UNL     1       0.585  -0.664  -1.018  0.00  0.00    -0.284 N 
ATOM     24  H   UNL     1       0.926  -0.173  -1.782  0.00  0.00    +0.155 HD
BRANCH  23  25
ATOM     25  C   UNL     1       0.697  -2.059  -0.976  0.00  0.00    +0.034 A 
ATOM     26  C   UNL     1       1.808  -2.684  -1.525  0.00  0.00    +0.025 A 
ATOM     27  C   UNL     1       1.919  -4.060  -1.476  0.00  0.00    +0.030 A 
ATOM     28  C   UNL     1       0.919  -4.815  -0.892  0.00  0.00    +0.106 A 
ATOM     29  C   UNL     1      -0.192  -4.196  -0.349  0.00  0.00    +0.030 A 
ATOM     30  C   UNL     1      -0.305  -2.820  -0.389  0.00  0.00    +0.025 A 
BRANCH  28  31
ATOM     31  S   UNL     1       1.060  -6.571  -0.838  0.00  0.00    +0.061 S 
ATOM     32  O   UNL     1       2.447  -6.870  -0.926  0.00  0.00    -0.153 OA
ATOM     33  O   UNL     1       0.253  -7.010   0.246  0.00  0.00    -0.153 OA
BRANCH  31  34
ATOM     34  N   UNL     1       0.361  -7.161  -2.218  0.00  0.00    -0.177 NA
ATOM     35  C   UNL     1      -1.052  -7.540  -2.368  0.00  0.00    +0.109 C 
ATOM     36  C   UNL     1      -1.237  -8.055  -3.811  0.00  0.00    +0.018 C 
ATOM     37  C   UNL     1       0.200  -8.476  -4.215  0.00  0.00    +0.018 C 
ATOM     38  C   UNL     1       1.053  -7.399  -3.498  0.00  0.00    +0.109 C 
ENDBRANCH  31  34
ENDBRANCH  28  31
ENDBRANCH  23  25
ENDBRANCH  20  21
ENDBRANCH   5  20
TORSDOF 6
