REMARK  Name = ZINC39911074
REMARK  6 active torsions:
REMARK  status: ('A' for Active; 'I' for Inactive)
REMARK    1  A    between atoms: C_1  and  C_2
REMARK    2  A    between atoms: C_5  and  C_8
REMARK    3  A    between atoms: C_8  and  N_9
REMARK    4  A    between atoms: C_10  and  C_27
REMARK    5  A    between atoms: C_17  and  C_26
REMARK    6  A    between atoms: C_19  and  C_25
REMARK                            x       y       z     vdW  Elec       q    Type
REMARK                         _______ _______ _______ _____ _____    ______ ____
ROOT
ATOM      1  N   UNL     1       1.447  -4.746  -0.032  0.00  0.00    -0.279 N 
ATOM      2  C   UNL     1       2.261  -5.011  -1.229  0.00  0.00    +0.148 C 
ATOM      3  C   UNL     1       3.590  -5.469  -0.724  0.00  0.00    +0.072 A 
ATOM      4  C   UNL     1       4.803  -5.885  -1.436  0.00  0.00    +0.199 A 
ATOM      5  O   UNL     1       4.952  -5.748  -2.638  0.00  0.00    -0.287 OA
ATOM      6  C   UNL     1       5.833  -6.489  -0.553  0.00  0.00    +0.065 A 
ATOM      7  C   UNL     1       6.954  -7.113  -1.099  0.00  0.00    +0.018 A 
ATOM      8  C   UNL     1       7.891  -7.668  -0.273  0.00  0.00    -0.049 A 
ATOM      9  C   UNL     1       7.728  -7.613   1.104  0.00  0.00    +0.010 A 
ATOM     10  C   UNL     1       6.629  -6.999   1.661  0.00  0.00    -0.007 A 
ATOM     11  C   UNL     1       5.660  -6.423   0.839  0.00  0.00    +0.142 A 
ATOM     12  O   UNL     1       4.593  -5.817   1.407  0.00  0.00    -0.449 OA
ATOM     13  C   UNL     1       3.543  -5.460   0.641  0.00  0.00    +0.199 A 
ATOM     14  C   UNL     1       2.204  -5.006   1.054  0.00  0.00    +0.283 C 
ATOM     15  O   UNL     1       1.834  -4.885   2.205  0.00  0.00    -0.267 OA
ATOM     16  C   UNL     1       6.471  -6.950   3.159  0.00  0.00    +0.047 C 
ATOM     17  C   UNL     1       9.104  -8.343  -0.859  0.00  0.00    +0.044 C 
ENDROOT
BRANCH   2  18
ATOM     18  C   UNL     1       1.621  -6.090  -2.064  0.00  0.00    +0.013 A 
ATOM     19  C   UNL     1       0.695  -6.946  -1.497  0.00  0.00    +0.008 A 
ATOM     20  C   UNL     1       0.108  -7.935  -2.263  0.00  0.00    +0.001 A 
ATOM     21  C   UNL     1       0.446  -8.070  -3.597  0.00  0.00    +0.003 A 
ATOM     22  C   UNL     1       1.371  -7.216  -4.166  0.00  0.00    +0.039 A 
ATOM     23  C   UNL     1       1.956  -6.221  -3.401  0.00  0.00    +0.129 A 
ATOM     24  F   UNL     1       2.857  -5.383  -3.957  0.00  0.00    -0.205 F 
ENDBRANCH   2  18
BRANCH   1  25
ATOM     25  C   UNL     1       0.059  -4.275  -0.021  0.00  0.00    +0.144 C 
BRANCH  25  30
ATOM     26  C   UNL     1      -0.018   1.503   0.010  0.00  0.00    +0.044 C 
ATOM     27  C   UNL     1       0.002  -0.004   0.002  0.00  0.00    -0.050 A 
ATOM     28  C   UNL     1       0.006  -0.689  -1.199  0.00  0.00    +0.003 A 
ATOM     29  C   UNL     1       0.025  -2.071  -1.206  0.00  0.00    +0.005 A 
ATOM     30  C   UNL     1       0.040  -2.768  -0.013  0.00  0.00    -0.030 A 
ATOM     31  C   UNL     1       0.037  -2.084   1.188  0.00  0.00    +0.005 A 
ATOM     32  C   UNL     1       0.023  -0.702   1.195  0.00  0.00    +0.003 A 
ENDBRANCH  25  30
ENDBRANCH   1  25
TORSDOF 3
