REMARK  Name = ZINC35938563
REMARK  11 active torsions:
REMARK  status: ('A' for Active; 'I' for Inactive)
REMARK    1  A    between atoms: C_1  and  C_2
REMARK    2  A    between atoms: C_2  and  C_3
REMARK    3  A    between atoms: C_3  and  C_4
REMARK    4  A    between atoms: C_4  and  C_5
REMARK    5  A    between atoms: C_5  and  C_7
REMARK    6  A    between atoms: C_5  and  C_9
REMARK    7  A    between atoms: C_7  and  C_8
REMARK    8  A    between atoms: C_18  and  C_20
REMARK    9  A    between atoms: C_20  and  C_21
REMARK   10  A    between atoms: C_21  and  N_22
REMARK   11  A    between atoms: C_30  and  C_32
REMARK                            x       y       z     vdW  Elec       q    Type
REMARK                         _______ _______ _______ _____ _____    ______ ____
ROOT
ATOM      1  C   UNL     1      -2.759  -4.147   0.255  0.00  0.00    +0.219 C 
ATOM      2  O   UNL     1      -1.691  -4.695   0.086  0.00  0.00    -0.275 OA
ATOM      3  N   UNL     1      -3.852  -4.878   0.551  0.00  0.00    -0.300 N 
ATOM      4  C   UNL     1      -3.773  -6.282   0.755  0.00  0.00    +0.109 C 
ATOM      5  C   UNL     1      -3.818  -7.134  -0.554  0.00  0.00    +0.038 C 
ATOM      6  C   UNL     1      -4.836  -6.445  -1.522  0.00  0.00    +0.109 C 
ATOM      7  N   UNL     1      -5.983  -5.901  -0.884  0.00  0.00    -0.300 N 
ATOM      8  C   UNL     1      -5.949  -4.453  -0.552  0.00  0.00    +0.126 C 
ATOM      9  C   UNL     1      -5.192  -4.250   0.685  0.00  0.00    +0.126 C 
ATOM     10  C   UNL     1      -7.056  -6.664  -0.595  0.00  0.00    +0.214 C 
ATOM     11  O   UNL     1      -7.056  -7.843  -0.879  0.00  0.00    -0.276 OA
ENDROOT
BRANCH   1  12
ATOM     12  C   UNL     1      -2.865  -2.648   0.133  0.00  0.00    +0.075 C 
BRANCH  12  13
ATOM     13  C   UNL     1      -3.215  -2.049   1.496  0.00  0.00    +0.009 C 
ATOM     14  C   UNL     1      -2.108  -2.383   2.499  0.00  0.00    +0.004 C 
ENDBRANCH  12  13
BRANCH  12  15
ATOM     15  C   UNL     1      -1.528  -2.080  -0.347  0.00  0.00    +0.013 C 
BRANCH  15  16
ATOM     16  C   UNL     1      -1.669  -0.574  -0.580  0.00  0.00    +0.000 C 
BRANCH  16  18
ATOM     17  C   UNL     1      -0.452   1.514  -1.215  0.00  0.00    +0.004 C 
ATOM     18  C   UNL     1      -0.312   0.008  -0.982  0.00  0.00    -0.003 C 
ENDBRANCH  16  18
ENDBRANCH  15  16
ENDBRANCH  12  15
ENDBRANCH   1  12
BRANCH  10  19
ATOM     19  C   UNL     1      -8.255  -6.052   0.082  0.00  0.00    +0.077 C 
BRANCH  19  20
ATOM     20  C   UNL     1      -9.324  -7.126   0.294  0.00  0.00    -0.068 C 
BRANCH  20  21
ATOM     21  N   UNL     1     -10.493  -6.530   0.954  0.00  0.00    +0.388 N 
ATOM     22  C   UNL     1     -11.085  -5.519   0.067  0.00  0.00    -0.072 C 
ATOM     23  C   UNL     1     -12.087  -4.675   0.874  0.00  0.00    +0.024 C 
ATOM     24  C   UNL     1     -12.948  -5.617   1.649  0.00  0.00    -0.010 A 
ATOM     25  C   UNL     1     -12.716  -6.944   1.853  0.00  0.00    -0.047 A 
ATOM     26  C   UNL     1     -13.663  -7.632   2.608  0.00  0.00    +0.010 A 
ATOM     27  C   UNL     1     -14.742  -6.978   3.099  0.00  0.00    +0.045 A 
ATOM     28  S   UNL     1     -14.469  -5.316   2.503  0.00  0.00    -0.101 S 
ATOM     29  C   UNL     1     -11.464  -7.586   1.263  0.00  0.00    -0.006 C 
ATOM     30  H   UNL     1     -10.200  -6.087   1.812  0.00  0.00    -0.080 HD
BRANCH  29  31
ATOM     31  C   UNL     1     -10.868  -8.544   2.262  0.00  0.00    -0.057 A 
ATOM     32  C   UNL     1     -10.107  -8.063   3.311  0.00  0.00    +0.002 A 
ATOM     33  C   UNL     1      -9.560  -8.941   4.228  0.00  0.00    +0.000 A 
ATOM     34  C   UNL     1      -9.775 -10.301   4.096  0.00  0.00    +0.000 A 
ATOM     35  C   UNL     1     -10.537 -10.781   3.047  0.00  0.00    +0.000 A 
ATOM     36  C   UNL     1     -11.087  -9.903   2.133  0.00  0.00    +0.002 A 
ENDBRANCH  29  31
ENDBRANCH  20  21
ENDBRANCH  19  20
ENDBRANCH  10  19
TORSDOF 9
