REMARK  Name = ZINC10609700
REMARK  9 active torsions:
REMARK  status: ('A' for Active; 'I' for Inactive)
REMARK    1  A    between atoms: C_1  and  C_2
REMARK    2  A    between atoms: C_5  and  N_8
REMARK    3  A    between atoms: C_9  and  C_11
REMARK    4  A    between atoms: C_11  and  C_13
REMARK    5  A    between atoms: C_11  and  O_19
REMARK    6  A    between atoms: O_19  and  C_20
REMARK    7  A    between atoms: C_20  and  C_22
REMARK    8  A    between atoms: N_25  and  S_28
REMARK    9  A    between atoms: S_28  and  C_31
REMARK                            x       y       z     vdW  Elec       q    Type
REMARK                         _______ _______ _______ _____ _____    ______ ____
ROOT
ATOM      1  C   UNL     1      -1.003   7.046   3.478  0.00  0.00    +0.292 C 
ENDROOT
BRANCH   1   2
ATOM      2  C   UNL     1      -0.283   8.300   3.052  0.00  0.00    +0.002 A 
ATOM      3  C   UNL     1      -0.505   8.831   1.795  0.00  0.00    +0.008 A 
ATOM      4  C   UNL     1       0.152   9.983   1.406  0.00  0.00    +0.000 A 
ATOM      5  C   UNL     1       1.038  10.599   2.269  0.00  0.00    +0.000 A 
ATOM      6  C   UNL     1       1.265  10.065   3.524  0.00  0.00    +0.000 A 
ATOM      7  C   UNL     1       0.604   8.915   3.915  0.00  0.00    +0.008 A 
ENDBRANCH   1   2
BRANCH   1   9
ATOM      8  N   UNL     1      -2.588   8.246   4.950  0.00  0.00    -0.282 N 
ATOM      9  C   UNL     1      -2.400   7.396   3.921  0.00  0.00    +0.263 C 
ATOM     10  O   UNL     1      -3.356   6.912   3.352  0.00  0.00    -0.271 OA
ATOM     11  H   UNL     1      -1.826   8.580   5.449  0.00  0.00    +0.155 HD
BRANCH   8  16
ATOM     12  C   UNL     1      -7.837   9.868   6.366  0.00  0.00    +0.044 C 
ATOM     13  C   UNL     1      -6.443   9.437   5.990  0.00  0.00    -0.050 A 
ATOM     14  C   UNL     1      -6.219   8.154   5.527  0.00  0.00    +0.005 A 
ATOM     15  C   UNL     1      -4.942   7.756   5.181  0.00  0.00    +0.023 A 
ATOM     16  C   UNL     1      -3.883   8.646   5.300  0.00  0.00    +0.034 A 
ATOM     17  C   UNL     1      -4.110   9.932   5.770  0.00  0.00    +0.023 A 
ATOM     18  C   UNL     1      -5.390  10.326   6.108  0.00  0.00    +0.005 A 
ENDBRANCH   8  16
ENDBRANCH   1   9
BRANCH   1  19
ATOM     19  O   UNL     1      -1.066   6.121   2.362  0.00  0.00    -0.447 OA
BRANCH  19  20
ATOM     20  C   UNL     1      -0.052   5.250   2.233  0.00  0.00    +0.311 C 
ATOM     21  O   UNL     1       0.858   5.262   3.028  0.00  0.00    -0.251 OA
BRANCH  20  22
ATOM     22  C   UNL     1      -0.050   4.259   1.098  0.00  0.00    +0.100 C 
ATOM     23  C   UNL     1       1.208   3.392   1.182  0.00  0.00    +0.032 C 
ATOM     24  C   UNL     1       1.225   2.409   0.007  0.00  0.00    +0.110 C 
ATOM     25  N   UNL     1      -0.033   1.650   0.007  0.00  0.00    -0.176 NA
ATOM     26  C   UNL     1      -1.303   2.388   0.013  0.00  0.00    +0.110 C 
ATOM     27  C   UNL     1      -1.292   3.371   1.194  0.00  0.00    +0.032 C 
BRANCH  25  28
ATOM     28  S   UNL     1      -0.019  -0.006  -0.005  0.00  0.00    +0.067 S 
ATOM     29  O   UNL     1      -1.264  -0.419  -0.553  0.00  0.00    -0.152 OA
ATOM     30  O   UNL     1       1.227  -0.398  -0.566  0.00  0.00    -0.152 OA
BRANCH  28  31
ATOM     31  C   UNL     1      -0.006  -0.540   1.674  0.00  0.00    +0.143 A 
ATOM     32  C   UNL     1      -1.053  -0.802   2.494  0.00  0.00    +0.036 A 
ATOM     33  C   UNL     1      -0.802  -1.218   3.789  0.00  0.00    +0.010 A 
ATOM     34  C   UNL     1       0.482  -1.340   4.202  0.00  0.00    +0.047 A 
ATOM     35  S   UNL     1       1.389  -0.869   2.738  0.00  0.00    -0.077 S 
ENDBRANCH  28  31
ENDBRANCH  25  28
ENDBRANCH  20  22
ENDBRANCH  19  20
ENDBRANCH   1  19
TORSDOF 8
