REMARK  Name = ZINC38166817
REMARK  10 active torsions:
REMARK  status: ('A' for Active; 'I' for Inactive)
REMARK    1  A    between atoms: C_1  and  O_2
REMARK    2  A    between atoms: O_2  and  C_3
REMARK    3  A    between atoms: C_5  and  N_11
REMARK    4  A    between atoms: C_7  and  O_9
REMARK    5  A    between atoms: O_9  and  C_10
REMARK    6  A    between atoms: N_11  and  S_12
REMARK    7  A    between atoms: S_12  and  C_15
REMARK    8  A    between atoms: C_18  and  N_21
REMARK    9  A    between atoms: C_22  and  C_23
REMARK   10  A    between atoms: C_25  and  N_30
REMARK                            x       y       z     vdW  Elec       q    Type
REMARK                         _______ _______ _______ _____ _____    ______ ____
ROOT
ATOM      1  C   UNL     1      -5.520  -7.987   2.881  0.00  0.00    +0.111 A 
ATOM      2  C   UNL     1      -5.513  -7.857   1.504  0.00  0.00    +0.031 A 
ATOM      3  C   UNL     1      -4.879  -8.800   0.722  0.00  0.00    +0.029 A 
ATOM      4  C   UNL     1      -4.245  -9.889   1.324  0.00  0.00    +0.064 A 
ATOM      5  C   UNL     1      -4.257 -10.015   2.715  0.00  0.00    +0.029 A 
ATOM      6  C   UNL     1      -4.889  -9.061   3.485  0.00  0.00    +0.031 A 
ENDROOT
BRANCH   1   7
ATOM      7  S   UNL     1      -6.331  -6.777   3.873  0.00  0.00    +0.093 S 
ATOM      8  O   UNL     1      -6.659  -7.411   5.101  0.00  0.00    -0.148 OA
ATOM      9  O   UNL     1      -7.311  -6.165   3.045  0.00  0.00    -0.148 OA
BRANCH   7  10
ATOM     10  N   UNL     1      -5.214  -5.607   4.228  0.00  0.00    -0.078 NA
BRANCH  10  13
ATOM     11  C   UNL     1      -5.053  -2.453   6.089  0.00  0.00    +0.222 A 
ATOM     12  C   UNL     1      -4.644  -3.527   5.308  0.00  0.00    +0.114 A 
ATOM     13  C   UNL     1      -5.575  -4.517   5.004  0.00  0.00    +0.173 A 
ATOM     14  N   UNL     1      -6.818  -4.401   5.467  0.00  0.00    -0.176 NA
ATOM     15  C   UNL     1      -7.169  -3.363   6.208  0.00  0.00    +0.323 A 
ATOM     16  N   UNL     1      -6.309  -2.407   6.521  0.00  0.00    -0.160 NA
BRANCH  11  18
ATOM     17  C   UNL     1      -4.676  -0.401   7.221  0.00  0.00    +0.279 C 
ATOM     18  O   UNL     1      -4.180  -1.467   6.410  0.00  0.00    -0.479 OA
ENDBRANCH  11  18
BRANCH  15  19
ATOM     19  O   UNL     1      -8.443  -3.278   6.662  0.00  0.00    -0.466 OA
ATOM     20  C   UNL     1      -8.773  -2.138   7.458  0.00  0.00    +0.280 C 
ENDBRANCH  15  19
ENDBRANCH  10  13
ENDBRANCH   7  10
ENDBRANCH   1   7
BRANCH   4  21
ATOM     21  N   UNL     1      -3.615 -10.829   0.554  0.00  0.00    -0.255 NA
ATOM     22  C   UNL     1      -2.351 -11.086   0.743  0.00  0.00    +0.123 C 
BRANCH  22  23
ATOM     23  C   UNL     1      -1.554 -10.236   1.639  0.00  0.00    +0.042 A 
ATOM     24  C   UNL     1      -1.882  -8.886   1.805  0.00  0.00    +0.046 A 
ATOM     25  C   UNL     1      -1.131  -8.096   2.647  0.00  0.00    +0.127 A 
ATOM     26  C   UNL     1      -0.051  -8.631   3.330  0.00  0.00    +0.036 A 
ATOM     27  C   UNL     1       0.284  -9.962   3.176  0.00  0.00    +0.054 A 
ATOM     28  C   UNL     1      -0.464 -10.775   2.339  0.00  0.00    +0.188 A 
ATOM     29  O   UNL     1      -0.139 -12.085   2.191  0.00  0.00    -0.287 OA
BRANCH  25  30
ATOM     30  N   UNL     1      -1.478  -6.668   2.821  0.00  0.00    +0.056 N 
ATOM     31  O   UNL     1      -2.358  -6.174   2.155  0.00  0.00    -0.126 OA
ATOM     32  O   UNL     1      -0.882  -5.995   3.629  0.00  0.00    -0.126 OA
ENDBRANCH  25  30
ENDBRANCH  22  23
ENDBRANCH   4  21
TORSDOF 8
