REMARK  Name = ZINC36354883
REMARK  5 active torsions:
REMARK  status: ('A' for Active; 'I' for Inactive)
REMARK    1  A    between atoms: C_5  and  C_7
REMARK    2  A    between atoms: C_11  and  C_12
REMARK    3  A    between atoms: C_17  and  O_19
REMARK    4  A    between atoms: N_26  and  C_29
REMARK    5  A    between atoms: C_29  and  C_30
REMARK                            x       y       z     vdW  Elec       q    Type
REMARK                         _______ _______ _______ _____ _____    ______ ____
ROOT
ATOM      1  C   UNL     1       1.249  -2.162  -0.022  0.00  0.00    +0.031 A 
ATOM      2  C   UNL     1       1.268  -2.909   1.159  0.00  0.00    +0.087 A 
ATOM      3  C   UNL     1       1.297  -4.290   1.013  0.00  0.00    +0.036 A 
ATOM      4  S   UNL     1       1.291  -4.579  -0.624  0.00  0.00    -0.082 S 
ATOM      5  C   UNL     1       1.250  -2.896  -1.213  0.00  0.00    +0.110 A 
ATOM      6  C   UNL     1       1.329  -5.245   2.163  0.00  0.00    +0.115 C 
ATOM      7  C   UNL     1       2.009  -4.557   3.348  0.00  0.00    +0.121 C 
ATOM      8  C   UNL     1       1.578  -3.123   3.453  0.00  0.00    +0.189 C 
ATOM      9  N   UNL     1       1.257  -2.381   2.447  0.00  0.00    -0.216 NA
ATOM     10  C   UNL     1      -0.043  -5.715   2.529  0.00  0.00    -0.006 A 
ATOM     11  C   UNL     1      -1.162  -5.030   2.950  0.00  0.00    +0.007 A 
ATOM     12  C   UNL     1      -2.301  -5.783   3.210  0.00  0.00    +0.000 A 
ATOM     13  C   UNL     1      -2.308  -7.154   3.053  0.00  0.00    +0.002 A 
ATOM     14  C   UNL     1      -1.186  -7.850   2.630  0.00  0.00    +0.024 A 
ATOM     15  C   UNL     1      -0.035  -7.106   2.366  0.00  0.00    +0.041 A 
ATOM     16  N   UNL     1       1.210  -7.534   1.938  0.00  0.00    -0.261 N 
ATOM     17  C   UNL     1       2.075  -6.507   1.793  0.00  0.00    +0.236 C 
ATOM     18  O   UNL     1       3.231  -6.583   1.434  0.00  0.00    -0.274 OA
ENDROOT
BRANCH   1  23
ATOM     19  C   UNL     1      -0.017   1.375   0.010  0.00  0.00    +0.001 A 
ATOM     20  C   UNL     1       1.170   2.087   0.002  0.00  0.00    +0.001 A 
ATOM     21  C   UNL     1       2.383   1.422  -0.013  0.00  0.00    +0.020 A 
ATOM     22  C   UNL     1       2.416   0.041  -0.021  0.00  0.00    +0.049 A 
ATOM     23  C   UNL     1       1.222  -0.682  -0.013  0.00  0.00    +0.004 A 
ATOM     24  C   UNL     1       0.002  -0.004   0.002  0.00  0.00    +0.010 A 
ATOM     25 CL   UNL     1       3.938  -0.793  -0.040  0.00  0.00    -0.083 Cl
ENDBRANCH   1  23
BRANCH   5  26
ATOM     26  C   UNL     1       1.227  -2.423  -2.545  0.00  0.00    +0.394 C 
ATOM     27  O   UNL     1       1.201  -1.218  -2.768  0.00  0.00    -0.240 OA
ATOM     28  O   UNL     1       1.232  -3.219  -3.478  0.00  0.00    -0.240 OA
ENDBRANCH   5  26
BRANCH   8  29
ATOM     29  O   UNL     1       1.522  -2.572   4.684  0.00  0.00    -0.495 OA
ATOM     30  H   UNL     1       1.238  -1.648   4.689  0.00  0.00    +0.293 HD
ENDBRANCH   8  29
BRANCH  16  31
ATOM     31  C   UNL     1       1.548  -8.934   1.674  0.00  0.00    +0.209 C 
BRANCH  31  32
ATOM     32  C   UNL     1       1.254  -9.259   0.233  0.00  0.00    +0.228 C 
ATOM     33  O   UNL     1       0.805  -8.405  -0.502  0.00  0.00    -0.274 OA
ATOM     34  N   UNL     1       1.489 -10.499  -0.240  0.00  0.00    -0.328 N 
ATOM     35  H   UNL     1       1.848 -11.182   0.347  0.00  0.00    +0.145 HD
ATOM     36  H   UNL     1       1.299 -10.708  -1.169  0.00  0.00    +0.145 HD
ENDBRANCH  31  32
ENDBRANCH  16  31
TORSDOF 5
