REMARK  Name = ZINC48193176
REMARK  6 active torsions:
REMARK  status: ('A' for Active; 'I' for Inactive)
REMARK    1  A    between atoms: C_1  and  C_2
REMARK    2  A    between atoms: N_14  and  C_15
REMARK    3  A    between atoms: C_20  and  O_21
REMARK    4  A    between atoms: O_21  and  C_22
REMARK    5  A    between atoms: C_22  and  C_23
REMARK    6  A    between atoms: C_22  and  C_24
REMARK                            x       y       z     vdW  Elec       q    Type
REMARK                         _______ _______ _______ _____ _____    ______ ____
ROOT
ATOM      1  C   UNL     1      -0.330   1.524   0.308  0.00  0.00    +0.033 C 
ATOM      2  C   UNL     1      -0.190   0.006   0.177  0.00  0.00    +0.105 C 
ATOM      3  C   UNL     1      -1.551  -0.658   0.373  0.00  0.00    -0.017 A 
ATOM      4  C   UNL     1      -2.712  -0.223  -0.265  0.00  0.00    +0.013 A 
ATOM      5  C   UNL     1      -3.884  -0.863  -0.047  0.00  0.00    +0.046 A 
ATOM      6  S   UNL     1      -3.397  -2.143   1.099  0.00  0.00    -0.101 S 
ATOM      7  C   UNL     1      -1.675  -1.729   1.203  0.00  0.00    -0.004 A 
ATOM      8  C   UNL     1      -0.609  -2.392   2.013  0.00  0.00    +0.062 C 
ATOM      9  C   UNL     1       0.762  -1.949   1.477  0.00  0.00    +0.115 C 
ATOM     10  N   UNL     1       0.713  -0.502   1.218  0.00  0.00    -0.278 N 
ATOM     11  C   UNL     1       1.485   0.346   1.927  0.00  0.00    +0.307 C 
ATOM     12  O   UNL     1       1.369   1.546   1.774  0.00  0.00    -0.252 OA
ATOM     13  N   UNL     1       2.385  -0.137   2.807  0.00  0.00    -0.266 N 
ATOM     14  H   UNL     1       2.511  -1.095   2.895  0.00  0.00    +0.156 HD
ENDROOT
BRANCH  13  15
ATOM     15  C   UNL     1       3.139   0.744   3.593  0.00  0.00    +0.077 A 
ATOM     16  C   UNL     1       3.135   2.103   3.314  0.00  0.00    +0.027 A 
ATOM     17  C   UNL     1       3.879   2.970   4.090  0.00  0.00    +0.002 A 
ATOM     18  C   UNL     1       4.629   2.487   5.147  0.00  0.00    +0.004 A 
ATOM     19  C   UNL     1       4.638   1.134   5.432  0.00  0.00    +0.047 A 
ATOM     20  C   UNL     1       3.890   0.259   4.661  0.00  0.00    +0.142 A 
BRANCH  20  21
ATOM     21  O   UNL     1       3.893  -1.071   4.943  0.00  0.00    -0.488 OA
BRANCH  21  22
ATOM     22  C   UNL     1       4.597  -1.484   6.117  0.00  0.00    +0.167 C 
ATOM     23  C   UNL     1       4.016  -2.806   6.622  0.00  0.00    +0.051 C 
ATOM     24  C   UNL     1       6.078  -1.672   5.783  0.00  0.00    +0.051 C 
ENDBRANCH  21  22
ENDBRANCH  20  21
ENDBRANCH  13  15
TORSDOF 3
