REMARK  Name = ZINC39293146
REMARK  8 active torsions:
REMARK  status: ('A' for Active; 'I' for Inactive)
REMARK    1  A    between atoms: C_1  and  O_2
REMARK    2  A    between atoms: O_2  and  C_3
REMARK    3  A    between atoms: N_15  and  C_17
REMARK    4  A    between atoms: C_17  and  C_18
REMARK    5  A    between atoms: C_18  and  C_19
REMARK    6  A    between atoms: C_19  and  C_20
REMARK    7  A    between atoms: C_20  and  N_21
REMARK    8  A    between atoms: C_35  and  O_38
REMARK                            x       y       z     vdW  Elec       q    Type
REMARK                         _______ _______ _______ _____ _____    ______ ____
ROOT
ATOM      1  C   UNL     1       0.544  -0.570  -1.167  0.00  0.00    +0.162 A 
ATOM      2  C   UNL     1       1.085   0.141  -2.236  0.00  0.00    +0.049 A 
ATOM      3  C   UNL     1       1.750  -0.480  -3.284  0.00  0.00    +0.006 A 
ATOM      4  C   UNL     1       1.865  -1.851  -3.309  0.00  0.00    -0.056 A 
ATOM      5  C   UNL     1       1.259  -2.563  -2.301  0.00  0.00    +0.013 A 
ATOM      6  C   UNL     1       0.660  -1.960  -1.190  0.00  0.00    +0.167 A 
ATOM      7  O   UNL     1       0.337  -2.898  -0.255  0.00  0.00    -0.484 OA
ATOM      8  C   UNL     1       0.183  -4.123  -0.930  0.00  0.00    +0.191 C 
ATOM      9  C   UNL     1       1.160  -4.045  -2.121  0.00  0.00    +0.053 C 
ATOM     10  C   UNL     1       2.562  -4.552  -1.763  0.00  0.00    +0.001 C 
ATOM     11  C   UNL     1       3.390  -4.567  -3.041  0.00  0.00    -0.077 C 
ATOM     12  N   UNL     1       3.753  -3.293  -3.615  0.00  0.00    +0.382 N 
ATOM     13  C   UNL     1       2.645  -2.639  -4.345  0.00  0.00    -0.043 C 
ATOM     14  C   UNL     1       0.540  -4.882  -3.189  0.00  0.00    -0.014 C 
ATOM     15  C   UNL     1       0.116  -6.064  -2.761  0.00  0.00    +0.001 C 
ATOM     16  C   UNL     1       0.278  -6.554  -1.358  0.00  0.00    +0.141 C 
ATOM     17  C   UNL     1       0.345  -5.459  -0.279  0.00  0.00    +0.081 C 
ATOM     18  H   UNL     1       4.058  -2.680  -2.874  0.00  0.00    -0.081 HD
ENDROOT
BRANCH   1  20
ATOM     19  C   UNL     1      -0.138   1.495  -0.203  0.00  0.00    +0.277 C 
ATOM     20  O   UNL     1      -0.070   0.069  -0.135  0.00  0.00    -0.491 OA
ENDBRANCH   1  20
BRANCH  16  21
ATOM     21  O   UNL     1      -0.804  -7.439  -1.063  0.00  0.00    -0.388 OA
ATOM     22  H   UNL     1      -0.848  -8.213  -1.643  0.00  0.00    +0.210 HD
ENDBRANCH  16  21
BRANCH  12  23
ATOM     23  C   UNL     1       4.873  -3.497  -4.543  0.00  0.00    -0.078 C 
BRANCH  23  24
ATOM     24  C   UNL     1       6.113  -3.929  -3.759  0.00  0.00    -0.017 C 
BRANCH  24  25
ATOM     25  C   UNL     1       7.313  -4.008  -4.705  0.00  0.00    +0.019 C 
BRANCH  25  26
ATOM     26  C   UNL     1       8.553  -4.440  -3.920  0.00  0.00    +0.135 C 
BRANCH  26  27
ATOM     27  N   UNL     1       9.702  -4.516  -4.826  0.00  0.00    -0.168 N 
ATOM     28  C   UNL     1      10.054  -5.549  -5.606  0.00  0.00    +0.268 C 
ATOM     29  O   UNL     1       9.399  -6.573  -5.620  0.00  0.00    -0.268 OA
ATOM     30  C   UNL     1      11.253  -5.410  -6.444  0.00  0.00    +0.065 A 
ATOM     31  C   UNL     1      11.841  -6.319  -7.339  0.00  0.00    +0.015 A 
ATOM     32  C   UNL     1      12.980  -5.977  -8.030  0.00  0.00    +0.001 A 
ATOM     33  C   UNL     1      13.570  -4.737  -7.860  0.00  0.00    +0.002 A 
ATOM     34  C   UNL     1      13.004  -3.825  -6.980  0.00  0.00    +0.029 A 
ATOM     35  C   UNL     1      11.873  -4.162  -6.292  0.00  0.00    +0.121 A 
ATOM     36  S   UNL     1      10.847  -3.329  -5.112  0.00  0.00    +0.078 S 
ATOM     37  O   UNL     1      10.199  -2.256  -5.781  0.00  0.00    -0.150 OA
ATOM     38  O   UNL     1      11.606  -3.166  -3.922  0.00  0.00    -0.150 OA
ENDBRANCH  26  27
ENDBRANCH  25  26
ENDBRANCH  24  25
ENDBRANCH  23  24
ENDBRANCH  12  23
TORSDOF 7
