REMARK  Name = ZINC08768683
REMARK  11 active torsions:
REMARK  status: ('A' for Active; 'I' for Inactive)
REMARK    1  A    between atoms: C_1  and  C_2
REMARK    2  A    between atoms: C_2  and  C_4
REMARK    3  A    between atoms: C_2  and  N_12
REMARK    4  A    between atoms: C_4  and  C_5
REMARK    5  A    between atoms: C_5  and  C_6
REMARK    6  A    between atoms: C_15  and  C_21
REMARK    7  A    between atoms: C_16  and  O_20
REMARK    8  A    between atoms: C_18  and  O_19
REMARK    9  A    between atoms: C_28  and  O_29
REMARK   10  A    between atoms: O_29  and  C_30
REMARK   11  A    between atoms: C_36  and  N_64
REMARK                            x       y       z     vdW  Elec       q    Type
REMARK                         _______ _______ _______ _____ _____    ______ ____
ROOT
ATOM      1  N   UNL     1       2.351   1.359  -0.013  0.00  0.00    -0.260 N 
ATOM      2  C   UNL     1       1.203   2.068   0.002  0.00  0.00    +0.262 A 
ATOM      3  O   UNL     1       1.227   3.289   0.008  0.00  0.00    -0.267 OA
ATOM      4  C   UNL     1      -0.017   1.379   0.010  0.00  0.00    +0.069 A 
ATOM      5  C   UNL     1       0.002  -0.004   0.002  0.00  0.00    +0.224 A 
ATOM      6  N   UNL     1       1.172  -0.652  -0.013  0.00  0.00    -0.161 NA
ATOM      7  C   UNL     1       2.312   0.001  -0.020  0.00  0.00    +0.302 A 
ENDROOT
BRANCH   4   8
ATOM      8  C   UNL     1      -1.323   2.130   0.020  0.00  0.00    +0.007 C 
ATOM      9  C   UNL     1      -1.454   2.882   1.319  0.00  0.00    -0.008 A 
ATOM     10  C   UNL     1      -1.930   4.175   1.367  0.00  0.00    -0.040 A 
ATOM     11  C   UNL     1      -2.041   4.828   2.585  0.00  0.00    +0.053 A 
ATOM     12  C   UNL     1      -1.674   4.193   3.759  0.00  0.00    +0.170 A 
ATOM     13  C   UNL     1      -1.191   2.890   3.716  0.00  0.00    +0.208 A 
ATOM     14  C   UNL     1      -1.082   2.238   2.495  0.00  0.00    +0.167 A 
ATOM     15  O   UNL     1      -0.900   2.488   4.989  0.00  0.00    -0.449 OA
ATOM     16  C   UNL     1      -1.594   3.410   5.849  0.00  0.00    +0.467 C 
ATOM     17  O   UNL     1      -1.688   4.610   5.059  0.00  0.00    -0.452 OA
ATOM     18  C   UNL     1      -2.339   4.913   0.118  0.00  0.00    +0.017 C 
ATOM     19  C   UNL     1      -2.544   3.924  -1.030  0.00  0.00    -0.073 C 
ATOM     20  C   UNL     1      -1.329   2.329  -2.391  0.00  0.00    -0.095 C 
ATOM     21  N   UNL     1      -1.339   3.072  -1.112  0.00  0.00    +0.386 N 
ATOM     22  H   UNL     1      -0.503   3.667  -1.065  0.00  0.00    -0.081 HD
BRANCH  14  23
ATOM     23  O   UNL     1      -0.610   0.964   2.448  0.00  0.00    -0.491 OA
ATOM     24  C   UNL     1      -1.571  -0.089   2.558  0.00  0.00    +0.277 C 
ENDBRANCH  14  23
ENDBRANCH   4   8
BRANCH   1  26
ATOM     25  C   UNL     1       4.420   1.668  -1.280  0.00  0.00    +0.031 C 
ATOM     26  C   UNL     1       3.640   2.054  -0.021  0.00  0.00    +0.092 C 
BRANCH  26  27
ATOM     27  C   UNL     1       4.443   1.654   1.219  0.00  0.00    +0.030 C 
BRANCH  27  28
ATOM     28  C   UNL     1       3.724   2.150   2.474  0.00  0.00    +0.037 C 
BRANCH  28  29
ATOM     29  C   UNL     1       4.514   1.756   3.695  0.00  0.00    -0.047 A 
ATOM     30  C   UNL     1       4.267   0.547   4.319  0.00  0.00    +0.003 A 
ATOM     31  C   UNL     1       4.996   0.184   5.436  0.00  0.00    +0.000 A 
ATOM     32  C   UNL     1       5.965   1.034   5.935  0.00  0.00    +0.000 A 
ATOM     33  C   UNL     1       6.208   2.245   5.315  0.00  0.00    +0.000 A 
ATOM     34  C   UNL     1       5.483   2.606   4.195  0.00  0.00    +0.003 A 
ENDBRANCH  28  29
ENDBRANCH  27  28
ENDBRANCH  26  27
ENDBRANCH   1  26
BRANCH   7  35
ATOM     35  O   UNL     1       3.469  -0.692  -0.035  0.00  0.00    -0.479 OA
ATOM     36  H   UNL     1       3.403  -1.657  -0.039  0.00  0.00    +0.295 HD
ENDBRANCH   7  35
BRANCH   5  37
ATOM     37  O   UNL     1      -1.159  -0.699   0.009  0.00  0.00    -0.492 OA
ATOM     38  H   UNL     1      -1.043  -1.659   0.003  0.00  0.00    +0.294 HD
ENDBRANCH   5  37
TORSDOF 8
