REMARK  Name = ZINC41491538
REMARK  8 active torsions:
REMARK  status: ('A' for Active; 'I' for Inactive)
REMARK    1  A    between atoms: C_1  and  C_2
REMARK    2  A    between atoms: C_2  and  C_3
REMARK    3  A    between atoms: C_7  and  N_9
REMARK    4  A    between atoms: C_10  and  C_12
REMARK    5  A    between atoms: N_14  and  C_15
REMARK    6  A    between atoms: C_15  and  C_16
REMARK    7  A    between atoms: C_24  and  C_31
REMARK    8  A    between atoms: C_27  and  C_30
REMARK                            x       y       z     vdW  Elec       q    Type
REMARK                         _______ _______ _______ _____ _____    ______ ____
ROOT
ATOM      1  C   UNL     1       6.157  -2.272  -3.350  0.00  0.00    +0.300 C 
ATOM      2  O   UNL     1       6.789  -2.056  -2.337  0.00  0.00    -0.265 OA
ATOM      3  N   UNL     1       6.771  -2.799  -4.428  0.00  0.00    -0.303 N 
ATOM      4  H   UNL     1       6.266  -2.972  -5.238  0.00  0.00    +0.149 HD
ENDROOT
BRANCH   1   6
ATOM      5  N   UNL     1       4.084  -1.430  -2.325  0.00  0.00    -0.278 N 
ATOM      6  C   UNL     1       4.698  -1.956  -3.402  0.00  0.00    +0.303 C 
ATOM      7  O   UNL     1       4.066  -2.172  -4.416  0.00  0.00    -0.265 OA
ATOM      8  H   UNL     1       4.602  -1.187  -1.541  0.00  0.00    +0.155 HD
BRANCH   5  13
ATOM      9  C   UNL     1       0.776   0.029  -1.663  0.00  0.00    -0.046 A 
ATOM     10  C   UNL     1      -0.039  -0.847  -2.356  0.00  0.00    +0.004 A 
ATOM     11  C   UNL     1       0.511  -1.915  -3.039  0.00  0.00    +0.002 A 
ATOM     12  C   UNL     1       1.878  -2.112  -3.030  0.00  0.00    +0.023 A 
ATOM     13  C   UNL     1       2.700  -1.234  -2.335  0.00  0.00    +0.034 A 
ATOM     14  C   UNL     1       2.144  -0.158  -1.655  0.00  0.00    +0.027 A 
BRANCH   9  16
ATOM     15  C   UNL     1       0.085   2.403  -1.852  0.00  0.00    +0.009 C 
ATOM     16  C   UNL     1       0.171   1.193  -0.920  0.00  0.00    +0.032 C 
ENDBRANCH   9  16
ENDBRANCH   5  13
ENDBRANCH   1   6
BRANCH   3  17
ATOM     17  C   UNL     1       8.202  -3.109  -4.377  0.00  0.00    +0.141 C 
BRANCH  17  18
ATOM     18  C   UNL     1       8.640  -3.682  -5.700  0.00  0.00    -0.014 A 
ATOM     19  C   UNL     1       8.585  -5.052  -5.924  0.00  0.00    +0.010 A 
ATOM     20  C   UNL     1       8.995  -5.537  -7.152  0.00  0.00    +0.042 A 
ATOM     21  C   UNL     1       9.448  -4.641  -8.116  0.00  0.00    +0.099 A 
ATOM     22  N   UNL     1       9.486  -3.342  -7.864  0.00  0.00    -0.349 N 
ATOM     23  C   UNL     1       9.094  -2.851  -6.703  0.00  0.00    +0.089 A 
ATOM     24  N   UNL     1       9.864  -5.115  -9.355  0.00  0.00    -0.312 N 
ATOM     25  C   UNL     1      10.475  -4.213 -10.344  0.00  0.00    +0.137 C 
ATOM     26  C   UNL     1      11.784  -4.845 -10.831  0.00  0.00    +0.133 C 
ATOM     27  O   UNL     1      11.529  -6.184 -11.264  0.00  0.00    -0.371 OA
ATOM     28  C   UNL     1      11.054  -7.052 -10.232  0.00  0.00    +0.133 C 
ATOM     29  C   UNL     1       9.713  -6.534  -9.713  0.00  0.00    +0.137 C 
ATOM     30  C   UNL     1      12.066  -7.083  -9.085  0.00  0.00    +0.039 C 
ATOM     31  C   UNL     1      12.344  -4.028 -11.997  0.00  0.00    +0.039 C 
ATOM     32  H   UNL     1       9.805  -2.736  -8.551  0.00  0.00    +0.167 HD
ENDBRANCH  17  18
ENDBRANCH   3  17
TORSDOF 5
