REMARK  Name = ZINC33429022
REMARK  2 active torsions:
REMARK  status: ('A' for Active; 'I' for Inactive)
REMARK    1  A    between atoms: C_1  and  C_2
REMARK    2  A    between atoms: N_4  and  C_29
REMARK                            x       y       z     vdW  Elec       q    Type
REMARK                         _______ _______ _______ _____ _____    ______ ____
ROOT
ATOM      1  C   UNL     1       1.952  -3.137  -0.036  0.00  0.00    +0.063 C 
ATOM      2  C   UNL     1       0.926  -2.032  -0.019  0.00  0.00    +0.052 C 
ATOM      3  N   UNL     1       1.161  -0.776  -0.019  0.00  0.00    -0.181 NA
ATOM      4  N   UNL     1       0.002  -0.004   0.002  0.00  0.00    -0.160 N 
ATOM      5  C   UNL     1      -1.102  -0.784   0.008  0.00  0.00    +0.253 C 
ATOM      6  O   UNL     1      -2.261  -0.426   0.022  0.00  0.00    -0.272 OA
ATOM      7  C   UNL     1      -0.573  -2.199  -0.006  0.00  0.00    +0.112 C 
ATOM      8  C   UNL     1      -1.024  -2.957   1.236  0.00  0.00    +0.061 C 
ATOM      9  C   UNL     1      -0.755  -4.431   1.064  0.00  0.00    -0.025 A 
ATOM     10  C   UNL     1      -0.824  -5.242   2.186  0.00  0.00    +0.007 A 
ATOM     11  C   UNL     1      -0.610  -6.602   2.082  0.00  0.00    +0.020 A 
ATOM     12  C   UNL     1      -0.323  -7.162   0.849  0.00  0.00    +0.043 A 
ATOM     13  C   UNL     1      -0.247  -6.360  -0.270  0.00  0.00    +0.043 A 
ATOM     14  C   UNL     1      -0.459  -4.984  -0.170  0.00  0.00    +0.035 A 
ATOM     15  N   UNL     1      -0.358  -4.227  -1.333  0.00  0.00    -0.322 N 
ATOM     16  C   UNL     1      -1.046  -2.937  -1.253  0.00  0.00    +0.112 C 
ATOM     17  C   UNL     1      -0.730  -2.114  -2.504  0.00  0.00    +0.130 C 
ATOM     18  N   UNL     1      -1.157  -2.864  -3.695  0.00  0.00    -0.313 N 
ATOM     19  C   UNL     1      -0.471  -4.161  -3.774  0.00  0.00    +0.125 C 
ATOM     20  C   UNL     1      -0.783  -4.981  -2.519  0.00  0.00    +0.124 C 
ATOM     21  C   UNL     1      -0.951  -2.121  -4.851  0.00  0.00    +0.099 A 
ATOM     22  C   UNL     1       0.346  -1.843  -5.272  0.00  0.00    +0.042 A 
ATOM     23  C   UNL     1       0.536  -1.103  -6.424  0.00  0.00    +0.005 A 
ATOM     24  C   UNL     1      -0.582  -0.662  -7.121  0.00  0.00    +0.018 A 
ATOM     25  C   UNL     1      -1.841  -0.974  -6.646  0.00  0.00    +0.084 A 
ATOM     26  N   UNL     1      -1.992  -1.687  -5.546  0.00  0.00    -0.350 N 
ATOM     27 CL   UNL     1      -0.060  -8.873   0.712  0.00  0.00    -0.083 Cl
ATOM     28  H   UNL     1      -3.013  -1.920  -5.210  0.00  0.00    +0.166 HD
ENDROOT
BRANCH   4  29
ATOM     29  C   UNL     1      -0.017   1.396   0.010  0.00  0.00    +0.060 A 
ATOM     30  C   UNL     1      -1.228   2.075   0.019  0.00  0.00    +0.027 A 
ATOM     31  C   UNL     1      -1.244   3.456   0.032  0.00  0.00    +0.022 A 
ATOM     32  C   UNL     1      -0.054   4.163   0.024  0.00  0.00    +0.041 A 
ATOM     33  C   UNL     1       1.154   3.489   0.009  0.00  0.00    +0.022 A 
ATOM     34  C   UNL     1       1.175   2.108   0.002  0.00  0.00    +0.027 A 
ATOM     35 CL   UNL     1      -0.078   5.899   0.034  0.00  0.00    -0.084 Cl
ENDBRANCH   4  29
TORSDOF 1
