REMARK  Name = ZINC04308933
REMARK  5 active torsions:
REMARK  status: ('A' for Active; 'I' for Inactive)
REMARK    1  A    between atoms: C_1  and  C_2
REMARK    2  A    between atoms: N_11  and  C_15
REMARK    3  A    between atoms: C_15  and  C_16
REMARK    4  A    between atoms: N_18  and  C_19
REMARK    5  A    between atoms: C_24  and  C_25
REMARK                            x       y       z     vdW  Elec       q    Type
REMARK                         _______ _______ _______ _____ _____    ______ ____
ROOT
ATOM      1  C   UNL     1       4.818   4.013   0.194  0.00  0.00    +0.214 C 
ENDROOT
BRANCH   1  11
ATOM      2  C   UNL     1       6.001  -0.234   0.850  0.00  0.00    +0.010 C 
ATOM      3  C   UNL     1       7.309   0.255   1.476  0.00  0.00    +0.018 C 
ATOM      4  C   UNL     1       8.459  -0.650   1.027  0.00  0.00    +0.006 C 
ATOM      5  C   UNL     1       9.769  -0.149   1.638  0.00  0.00    +0.000 C 
ATOM      6  C   UNL     1      10.042   1.280   1.164  0.00  0.00    +0.003 C 
ATOM      7  C   UNL     1       8.897   2.192   1.613  0.00  0.00    +0.035 C 
ATOM      8  C   UNL     1       7.583   1.687   1.029  0.00  0.00    +0.115 C 
ATOM      9  C   UNL     1       6.446   2.597   1.432  0.00  0.00    +0.247 C 
ATOM     10  O   UNL     1       6.062   2.838   2.556  0.00  0.00    -0.273 OA
ATOM     11  N   UNL     1       5.946   3.082   0.277  0.00  0.00    -0.215 N 
ATOM     12  C   UNL     1       6.612   2.611  -0.785  0.00  0.00    +0.310 C 
ATOM     13  O   UNL     1       6.349   2.908  -1.934  0.00  0.00    -0.252 OA
ATOM     14  N   UNL     1       7.606   1.772  -0.437  0.00  0.00    -0.285 N 
ATOM     15  H   UNL     1       8.216   1.314  -1.036  0.00  0.00    +0.151 HD
ENDBRANCH   1  11
BRANCH   1  16
ATOM     16  C   UNL     1       3.531   3.236   0.088  0.00  0.00    +0.235 C 
ATOM     17  O   UNL     1       3.554   2.024   0.082  0.00  0.00    -0.274 OA
ATOM     18  N   UNL     1       2.355   3.889   0.001  0.00  0.00    -0.284 N 
ATOM     19  H   UNL     1       2.341   4.857  -0.060  0.00  0.00    +0.155 HD
BRANCH  18  20
ATOM     20  C   UNL     1       1.155   3.170  -0.003  0.00  0.00    +0.045 A 
ATOM     21  C   UNL     1       1.091   1.924  -0.614  0.00  0.00    +0.024 A 
ATOM     22  C   UNL     1      -0.095   1.217  -0.615  0.00  0.00    +0.002 A 
ATOM     23  C   UNL     1      -1.220   1.750  -0.013  0.00  0.00    +0.001 A 
ATOM     24  C   UNL     1      -1.159   2.987   0.601  0.00  0.00    +0.014 A 
ATOM     25  C   UNL     1       0.025   3.700   0.605  0.00  0.00    +0.076 A 
BRANCH  25  26
ATOM     26  C   UNL     1       0.089   5.051   1.270  0.00  0.00    +0.419 C 
ATOM     27  F   UNL     1      -1.163   5.367   1.807  0.00  0.00    -0.166 F 
ATOM     28  F   UNL     1       1.042   5.021   2.295  0.00  0.00    -0.166 F 
ATOM     29  F   UNL     1       0.450   6.018   0.327  0.00  0.00    -0.166 F 
ENDBRANCH  25  26
ENDBRANCH  18  20
ENDBRANCH   1  16
TORSDOF 4
