REMARK  Name = ZINC12217853
REMARK  7 active torsions:
REMARK  status: ('A' for Active; 'I' for Inactive)
REMARK    1  A    between atoms: C_1  and  N_60
REMARK    2  A    between atoms: C_2  and  C_3
REMARK    3  A    between atoms: C_2  and  N_60
REMARK    4  A    between atoms: C_3  and  C_4
REMARK    5  A    between atoms: C_10  and  N_60
REMARK    6  A    between atoms: N_21  and  C_24
REMARK    7  A    between atoms: C_24  and  C_25
REMARK                            x       y       z     vdW  Elec       q    Type
REMARK                         _______ _______ _______ _____ _____    ______ ____
ROOT
ATOM      1  C   UNL     1      -7.417   3.187   5.976  0.00  0.00    -0.064 C 
ATOM      2  C   UNL     1      -6.345   3.793   5.067  0.00  0.00    -0.010 C 
ATOM      3  C   UNL     1      -6.151   2.912   3.832  0.00  0.00    +0.035 C 
ATOM      4  C   UNL     1      -5.895   1.478   4.287  0.00  0.00    -0.023 A 
ATOM      5  C   UNL     1      -6.227   1.080   5.533  0.00  0.00    -0.006 A 
ATOM      6  S   UNL     1      -5.754  -0.627   5.612  0.00  0.00    -0.073 S 
ATOM      7  C   UNL     1      -5.112  -0.800   3.966  0.00  0.00    +0.116 A 
ATOM      8  C   UNL     1      -5.286   0.477   3.411  0.00  0.00    +0.076 A 
ATOM      9  C   UNL     1      -4.845   0.631   2.056  0.00  0.00    +0.263 A 
ATOM     10  O   UNL     1      -4.954   1.703   1.486  0.00  0.00    -0.267 OA
ATOM     11  N   UNL     1      -4.307  -0.429   1.424  0.00  0.00    -0.294 N 
ATOM     12  C   UNL     1      -4.182  -1.632   2.041  0.00  0.00    +0.203 A 
ATOM     13  N   UNL     1      -4.571  -1.801   3.277  0.00  0.00    -0.230 NA
ATOM     14  C   UNL     1      -6.857   1.907   6.612  0.00  0.00    +0.027 C 
ENDROOT
BRANCH   1  16
ATOM     15  C   UNL     1      -6.599   4.480   7.852  0.00  0.00    -0.096 C 
ATOM     16  N   UNL     1      -7.779   4.171   7.018  0.00  0.00    +0.380 N 
ATOM     17  H   UNL     1      -8.101   5.034   6.564  0.00  0.00    -0.082 HD
BRANCH  16  18
ATOM     18  C   UNL     1      -8.868   3.637   7.862  0.00  0.00    -0.073 C 
BRANCH  18  19
ATOM     19  C   UNL     1      -9.373   4.751   8.780  0.00  0.00    +0.037 C 
BRANCH  19  20
ATOM     20  C   UNL     1     -10.500   4.227   9.633  0.00  0.00    +0.040 A 
ATOM     21  C   UNL     1     -10.422   4.333  11.009  0.00  0.00    +0.023 A 
ATOM     22  C   UNL     1     -11.464   3.849  11.784  0.00  0.00    +0.003 A 
ATOM     23  C   UNL     1     -12.551   3.273  11.143  0.00  0.00    +0.020 A 
ATOM     24  C   UNL     1     -12.559   3.202   9.764  0.00  0.00    +0.111 A 
ATOM     25  N   UNL     1     -11.552   3.678   9.057  0.00  0.00    -0.260 NA
ENDBRANCH  19  20
ENDBRANCH  18  19
ENDBRANCH  16  18
ENDBRANCH   1  16
BRANCH  11  26
ATOM     26  C   UNL     1      -3.852  -0.283   0.039  0.00  0.00    +0.168 C 
BRANCH  26  27
ATOM     27  C   UNL     1      -2.407   0.145   0.027  0.00  0.00    +0.011 A 
ATOM     28  C   UNL     1      -1.313  -0.629   0.012  0.00  0.00    +0.021 A 
ATOM     29  C   UNL     1       0.002  -0.004   0.002  0.00  0.00    -0.010 A 
ATOM     30  C   UNL     1       1.276  -0.621  -0.013  0.00  0.00    +0.009 A 
ATOM     31  C   UNL     1       2.410   0.128  -0.020  0.00  0.00    +0.001 A 
ATOM     32  C   UNL     1       2.364   1.516  -0.012  0.00  0.00    +0.001 A 
ATOM     33  C   UNL     1       1.141   2.156   0.003  0.00  0.00    +0.015 A 
ATOM     34  C   UNL     1      -0.017   1.407   0.010  0.00  0.00    +0.020 A 
ATOM     35  S   UNL     1      -1.747   1.801   0.036  0.00  0.00    -0.091 S 
ENDBRANCH  26  27
ENDBRANCH  11  26
TORSDOF 6
