REMARK  Name = ZINC36642023
REMARK  15 active torsions:
REMARK  status: ('A' for Active; 'I' for Inactive)
REMARK    1  A    between atoms: C_1  and  C_2
REMARK    2  A    between atoms: C_2  and  N_3
REMARK    3  A    between atoms: N_3  and  C_4
REMARK    4  A    between atoms: N_3  and  C_6
REMARK    5  A    between atoms: C_4  and  C_5
REMARK    6  A    between atoms: C_6  and  C_7
REMARK    7  A    between atoms: C_7  and  N_8
REMARK    8  A    between atoms: C_12  and  C_19
REMARK    9  A    between atoms: C_14  and  C_18
REMARK   10  A    between atoms: C_20  and  C_22
REMARK   11  A    between atoms: C_24  and  O_33
REMARK   12  A    between atoms: C_25  and  O_31
REMARK   13  A    between atoms: C_27  and  N_28
REMARK   14  A    between atoms: O_31  and  C_32
REMARK   15  A    between atoms: O_33  and  C_34
REMARK                            x       y       z     vdW  Elec       q    Type
REMARK                         _______ _______ _______ _____ _____    ______ ____
ROOT
ATOM      1  N   UNL     1       2.381  -3.737   2.580  0.00  0.00    -0.248 N 
ATOM      2  C   UNL     1       3.625  -4.252   2.256  0.00  0.00    +0.168 A 
ATOM      3  N   UNL     1       4.054  -5.489   2.351  0.00  0.00    -0.224 NA
ATOM      4  C   UNL     1       5.305  -5.853   1.994  0.00  0.00    +0.083 A 
ATOM      5  C   UNL     1       5.888  -7.140   2.047  0.00  0.00    -0.024 A 
ATOM      6  C   UNL     1       7.183  -7.339   1.643  0.00  0.00    +0.009 A 
ATOM      7  C   UNL     1       7.964  -6.294   1.172  0.00  0.00    -0.049 A 
ATOM      8  C   UNL     1       7.426  -5.022   1.106  0.00  0.00    +0.020 A 
ATOM      9  C   UNL     1       6.130  -4.813   1.508  0.00  0.00    +0.041 A 
ATOM     10  S   UNL     1       5.051  -3.404   1.593  0.00  0.00    -0.052 S 
ATOM     11  C   UNL     1       9.385  -6.542   0.735  0.00  0.00    +0.044 C 
ATOM     12  C   UNL     1       5.078  -8.305   2.553  0.00  0.00    +0.046 C 
ATOM     13  C   UNL     1       1.424  -4.548   3.073  0.00  0.00    +0.255 C 
ATOM     14  O   UNL     1       1.679  -5.711   3.316  0.00  0.00    -0.270 OA
ENDROOT
BRANCH  13  15
ATOM     15  C   UNL     1       0.067  -4.023   3.318  0.00  0.00    +0.071 A 
ATOM     16  C   UNL     1      -0.133  -3.012   4.263  0.00  0.00    +0.064 A 
ATOM     17  C   UNL     1      -1.405  -2.524   4.488  0.00  0.00    +0.162 A 
ATOM     18  C   UNL     1      -2.486  -3.040   3.774  0.00  0.00    +0.164 A 
ATOM     19  C   UNL     1      -2.287  -4.043   2.836  0.00  0.00    +0.082 A 
ATOM     20  C   UNL     1      -1.020  -4.530   2.602  0.00  0.00    +0.142 A 
BRANCH  20  21
ATOM     21  N   UNL     1      -0.810  -5.596   1.596  0.00  0.00    +0.057 N 
ATOM     22  O   UNL     1      -1.743  -6.005   0.945  0.00  0.00    -0.126 OA
ATOM     23  O   UNL     1       0.294  -6.058   1.426  0.00  0.00    -0.126 OA
ENDBRANCH  20  21
BRANCH  18  24
ATOM     24  O   UNL     1      -3.737  -2.559   3.996  0.00  0.00    -0.491 OA
ATOM     25  C   UNL     1      -4.798  -3.132   3.230  0.00  0.00    +0.277 C 
ENDBRANCH  18  24
BRANCH  17  26
ATOM     26  O   UNL     1      -1.604  -1.541   5.407  0.00  0.00    -0.491 OA
ATOM     27  C   UNL     1      -0.441  -0.984   6.022  0.00  0.00    +0.277 C 
ENDBRANCH  17  26
ENDBRANCH  13  15
BRANCH   1  28
ATOM     28  C   UNL     1       2.106  -2.311   2.388  0.00  0.00    +0.097 C 
BRANCH  28  29
ATOM     29  C   UNL     1       1.429  -2.100   1.032  0.00  0.00    -0.059 C 
BRANCH  29  30
ATOM     30  N   UNL     1       1.034  -0.692   0.896  0.00  0.00    +0.380 N 
ATOM     31  H   UNL     1       0.466  -0.424   1.686  0.00  0.00    -0.082 HD
BRANCH  30  33
ATOM     32  C   UNL     1       1.825   1.625   0.831  0.00  0.00    -0.017 C 
ATOM     33  C   UNL     1       2.236   0.151   0.848  0.00  0.00    -0.082 C 
ENDBRANCH  30  33
BRANCH  30  34
ATOM     34  C   UNL     1       0.264  -0.518  -0.343  0.00  0.00    -0.082 C 
ATOM     35  C   UNL     1      -1.065  -1.268  -0.227  0.00  0.00    -0.017 C 
ENDBRANCH  30  34
ENDBRANCH  29  30
ENDBRANCH  28  29
ENDBRANCH   1  28
TORSDOF 9
