REMARK  Name = ZINC12190723
REMARK  10 active torsions:
REMARK  status: ('A' for Active; 'I' for Inactive)
REMARK    1  A    between atoms: C_1  and  N_73
REMARK    2  A    between atoms: C_2  and  C_3
REMARK    3  A    between atoms: C_2  and  N_73
REMARK    4  A    between atoms: C_7  and  O_9
REMARK    5  A    between atoms: O_9  and  C_10
REMARK    6  A    between atoms: C_10  and  C_11
REMARK    7  A    between atoms: C_18  and  C_20
REMARK    8  A    between atoms: C_21  and  C_22
REMARK    9  A    between atoms: C_29  and  C_30
REMARK   10  A    between atoms: C_29  and  N_73
REMARK                            x       y       z     vdW  Elec       q    Type
REMARK                         _______ _______ _______ _____ _____    ______ ____
ROOT
ATOM      1  C   UNL     1      -1.222   1.756  -0.013  0.00  0.00    -0.060 A 
ATOM      2  C   UNL     1      -1.240   3.138   0.000  0.00  0.00    +0.002 A 
ATOM      3  C   UNL     1      -0.054   3.848  -0.002  0.00  0.00    +0.004 A 
ATOM      4  C   UNL     1       1.154   3.177  -0.012  0.00  0.00    +0.045 A 
ATOM      5  C   UNL     1       1.175   1.790  -0.020  0.00  0.00    +0.121 A 
ATOM      6  C   UNL     1      -0.017   1.080  -0.018  0.00  0.00    +0.047 A 
ENDROOT
BRANCH   1   7
ATOM      7  C   UNL     1      -2.517   0.986  -0.017  0.00  0.00    -0.043 C 
BRANCH   7   9
ATOM      8  C   UNL     1      -3.278   1.979   2.056  0.00  0.00    -0.095 C 
ATOM      9  N   UNL     1      -2.916   0.715   1.380  0.00  0.00    +0.383 N 
ATOM     10  H   UNL     1      -2.125   0.287   1.876  0.00  0.00    -0.081 HD
BRANCH   9  11
ATOM     11  C   UNL     1      -4.061  -0.218   1.408  0.00  0.00    -0.043 C 
BRANCH  11  12
ATOM     12  C   UNL     1      -4.305  -0.647   2.832  0.00  0.00    -0.063 A 
ATOM     13  C   UNL     1      -5.187   0.080   3.628  0.00  0.00    +0.004 A 
ATOM     14  C   UNL     1      -5.430  -0.280   4.917  0.00  0.00    +0.028 A 
ATOM     15  C   UNL     1      -4.783  -1.404   5.461  0.00  0.00    +0.071 A 
ATOM     16  C   UNL     1      -3.886  -2.142   4.650  0.00  0.00    +0.001 A 
ATOM     17  C   UNL     1      -3.664  -1.744   3.321  0.00  0.00    +0.011 A 
ATOM     18  C   UNL     1      -3.240  -3.267   5.196  0.00  0.00    +0.011 A 
ATOM     19  C   UNL     1      -3.508  -3.597   6.494  0.00  0.00    +0.020 A 
ATOM     20  C   UNL     1      -4.401  -2.828   7.237  0.00  0.00    +0.111 A 
ATOM     21  N   UNL     1      -5.002  -1.782   6.724  0.00  0.00    -0.255 NA
ENDBRANCH  11  12
ENDBRANCH   9  11
ENDBRANCH   7   9
ENDBRANCH   1   7
BRANCH   5  22
ATOM     22  O   UNL     1       2.361   1.127  -0.029  0.00  0.00    -0.492 OA
BRANCH  22  23
ATOM     23  C   UNL     1       3.549   1.923  -0.031  0.00  0.00    +0.234 C 
BRANCH  23  24
ATOM     24  C   UNL     1       4.775   1.008  -0.042  0.00  0.00    +0.044 C 
ATOM     25  C   UNL     1       6.044   1.854   0.082  0.00  0.00    +0.010 C 
ATOM     26  C   UNL     1       7.270   0.938   0.104  0.00  0.00    +0.019 C 
ATOM     27  C   UNL     1       7.339   0.152  -1.209  0.00  0.00    +0.108 C 
ATOM     28  N   UNL     1       6.064  -0.550  -1.408  0.00  0.00    -0.298 N 
ATOM     29  C   UNL     1       4.816   0.223  -1.357  0.00  0.00    +0.115 C 
ATOM     30  C   UNL     1       6.040  -1.879  -1.632  0.00  0.00    +0.239 C 
ATOM     31  O   UNL     1       4.976  -2.466  -1.699  0.00  0.00    -0.271 OA
BRANCH  30  32
ATOM     32  C   UNL     1       7.294  -2.617  -1.794  0.00  0.00    +0.068 C 
ATOM     33  C   UNL     1       7.269  -3.926  -2.117  0.00  0.00    +0.013 C 
BRANCH  33  34
ATOM     34  C   UNL     1       8.530  -4.668  -2.280  0.00  0.00    -0.022 A 
ATOM     35  C   UNL     1       9.756  -4.017  -2.105  0.00  0.00    +0.008 A 
ATOM     36  C   UNL     1      10.933  -4.719  -2.255  0.00  0.00    +0.003 A 
ATOM     37  C   UNL     1      10.906  -6.062  -2.587  0.00  0.00    +0.038 A 
ATOM     38  C   UNL     1       9.696  -6.714  -2.766  0.00  0.00    +0.124 A 
ATOM     39  C   UNL     1       8.508  -6.025  -2.615  0.00  0.00    +0.046 A 
ATOM     40  F   UNL     1       9.678  -8.025  -3.090  0.00  0.00    -0.205 F 
ENDBRANCH  33  34
ENDBRANCH  30  32
ENDBRANCH  23  24
ENDBRANCH  22  23
ENDBRANCH   5  22
TORSDOF 9
