REMARK  Name = ZINC00597147
REMARK  11 active torsions:
REMARK  status: ('A' for Active; 'I' for Inactive)
REMARK    1  A    between atoms: C_1  and  C_2
REMARK    2  A    between atoms: C_2  and  O_3
REMARK    3  A    between atoms: O_3  and  C_4
REMARK    4  A    between atoms: C_4  and  C_6
REMARK    5  A    between atoms: C_7  and  C_26
REMARK    6  A    between atoms: C_9  and  C_25
REMARK    7  A    between atoms: C_10  and  C_23
REMARK    8  A    between atoms: C_11  and  C_13
REMARK    9  A    between atoms: C_18  and  C_19
REMARK   10  A    between atoms: C_26  and  S_27
REMARK   11  A    between atoms: S_27  and  C_30
REMARK                            x       y       z     vdW  Elec       q    Type
REMARK                         _______ _______ _______ _____ _____    ______ ____
ROOT
ATOM      1  C   UNL     1      -2.795  -2.410   0.126  0.00  0.00    +0.067 C 
ATOM      2  C   UNL     1      -2.940  -3.730  -0.087  0.00  0.00    +0.040 C 
ATOM      3  N   UNL     1      -4.183  -4.288  -0.201  0.00  0.00    -0.319 N 
ATOM      4  C   UNL     1      -5.274  -3.499  -0.462  0.00  0.00    +0.019 C 
ATOM      5  C   UNL     1      -5.225  -2.172  -0.265  0.00  0.00    +0.058 C 
ATOM      6  C   UNL     1      -3.985  -1.503   0.261  0.00  0.00    +0.100 C 
ATOM      7  C   UNL     1      -6.543  -4.128  -0.976  0.00  0.00    +0.061 C 
ATOM      8  H   UNL     1      -4.293  -5.247  -0.098  0.00  0.00    +0.152 HD
ENDROOT
BRANCH   6   9
ATOM      9  C   UNL     1      -4.181  -1.154   1.714  0.00  0.00    -0.023 A 
ATOM     10  C   UNL     1      -4.407  -2.155   2.640  0.00  0.00    +0.005 A 
ATOM     11  C   UNL     1      -4.586  -1.836   3.973  0.00  0.00    +0.000 A 
ATOM     12  C   UNL     1      -4.540  -0.515   4.379  0.00  0.00    +0.001 A 
ATOM     13  C   UNL     1      -4.313   0.486   3.453  0.00  0.00    +0.012 A 
ATOM     14  C   UNL     1      -4.130   0.165   2.121  0.00  0.00    +0.059 A 
BRANCH  14  15
ATOM     15  C   UNL     1      -3.877   1.256   1.112  0.00  0.00    +0.418 C 
ATOM     16  F   UNL     1      -3.870   2.497   1.758  0.00  0.00    -0.166 F 
ATOM     17  F   UNL     1      -2.639   1.044   0.495  0.00  0.00    -0.166 F 
ATOM     18  F   UNL     1      -4.888   1.240   0.145  0.00  0.00    -0.166 F 
ENDBRANCH  14  15
ENDBRANCH   6   9
BRANCH   1  19
ATOM     19  C   UNL     1      -1.495  -1.865   0.230  0.00  0.00    +0.338 C 
ATOM     20  O   UNL     1      -1.028  -1.611   1.325  0.00  0.00    -0.245 OA
BRANCH  19  21
ATOM     21  O   UNL     1      -0.772  -1.627  -0.884  0.00  0.00    -0.462 OA
BRANCH  21  23
ATOM     22  C   UNL     1       1.196  -0.876  -2.069  0.00  0.00    +0.048 C 
ATOM     23  C   UNL     1       0.534  -1.075  -0.704  0.00  0.00    +0.229 C 
ENDBRANCH  21  23
ENDBRANCH  19  21
ENDBRANCH   1  19
BRANCH   5  24
ATOM     24  C   UNL     1      -6.380  -1.378  -0.557  0.00  0.00    +0.097 C 
ATOM     25  N   UNL     1      -7.296  -0.748  -0.788  0.00  0.00    -0.191 NA
ENDBRANCH   5  24
BRANCH   2  26
ATOM     26  C   UNL     1      -1.717  -4.604  -0.200  0.00  0.00    +0.222 C 
BRANCH  26  27
ATOM     27  S   UNL     1      -1.512  -5.558   1.329  0.00  0.00    +0.002 S 
ATOM     28  O   UNL     1      -1.179  -4.692   2.405  0.00  0.00    -0.169 OA
ATOM     29  O   UNL     1      -2.563  -6.505   1.460  0.00  0.00    -0.169 OA
BRANCH  27  30
ATOM     30  C   UNL     1      -0.064  -6.527   1.067  0.00  0.00    +0.091 A 
ATOM     31  C   UNL     1      -0.148  -7.790   0.500  0.00  0.00    +0.046 A 
ATOM     32  C   UNL     1       1.009  -8.521   0.309  0.00  0.00    +0.112 A 
ATOM     33  N   UNL     1       2.182  -8.031   0.660  0.00  0.00    -0.263 NA
ATOM     34  C   UNL     1       2.300  -6.834   1.202  0.00  0.00    +0.112 A 
ATOM     35  C   UNL     1       1.187  -6.043   1.417  0.00  0.00    +0.046 A 
ENDBRANCH  27  30
ENDBRANCH  26  27
ENDBRANCH   2  26
TORSDOF 9
