REMARK  Name = ZINC13499504
REMARK  17 active torsions:
REMARK  status: ('A' for Active; 'I' for Inactive)
REMARK    1  A    between atoms: C_1  and  C_2
REMARK    2  A    between atoms: C_2  and  C_3
REMARK    3  A    between atoms: C_3  and  C_4
REMARK    4  A    between atoms: C_4  and  C_6
REMARK    5  A    between atoms: C_4  and  N_68
REMARK    6  A    between atoms: N_10  and  C_11
REMARK    7  A    between atoms: C_11  and  C_12
REMARK    8  A    between atoms: C_11  and  C_13
REMARK    9  A    between atoms: C_11  and  C_14
REMARK   10  A    between atoms: C_14  and  C_15
REMARK   11  A    between atoms: C_16  and  C_17
REMARK   12  A    between atoms: C_16  and  N_68
REMARK   13  A    between atoms: C_17  and  O_18
REMARK   14  A    between atoms: C_19  and  C_20
REMARK   15  A    between atoms: C_19  and  N_68
REMARK   16  A    between atoms: C_24  and  C_33
REMARK   17  A    between atoms: C_25  and  C_32
REMARK                            x       y       z     vdW  Elec       q    Type
REMARK                         _______ _______ _______ _____ _____    ______ ____
ROOT
ATOM      1  N   UNL     1       4.142  -0.124  -1.061  0.00  0.00    +0.391 N 
ATOM      2  H   UNL     1       4.173  -1.025  -0.570  0.00  0.00    -0.080 HD
ENDROOT
BRANCH   1   3
ATOM      3  C   UNL     1       2.730   0.270  -1.253  0.00  0.00    +0.003 C 
BRANCH   3   4
ATOM      4  C   UNL     1       1.919  -0.968  -1.538  0.00  0.00    +0.139 A 
ATOM      5  N   UNL     1       2.263  -1.967  -2.314  0.00  0.00    -0.115 NA
ATOM      6  N   UNL     1       1.304  -2.828  -2.302  0.00  0.00    -0.023 NA
ATOM      7  N   UNL     1       0.361  -2.406  -1.534  0.00  0.00    -0.043 NA
ATOM      8  N   UNL     1       0.704  -1.264  -1.042  0.00  0.00    -0.225 N 
BRANCH   8   9
ATOM      9  C   UNL     1      -0.084  -0.442  -0.120  0.00  0.00    +0.061 C 
ATOM     10  C   UNL     1      -0.237   0.967  -0.698  0.00  0.00    +0.036 C 
ATOM     11  C   UNL     1       0.628  -0.365   1.231  0.00  0.00    +0.036 C 
BRANCH   9  12
ATOM     12  C   UNL     1      -1.467  -1.069   0.067  0.00  0.00    +0.026 C 
ATOM     13  C   UNL     1      -2.291  -0.210   1.029  0.00  0.00    +0.006 C 
ENDBRANCH   9  12
ENDBRANCH   8   9
ENDBRANCH   3   4
BRANCH   3  14
ATOM     14  C   UNL     1       2.602   1.245  -2.425  0.00  0.00    -0.008 C 
BRANCH  14  16
ATOM     15  C   UNL     1       3.111   3.563  -3.206  0.00  0.00    +0.004 C 
ATOM     16  C   UNL     1       3.361   2.533  -2.103  0.00  0.00    -0.005 C 
ENDBRANCH  14  16
ENDBRANCH   3  14
ENDBRANCH   1   3
BRANCH   1  17
ATOM     17  C   UNL     1       4.809  -0.267  -2.372  0.00  0.00    -0.049 C 
BRANCH  17  18
ATOM     18  C   UNL     1       6.121  -1.029  -2.175  0.00  0.00    +0.137 C 
BRANCH  18  19
ATOM     19  O   UNL     1       5.839  -2.354  -1.720  0.00  0.00    -0.397 OA
ATOM     20  H   UNL     1       6.627  -2.895  -1.573  0.00  0.00    +0.209 HD
ENDBRANCH  18  19
ENDBRANCH  17  18
ENDBRANCH   1  17
BRANCH   1  21
ATOM     21  C   UNL     1       4.843   0.891  -0.246  0.00  0.00    -0.036 C 
BRANCH  21  22
ATOM     22  C   UNL     1       4.516   0.653   1.206  0.00  0.00    +0.001 A 
ATOM     23  C   UNL     1       5.329  -0.126   1.962  0.00  0.00    +0.017 A 
ATOM     24  C   UNL     1       4.983  -0.337   3.369  0.00  0.00    -0.001 A 
ATOM     25  C   UNL     1       5.783  -1.129   4.199  0.00  0.00    +0.013 A 
ATOM     26  C   UNL     1       5.433  -1.307   5.508  0.00  0.00    -0.047 A 
ATOM     27  C   UNL     1       4.291  -0.708   6.021  0.00  0.00    -0.046 A 
ATOM     28  C   UNL     1       3.488   0.077   5.222  0.00  0.00    +0.030 A 
ATOM     29  C   UNL     1       3.825   0.272   3.886  0.00  0.00    +0.049 A 
ATOM     30  N   UNL     1       3.040   1.053   3.064  0.00  0.00    -0.322 N 
ATOM     31  H   UNL     1       2.242   1.472   3.422  0.00  0.00    +0.169 HD
ATOM     32  C   UNL     1       3.368   1.246   1.774  0.00  0.00    +0.251 A 
ATOM     33  O   UNL     1       2.654   1.946   1.078  0.00  0.00    -0.268 OA
ATOM     34  C   UNL     1       3.924  -0.919   7.468  0.00  0.00    +0.044 C 
ATOM     35  C   UNL     1       6.295  -2.161   6.402  0.00  0.00    +0.044 C 
ENDBRANCH  21  22
ENDBRANCH   1  21
TORSDOF 11
