REMARK  Name = ZINC35636239
REMARK  11 active torsions:
REMARK  status: ('A' for Active; 'I' for Inactive)
REMARK    1  A    between atoms: C_1  and  C_2
REMARK    2  A    between atoms: C_2  and  N_3
REMARK    3  A    between atoms: C_6  and  C_11
REMARK    4  A    between atoms: C_15  and  O_17
REMARK    5  A    between atoms: O_17  and  C_18
REMARK    6  A    between atoms: N_26  and  C_28
REMARK    7  A    between atoms: C_28  and  C_30
REMARK    8  A    between atoms: C_28  and  C_34
REMARK    9  A    between atoms: C_30  and  C_31
REMARK   10  A    between atoms: C_31  and  C_32
REMARK   11  A    between atoms: C_31  and  C_33
REMARK                            x       y       z     vdW  Elec       q    Type
REMARK                         _______ _______ _______ _____ _____    ______ ____
ROOT
ATOM      1  N   UNL     1      -2.412  -1.010  -0.585  0.00  0.00    -0.257 N 
ATOM      2  C   UNL     1      -2.816  -1.439   0.647  0.00  0.00    +0.042 C 
ATOM      3  C   UNL     1      -3.925  -2.191   0.796  0.00  0.00    +0.058 C 
ATOM      4  C   UNL     1      -4.709  -2.545  -0.452  0.00  0.00    +0.142 C 
ATOM      5  N   UNL     1      -4.191  -2.034  -1.732  0.00  0.00    -0.288 N 
ATOM      6  C   UNL     1      -3.068  -1.288  -1.719  0.00  0.00    +0.307 C 
ATOM      7  O   UNL     1      -2.635  -0.859  -2.770  0.00  0.00    -0.252 OA
ATOM      8  C   UNL     1      -4.127  -2.504   2.156  0.00  0.00    +0.247 C 
ATOM      9  O   UNL     1      -5.053  -3.172   2.579  0.00  0.00    -0.270 OA
ATOM     10  N   UNL     1      -3.162  -1.968   2.926  0.00  0.00    -0.281 N 
ATOM     11  C   UNL     1      -2.245  -1.244   2.034  0.00  0.00    +0.160 C 
ATOM     12  H   UNL     1      -4.649  -2.227  -2.565  0.00  0.00    +0.151 HD
ENDROOT
BRANCH   4  13
ATOM     13  C   UNL     1      -4.779  -4.048  -0.546  0.00  0.00    -0.019 A 
ATOM     14  C   UNL     1      -3.700  -4.760  -1.034  0.00  0.00    +0.006 A 
ATOM     15  C   UNL     1      -3.761  -6.139  -1.121  0.00  0.00    +0.004 A 
ATOM     16  C   UNL     1      -4.901  -6.808  -0.721  0.00  0.00    +0.046 A 
ATOM     17  C   UNL     1      -5.986  -6.095  -0.231  0.00  0.00    +0.129 A 
ATOM     18  C   UNL     1      -5.920  -4.712  -0.139  0.00  0.00    +0.052 A 
BRANCH  17  19
ATOM     19  O   UNL     1      -7.109  -6.751   0.163  0.00  0.00    -0.456 OA
BRANCH  19  20
ATOM     20  C   UNL     1      -8.227  -6.616  -0.598  0.00  0.00    +0.128 A 
ATOM     21  C   UNL     1      -8.174  -5.910  -1.791  0.00  0.00    +0.046 A 
ATOM     22  C   UNL     1      -9.311  -5.775  -2.563  0.00  0.00    +0.004 A 
ATOM     23  C   UNL     1     -10.502  -6.342  -2.148  0.00  0.00    +0.000 A 
ATOM     24  C   UNL     1     -10.557  -7.046  -0.959  0.00  0.00    +0.004 A 
ATOM     25  C   UNL     1      -9.421  -7.190  -0.186  0.00  0.00    +0.046 A 
ENDBRANCH  19  20
ENDBRANCH  17  19
ENDBRANCH   4  13
BRANCH   1  27
ATOM     26  C   UNL     1      -1.564   1.284  -0.536  0.00  0.00    +0.025 C 
ATOM     27  C   UNL     1      -1.197  -0.196  -0.670  0.00  0.00    +0.111 C 
ENDBRANCH   1  27
BRANCH  10  28
ATOM     28  C   UNL     1      -3.048  -2.084   4.382  0.00  0.00    +0.163 C 
BRANCH  28  29
ATOM     29  C   UNL     1      -2.926  -3.538   4.762  0.00  0.00    +0.236 C 
ATOM     30  O   UNL     1      -3.371  -4.395   4.029  0.00  0.00    -0.274 OA
ATOM     31  N   UNL     1      -2.322  -3.884   5.916  0.00  0.00    -0.300 N 
ATOM     32  C   UNL     1      -1.838  -2.950   6.944  0.00  0.00    +0.108 C 
ATOM     33  C   UNL     1      -1.199  -3.795   8.066  0.00  0.00    +0.020 C 
ATOM     34  C   UNL     1      -0.852  -5.125   7.345  0.00  0.00    +0.020 C 
ATOM     35  C   UNL     1      -2.042  -5.262   6.360  0.00  0.00    +0.108 C 
ENDBRANCH  28  29
BRANCH  28  36
ATOM     36  C   UNL     1      -4.293  -1.488   5.040  0.00  0.00    +0.035 C 
BRANCH  36  37
ATOM     37  C   UNL     1      -4.342   0.017   4.769  0.00  0.00    -0.015 C 
ATOM     38  C   UNL     1      -5.649   0.592   5.320  0.00  0.00    +0.007 C 
ATOM     39  C   UNL     1      -3.156   0.698   5.455  0.00  0.00    +0.007 C 
ENDBRANCH  36  37
ENDBRANCH  28  36
ENDBRANCH  10  28
TORSDOF 8
