REMARK  Name = ZINC13844395
REMARK  7 active torsions:
REMARK  status: ('A' for Active; 'I' for Inactive)
REMARK    1  A    between atoms: C_1  and  C_2
REMARK    2  A    between atoms: C_4  and  C_8
REMARK    3  A    between atoms: N_10  and  N_11
REMARK    4  A    between atoms: C_12  and  C_13
REMARK    5  A    between atoms: C_14  and  O_23
REMARK    6  A    between atoms: C_15  and  O_21
REMARK    7  A    between atoms: O_21  and  C_22
REMARK                            x       y       z     vdW  Elec       q    Type
REMARK                         _______ _______ _______ _____ _____    ______ ____
ROOT
ATOM      1  N   UNL     1       0.073  -5.732  -1.583  0.00  0.00    -0.187 NA
ATOM      2  C   UNL     1       0.091  -6.885  -0.988  0.00  0.00    +0.143 C 
ENDROOT
BRANCH   2   3
ATOM      3  C   UNL     1       0.104  -8.125  -1.784  0.00  0.00    +0.055 A 
ATOM      4  C   UNL     1       0.118  -9.371  -1.146  0.00  0.00    +0.168 A 
ATOM      5  C   UNL     1       0.130 -10.534  -1.906  0.00  0.00    +0.163 A 
ATOM      6  C   UNL     1       0.128 -10.459  -3.290  0.00  0.00    +0.065 A 
ATOM      7  C   UNL     1       0.115  -9.227  -3.923  0.00  0.00    +0.036 A 
ATOM      8  C   UNL     1       0.097  -8.063  -3.181  0.00  0.00    +0.044 A 
ATOM      9 BR   UNL     1       0.071  -6.385  -4.053  0.00  0.00    -0.048 Br
ATOM     10 BR   UNL     1       0.112  -9.140  -5.812  0.00  0.00    -0.049 Br
BRANCH   5  11
ATOM     11  O   UNL     1       0.144 -11.748  -1.292  0.00  0.00    -0.491 OA
ATOM     12  C   UNL     1       0.156 -12.902  -2.135  0.00  0.00    +0.277 C 
ENDBRANCH   5  11
BRANCH   4  13
ATOM     13  O   UNL     1       0.120  -9.443   0.211  0.00  0.00    -0.503 OA
ATOM     14  H   UNL     1      -0.762  -9.473   0.605  0.00  0.00    +0.292 HD
ENDBRANCH   4  13
ENDBRANCH   2   3
BRANCH   1  17
ATOM     15  C   UNL     1       0.041  -3.355  -1.444  0.00  0.00    +0.281 C 
ATOM     16  O   UNL     1       0.035  -3.298  -2.659  0.00  0.00    -0.267 OA
ATOM     17  N   UNL     1       0.060  -4.553  -0.826  0.00  0.00    -0.202 N 
ATOM     18  H   UNL     1       0.065  -4.599   0.143  0.00  0.00    +0.178 HD
BRANCH  15  22
ATOM     19  C   UNL     1      -0.018   1.503   0.010  0.00  0.00    +0.067 C 
ATOM     20  C   UNL     1       0.002  -0.004   0.002  0.00  0.00    +0.060 A 
ATOM     21  C   UNL     1       0.008  -0.820  -1.131  0.00  0.00    +0.057 A 
ATOM     22  C   UNL     1       0.028  -2.118  -0.649  0.00  0.00    +0.122 A 
ATOM     23  N   UNL     1       0.033  -2.018   0.714  0.00  0.00    -0.272 N 
ATOM     24  H   UNL     1       0.046  -2.768   1.329  0.00  0.00    +0.189 HD
ATOM     25  N   UNL     1       0.023  -0.780   1.056  0.00  0.00    -0.178 NA
ENDBRANCH  15  22
ENDBRANCH   1  17
TORSDOF 5
