REMARK  Name = ZINC63294401
REMARK  8 active torsions:
REMARK  status: ('A' for Active; 'I' for Inactive)
REMARK    1  A    between atoms: C_1  and  C_2
REMARK    2  A    between atoms: C_4  and  C_13
REMARK    3  A    between atoms: C_13  and  C_14
REMARK    4  A    between atoms: C_14  and  N_15
REMARK    5  A    between atoms: C_16  and  C_18
REMARK    6  A    between atoms: C_24  and  C_26
REMARK    7  A    between atoms: C_26  and  C_27
REMARK    8  A    between atoms: C_26  and  C_33
REMARK                            x       y       z     vdW  Elec       q    Type
REMARK                         _______ _______ _______ _____ _____    ______ ____
ROOT
ATOM      1  C   UNL     1       0.773  -1.000  -7.454  0.00  0.00    +0.078 C 
ATOM      2  C   UNL     1      -0.556  -1.642  -7.857  0.00  0.00    +0.032 C 
ATOM      3  C   UNL     1      -0.807  -1.393  -9.348  0.00  0.00    +0.108 C 
ATOM      4  N   UNL     1       0.353  -1.876 -10.110  0.00  0.00    -0.301 N 
ATOM      5  C   UNL     1       1.690  -1.391  -9.744  0.00  0.00    +0.108 C 
ATOM      6  C   UNL     1       1.913  -1.640  -8.249  0.00  0.00    +0.032 C 
ATOM      7  C   UNL     1       0.193  -2.748 -11.125  0.00  0.00    +0.227 C 
ATOM      8  O   UNL     1      -0.917  -3.141 -11.418  0.00  0.00    -0.275 OA
ENDROOT
BRANCH   1  10
ATOM      9  N   UNL     1       0.125  -0.734  -5.081  0.00  0.00    -0.315 N 
ATOM     10  C   UNL     1       1.007  -1.214  -5.980  0.00  0.00    +0.216 C 
ATOM     11  O   UNL     1       1.988  -1.819  -5.604  0.00  0.00    -0.276 OA
ATOM     12  H   UNL     1      -0.660  -0.250  -5.383  0.00  0.00    +0.149 HD
BRANCH   9  13
ATOM     13  C   UNL     1       0.352  -0.942  -3.649  0.00  0.00    +0.108 C 
BRANCH  13  14
ATOM     14  C   UNL     1      -0.787  -0.302  -2.854  0.00  0.00    +0.052 C 
BRANCH  14  17
ATOM     15  C   UNL     1      -1.539   1.477  -0.250  0.00  0.00    +0.035 C 
ATOM     16  C   UNL     1      -1.434  -0.049  -0.243  0.00  0.00    +0.103 C 
ATOM     17  C   UNL     1      -0.553  -0.516  -1.380  0.00  0.00    -0.037 C 
ATOM     18  C   UNL     1       0.485  -1.166  -0.808  0.00  0.00    +0.002 A 
ATOM     19  C   UNL     1       1.664  -1.841  -1.365  0.00  0.00    +0.048 A 
ATOM     20  C   UNL     1       2.552  -2.415  -0.519  0.00  0.00    +0.124 A 
ATOM     21  C   UNL     1       2.374  -2.380   0.873  0.00  0.00    +0.040 A 
ATOM     22  C   UNL     1       1.317  -1.778   1.457  0.00  0.00    +0.029 A 
ATOM     23  C   UNL     1       0.321  -1.143   0.663  0.00  0.00    +0.043 A 
ATOM     24  N   UNL     1      -0.778  -0.504   0.988  0.00  0.00    -0.378 N 
ATOM     25  F   UNL     1       3.638  -3.038  -1.028  0.00  0.00    -0.205 F 
ATOM     26  H   UNL     1      -1.103  -0.357   1.890  0.00  0.00    +0.160 HD
ENDBRANCH  14  17
ENDBRANCH  13  14
ENDBRANCH   9  13
ENDBRANCH   1  10
BRANCH   7  27
ATOM     27  C   UNL     1       1.392  -3.234 -11.898  0.00  0.00    +0.135 C 
BRANCH  27  28
ATOM     28  C   UNL     1       0.944  -4.192 -12.970  0.00  0.00    -0.031 A 
ATOM     29  C   UNL     1       1.477  -5.467 -13.025  0.00  0.00    +0.005 A 
ATOM     30  C   UNL     1       1.066  -6.346 -14.009  0.00  0.00    +0.000 A 
ATOM     31  C   UNL     1       0.122  -5.951 -14.939  0.00  0.00    +0.000 A 
ATOM     32  C   UNL     1      -0.412  -4.677 -14.883  0.00  0.00    +0.000 A 
ATOM     33  C   UNL     1      -0.004  -3.799 -13.897  0.00  0.00    +0.005 A 
ENDBRANCH  27  28
BRANCH  27  34
ATOM     34  C   UNL     1       2.090  -2.059 -12.533  0.00  0.00    -0.031 A 
ATOM     35  C   UNL     1       1.362  -1.125 -13.246  0.00  0.00    +0.005 A 
ATOM     36  C   UNL     1       2.002  -0.048 -13.829  0.00  0.00    +0.000 A 
ATOM     37  C   UNL     1       3.370   0.097 -13.699  0.00  0.00    +0.000 A 
ATOM     38  C   UNL     1       4.099  -0.837 -12.984  0.00  0.00    +0.000 A 
ATOM     39  C   UNL     1       3.458  -1.912 -12.398  0.00  0.00    +0.005 A 
ENDBRANCH  27  34
ENDBRANCH   7  27
TORSDOF 7
