REMARK  Name = ZINC19816233
REMARK  6 active torsions:
REMARK  status: ('A' for Active; 'I' for Inactive)
REMARK    1  A    between atoms: C_1  and  C_2
REMARK    2  A    between atoms: C_2  and  C_3
REMARK    3  A    between atoms: C_3  and  C_4
REMARK    4  A    between atoms: C_5  and  N_16
REMARK    5  A    between atoms: C_11  and  C_13
REMARK    6  A    between atoms: C_13  and  C_14
REMARK                            x       y       z     vdW  Elec       q    Type
REMARK                         _______ _______ _______ _____ _____    ______ ____
ROOT
ATOM      1  C   UNL     1       0.000   1.080   2.488  0.00  0.00    +0.071 A 
ATOM      2  C   UNL     1      -0.354  -0.147   3.056  0.00  0.00    +0.113 A 
ATOM      3  C   UNL     1       0.330  -0.590   4.173  0.00  0.00    +0.297 A 
ATOM      4  N   UNL     1       1.321   0.194   4.687  0.00  0.00    -0.158 N 
ATOM      5  C   UNL     1       1.628   1.389   4.100  0.00  0.00    +0.257 A 
ATOM      6  N   UNL     1       0.963   1.804   3.017  0.00  0.00    -0.214 NA
ATOM      7  N   UNL     1       2.618   1.929   4.805  0.00  0.00    -0.194 NA
ATOM      8  C   UNL     1       2.945   1.124   5.808  0.00  0.00    +0.153 A 
ATOM      9  N   UNL     1       2.185   0.056   5.780  0.00  0.00    -0.146 NA
ATOM     10  O   UNL     1       0.019  -1.775   4.749  0.00  0.00    -0.264 OA
ENDROOT
BRANCH   2  11
ATOM     11  N   UNL     1      -1.386  -0.922   2.497  0.00  0.00    -0.352 N 
ATOM     12  H   UNL     1      -1.657  -1.887   2.952  0.00  0.00    +0.143 HD
ATOM     13  H   UNL     1      -1.922  -0.564   1.606  0.00  0.00    +0.143 HD
ENDBRANCH   2  11
BRANCH   8  14
ATOM     14  C   UNL     1       4.024   1.397   6.824  0.00  0.00    +0.075 C 
ATOM     15  C   UNL     1       5.352   0.826   6.323  0.00  0.00    +0.012 C 
ENDBRANCH   8  14
BRANCH   1  16
ATOM     16  C   UNL     1      -0.729   1.579   1.267  0.00  0.00    +0.057 C 
BRANCH  16  18
ATOM     17  C   UNL     1      -0.753   1.593  -1.232  0.00  0.00    +0.004 C 
ATOM     18  C   UNL     1      -0.013   1.086   0.008  0.00  0.00    +0.003 C 
ENDBRANCH  16  18
ENDBRANCH   1  16
TORSDOF 4
