REMARK  Name = ZINC16227672
REMARK  9 active torsions:
REMARK  status: ('A' for Active; 'I' for Inactive)
REMARK    1  A    between atoms: C_1  and  O_2
REMARK    2  A    between atoms: O_2  and  C_3
REMARK    3  A    between atoms: C_6  and  C_12
REMARK    4  A    between atoms: C_8  and  N_9
REMARK    5  A    between atoms: C_12  and  C_14
REMARK    6  A    between atoms: C_14  and  C_15
REMARK    7  A    between atoms: C_15  and  O_34
REMARK    8  A    between atoms: N_22  and  C_25
REMARK    9  A    between atoms: C_25  and  C_26
REMARK                            x       y       z     vdW  Elec       q    Type
REMARK                         _______ _______ _______ _____ _____    ______ ____
ROOT
ATOM      1  C   UNL     1       0.977   3.736   0.013  0.00  0.00    +0.175 C 
ATOM      2  C   UNL     1       2.261   4.533   0.005  0.00  0.00    +0.015 A 
ATOM      3  C   UNL     1       3.303   4.620  -0.891  0.00  0.00    +0.009 A 
ATOM      4  C   UNL     1       4.374   5.456  -0.625  0.00  0.00    +0.000 A 
ATOM      5  C   UNL     1       4.391   6.201   0.540  0.00  0.00    +0.002 A 
ATOM      6  C   UNL     1       3.349   6.115   1.439  0.00  0.00    +0.024 A 
ATOM      7  C   UNL     1       2.268   5.275   1.179  0.00  0.00    +0.043 A 
ATOM      8  N   UNL     1       1.112   5.019   1.918  0.00  0.00    -0.264 N 
ATOM      9  C   UNL     1       0.305   4.133   1.310  0.00  0.00    +0.257 C 
ATOM     10  O   UNL     1      -0.760   3.728   1.723  0.00  0.00    -0.272 OA
ENDROOT
BRANCH   1  11
ATOM     11  O   UNL     1       0.161   4.090  -1.105  0.00  0.00    -0.374 OA
ATOM     12  H   UNL     1      -0.689   3.630  -1.134  0.00  0.00    +0.211 HD
ENDBRANCH   1  11
BRANCH   1  13
ATOM     13  C   UNL     1       1.277   2.236   0.002  0.00  0.00    +0.129 C 
BRANCH  13  14
ATOM     14  C   UNL     1      -0.018   1.464   0.010  0.00  0.00    +0.167 C 
ATOM     15  O   UNL     1      -1.076   2.057   0.018  0.00  0.00    -0.292 OA
BRANCH  14  19
ATOM     16  C   UNL     1       0.046  -2.770  -0.013  0.00  0.00    +0.150 A 
ATOM     17  C   UNL     1       1.239  -2.056  -0.021  0.00  0.00    +0.048 A 
ATOM     18  C   UNL     1       1.223  -0.690  -0.019  0.00  0.00    +0.015 A 
ATOM     19  C   UNL     1       0.002  -0.004   0.002  0.00  0.00    +0.020 A 
ATOM     20  C   UNL     1      -1.200  -0.723   0.010  0.00  0.00    +0.047 A 
ATOM     21  C   UNL     1      -1.172  -2.099   0.002  0.00  0.00    +0.168 A 
BRANCH  21  22
ATOM     22  N   UNL     1      -2.439  -2.865   0.011  0.00  0.00    +0.060 N 
ATOM     23  O   UNL     1      -3.506  -2.277   0.024  0.00  0.00    -0.126 OA
ATOM     24  O   UNL     1      -2.415  -4.082   0.004  0.00  0.00    -0.126 OA
ENDBRANCH  21  22
BRANCH  16  26
ATOM     25  C   UNL     1       1.355  -4.753  -0.037  0.00  0.00    +0.277 C 
ATOM     26  O   UNL     1       0.070  -4.127  -0.021  0.00  0.00    -0.493 OA
ENDBRANCH  16  26
ENDBRANCH  14  19
ENDBRANCH  13  14
ENDBRANCH   1  13
BRANCH   8  27
ATOM     27  C   UNL     1       0.813   5.644   3.209  0.00  0.00    +0.149 C 
BRANCH  27  28
ATOM     28  C   UNL     1       0.047   6.922   2.982  0.00  0.00    -0.028 A 
ATOM     29  C   UNL     1       0.726   8.117   2.829  0.00  0.00    +0.007 A 
ATOM     30  C   UNL     1       0.025   9.289   2.616  0.00  0.00    +0.022 A 
ATOM     31  C   UNL     1      -1.357   9.269   2.568  0.00  0.00    +0.059 A 
ATOM     32  C   UNL     1      -2.038   8.073   2.728  0.00  0.00    +0.060 A 
ATOM     33  C   UNL     1      -1.334   6.900   2.935  0.00  0.00    +0.026 A 
ATOM     34 CL   UNL     1      -3.772   8.046   2.667  0.00  0.00    -0.082 Cl
ATOM     35 CL   UNL     1      -2.239  10.741   2.309  0.00  0.00    -0.082 Cl
ENDBRANCH  27  28
ENDBRANCH   8  27
TORSDOF 8
