REMARK  Name = ZINC21179044
REMARK  9 active torsions:
REMARK  status: ('A' for Active; 'I' for Inactive)
REMARK    1  A    between atoms: C_1  and  C_2
REMARK    2  A    between atoms: C_5  and  N_8
REMARK    3  A    between atoms: C_9  and  C_11
REMARK    4  A    between atoms: C_11  and  C_12
REMARK    5  A    between atoms: C_14  and  C_17
REMARK    6  A    between atoms: C_17  and  O_18
REMARK    7  A    between atoms: O_18  and  C_19
REMARK    8  A    between atoms: C_19  and  C_21
REMARK    9  A    between atoms: C_22  and  C_34
REMARK                            x       y       z     vdW  Elec       q    Type
REMARK                         _______ _______ _______ _____ _____    ______ ____
ROOT
ATOM      1  C   UNL     1       2.566   5.717   0.022  0.00  0.00    +0.288 C 
ENDROOT
BRANCH   1   4
ATOM      2  C   UNL     1       1.309   9.173   0.037  0.00  0.00    +0.087 A 
ATOM      3  N   UNL     1       2.109   8.131   0.037  0.00  0.00    -0.245 NA
ATOM      4  C   UNL     1       1.636   6.903   0.029  0.00  0.00    +0.086 A 
ATOM      5  C   UNL     1       0.289   6.730   0.033  0.00  0.00    +0.073 A 
ATOM      6  S   UNL     1      -0.260   8.430   0.040  0.00  0.00    -0.080 S 
BRANCH   2   7
ATOM      7  C   UNL     1       1.663  10.638   0.041  0.00  0.00    +0.159 C 
BRANCH   7   9
ATOM      8  N   UNL     1       2.088  12.420  -1.621  0.00  0.00    -0.285 N 
ATOM      9  C   UNL     1       1.778  11.131  -1.378  0.00  0.00    +0.224 C 
ATOM     10  O   UNL     1       1.590  10.368  -2.302  0.00  0.00    -0.275 OA
ATOM     11  H   UNL     1       2.183  13.129  -0.786  0.00  0.00    +0.155 HD
BRANCH   8  16
ATOM     12  C   UNL     1       2.902  14.186  -6.950  0.00  0.00    +0.044 C 
ATOM     13  C   UNL     1       2.686  13.717  -5.535  0.00  0.00    -0.050 A 
ATOM     14  C   UNL     1       1.738  12.747  -5.267  0.00  0.00    +0.005 A 
ATOM     15  C   UNL     1       1.537  12.314  -3.970  0.00  0.00    +0.023 A 
ATOM     16  C   UNL     1       2.289  12.855  -2.936  0.00  0.00    +0.033 A 
ATOM     17  C   UNL     1       3.237  13.833  -3.207  0.00  0.00    +0.023 A 
ATOM     18  C   UNL     1       3.436  14.257  -4.506  0.00  0.00    +0.005 A 
ENDBRANCH   8  16
ENDBRANCH   7   9
ENDBRANCH   2   7
ENDBRANCH   1   4
BRANCH   1  19
ATOM     19  O   UNL     1       1.788   4.491   0.020  0.00  0.00    -0.454 OA
BRANCH  19  20
ATOM     20  C   UNL     1       2.475   3.330   0.014  0.00  0.00    +0.347 C 
ATOM     21  O   UNL     1       3.692   3.343   0.011  0.00  0.00    -0.244 OA
BRANCH  20  22
ATOM     22  C   UNL     1       1.757   2.054   0.012  0.00  0.00    +0.102 A 
ATOM     23  C   UNL     1       2.268   0.789   0.007  0.00  0.00    -0.015 A 
ATOM     24  C   UNL     1       1.405  -0.309   0.005  0.00  0.00    +0.076 A 
ATOM     25  C   UNL     1       0.024  -0.007   0.010  0.00  0.00    +0.116 A 
ATOM     26  S   UNL     1      -0.005   1.768   0.016  0.00  0.00    -0.062 S 
ATOM     27  N   UNL     1      -0.895  -0.960   0.008  0.00  0.00    -0.226 NA
ATOM     28  C   UNL     1      -0.584  -2.233   0.002  0.00  0.00    +0.114 A 
ATOM     29  N   UNL     1       0.709  -2.647   0.001  0.00  0.00    -0.296 N 
ATOM     30  C   UNL     1       1.724  -1.752   0.000  0.00  0.00    +0.263 A 
ATOM     31  O   UNL     1       2.882  -2.130  -0.005  0.00  0.00    -0.267 OA
ATOM     32  C   UNL     1       0.786  -4.120   0.002  0.00  0.00    +0.127 C 
ATOM     33  C   UNL     1      -0.607  -4.610  -0.445  0.00  0.00    +0.029 C 
ATOM     34  C   UNL     1      -1.510  -3.436  -0.008  0.00  0.00    +0.076 C 
ATOM     35  C   UNL     1       3.760   0.577   0.001  0.00  0.00    +0.046 C 
ENDBRANCH  20  22
ENDBRANCH  19  20
ENDBRANCH   1  19
TORSDOF 7
