REMARK  Name = ZINC43093326
REMARK  13 active torsions:
REMARK  status: ('A' for Active; 'I' for Inactive)
REMARK    1  A    between atoms: C_1  and  C_2
REMARK    2  A    between atoms: C_2  and  C_3
REMARK    3  A    between atoms: C_3  and  C_5
REMARK    4  A    between atoms: C_3  and  N_22
REMARK    5  A    between atoms: C_5  and  C_7
REMARK    6  A    between atoms: C_5  and  N_14
REMARK    7  A    between atoms: N_14  and  C_15
REMARK    8  A    between atoms: N_14  and  C_19
REMARK    9  A    between atoms: C_15  and  C_16
REMARK   10  A    between atoms: C_16  and  C_17
REMARK   11  A    between atoms: C_17  and  O_18
REMARK   12  A    between atoms: C_19  and  C_20
REMARK   13  A    between atoms: C_19  and  C_21
REMARK                            x       y       z     vdW  Elec       q    Type
REMARK                         _______ _______ _______ _____ _____    ______ ____
ROOT
ATOM      1  C   UNL     1      -1.305  -1.235   0.056  0.00  0.00    -0.051 C 
ENDROOT
BRANCH   1   2
ATOM      2  C   UNL     1      -0.742  -1.085  -1.334  0.00  0.00    -0.048 A 
ATOM      3  C   UNL     1       0.552  -0.633  -1.511  0.00  0.00    +0.003 A 
ATOM      4  C   UNL     1       1.069  -0.496  -2.785  0.00  0.00    +0.000 A 
ATOM      5  C   UNL     1       0.292  -0.812  -3.884  0.00  0.00    +0.001 A 
ATOM      6  C   UNL     1      -1.002  -1.264  -3.709  0.00  0.00    +0.015 A 
ATOM      7  C   UNL     1      -1.518  -1.407  -2.433  0.00  0.00    +0.019 A 
ATOM      8 BR   UNL     1      -3.286  -2.033  -2.192  0.00  0.00    -0.050 Br
ENDBRANCH   1   2
BRANCH   1   9
ATOM      9  N   UNL     1      -0.294  -1.845   0.931  0.00  0.00    +0.385 N 
ATOM     10  H   UNL     1       0.567  -1.322   0.864  0.00  0.00    -0.081 HD
BRANCH   9  11
ATOM     11  C   UNL     1      -0.058  -3.233   0.513  0.00  0.00    -0.074 C 
ATOM     12  C   UNL     1      -1.392  -3.979   0.445  0.00  0.00    -0.013 C 
ATOM     13  C   UNL     1       0.605  -3.245  -0.866  0.00  0.00    -0.013 C 
ENDBRANCH   9  11
BRANCH   9  14
ATOM     14  C   UNL     1      -0.772  -1.825   2.319  0.00  0.00    -0.075 C 
BRANCH  14  15
ATOM     15  C   UNL     1       0.315  -2.381   3.241  0.00  0.00    +0.009 C 
BRANCH  15  16
ATOM     16  C   UNL     1      -0.215  -2.443   4.675  0.00  0.00    +0.154 C 
BRANCH  16  17
ATOM     17  O   UNL     1       0.801  -2.963   5.536  0.00  0.00    -0.395 OA
ATOM     18  H   UNL     1       0.534  -3.030   6.463  0.00  0.00    +0.209 HD
ENDBRANCH  16  17
ENDBRANCH  15  16
ENDBRANCH  14  15
ENDBRANCH   9  14
ENDBRANCH   1   9
BRANCH   1  19
ATOM     19  C   UNL     1      -1.688   0.142   0.602  0.00  0.00    -0.085 C 
BRANCH  19  20
ATOM     20  N   UNL     1      -2.589   0.811  -0.346  0.00  0.00    +0.379 N 
ATOM     21  H   UNL     1      -3.449   0.287  -0.420  0.00  0.00    -0.090 HD
ATOM     22  H   UNL     1      -2.791   1.743  -0.018  0.00  0.00    -0.090 HD
ATOM     23  H   UNL     1      -2.147   0.861  -1.252  0.00  0.00    -0.090 HD
ENDBRANCH  19  20
BRANCH  19  25
ATOM     24  C   UNL     1      -0.800   2.331   1.416  0.00  0.00    +0.002 C 
ATOM     25  C   UNL     1      -0.426   0.986   0.788  0.00  0.00    -0.021 C 
ENDBRANCH  19  25
ENDBRANCH   1  19
TORSDOF 10
