REMARK  Name = ZINC08646026
REMARK  14 active torsions:
REMARK  status: ('A' for Active; 'I' for Inactive)
REMARK    1  A    between atoms: C_1  and  C_2
REMARK    2  A    between atoms: C_2  and  C_3
REMARK    3  A    between atoms: C_3  and  C_4
REMARK    4  A    between atoms: C_4  and  N_5
REMARK    5  A    between atoms: C_9  and  C_34
REMARK    6  A    between atoms: C_10  and  C_33
REMARK    7  A    between atoms: C_14  and  S_15
REMARK    8  A    between atoms: S_15  and  C_16
REMARK    9  A    between atoms: C_16  and  C_18
REMARK   10  A    between atoms: C_16  and  C_19
REMARK   11  A    between atoms: N_21  and  C_22
REMARK   12  A    between atoms: C_24  and  N_30
REMARK   13  A    between atoms: C_27  and  O_28
REMARK   14  A    between atoms: O_28  and  C_29
REMARK                            x       y       z     vdW  Elec       q    Type
REMARK                         _______ _______ _______ _____ _____    ______ ____
ROOT
ATOM      1  S   UNL     1      -2.092  -0.759   1.025  0.00  0.00    -0.075 S 
ENDROOT
BRANCH   1  11
ATOM      2  N   UNL     1      -0.658   1.530   1.226  0.00  0.00    -0.287 N 
ATOM      3  C   UNL     1      -0.290   2.703   1.774  0.00  0.00    +0.263 A 
ATOM      4  O   UNL     1       0.603   3.365   1.273  0.00  0.00    -0.267 OA
ATOM      5  C   UNL     1      -0.963   3.165   2.949  0.00  0.00    +0.075 A 
ATOM      6  C   UNL     1      -0.752   4.384   3.710  0.00  0.00    -0.026 A 
ATOM      7  C   UNL     1      -1.504   4.616   4.796  0.00  0.00    -0.008 A 
ATOM      8  S   UNL     1      -2.569   3.189   4.876  0.00  0.00    -0.073 S 
ATOM      9  C   UNL     1      -1.973   2.321   3.447  0.00  0.00    +0.117 A 
ATOM     10  N   UNL     1      -2.284   1.172   2.860  0.00  0.00    -0.216 NA
ATOM     11  C   UNL     1      -1.651   0.773   1.776  0.00  0.00    +0.173 A 
ATOM     12  C   UNL     1      -1.459   5.801   5.727  0.00  0.00    +0.052 C 
ATOM     13  C   UNL     1       0.300   5.376   3.285  0.00  0.00    +0.045 C 
BRANCH   2  14
ATOM     14  C   UNL     1       0.025   1.055   0.020  0.00  0.00    +0.127 C 
BRANCH  14  15
ATOM     15  C   UNL     1      -0.711   1.571  -1.219  0.00  0.00    +0.021 C 
BRANCH  15  17
ATOM     16  C   UNL     1      -0.734   1.590  -3.717  0.00  0.00    +0.004 C 
ATOM     17  C   UNL     1       0.002   1.075  -2.478  0.00  0.00    -0.002 C 
ENDBRANCH  15  17
ENDBRANCH  14  15
ENDBRANCH   2  14
ENDBRANCH   1  11
BRANCH   1  18
ATOM     18  C   UNL     1      -3.409  -1.291   2.148  0.00  0.00    +0.137 C 
ATOM     19  C   UNL     1      -4.585  -0.317   2.053  0.00  0.00    +0.029 C 
BRANCH  18  20
ATOM     20  C   UNL     1      -3.869  -2.673   1.762  0.00  0.00    +0.230 C 
ATOM     21  O   UNL     1      -3.645  -3.099   0.649  0.00  0.00    -0.274 OA
ATOM     22  N   UNL     1      -4.530  -3.437   2.655  0.00  0.00    -0.282 N 
ATOM     23  H   UNL     1      -4.653  -3.123   3.565  0.00  0.00    +0.155 HD
BRANCH  22  24
ATOM     24  C   UNL     1      -5.040  -4.684   2.269  0.00  0.00    +0.078 A 
ATOM     25  C   UNL     1      -4.354  -5.460   1.347  0.00  0.00    +0.059 A 
ATOM     26  C   UNL     1      -4.859  -6.690   0.968  0.00  0.00    +0.128 A 
ATOM     27  C   UNL     1      -6.046  -7.149   1.507  0.00  0.00    +0.036 A 
ATOM     28  C   UNL     1      -6.736  -6.381   2.426  0.00  0.00    +0.050 A 
ATOM     29  C   UNL     1      -6.234  -5.149   2.815  0.00  0.00    +0.141 A 
BRANCH  26  30
ATOM     30  N   UNL     1      -4.126  -7.517  -0.016  0.00  0.00    +0.056 N 
ATOM     31  O   UNL     1      -3.079  -7.114  -0.492  0.00  0.00    -0.126 OA
ATOM     32  O   UNL     1      -4.569  -8.601  -0.351  0.00  0.00    -0.126 OA
ENDBRANCH  26  30
BRANCH  29  33
ATOM     33  O   UNL     1      -6.908  -4.395   3.724  0.00  0.00    -0.493 OA
ATOM     34  C   UNL     1      -8.125  -4.936   4.241  0.00  0.00    +0.277 C 
ENDBRANCH  29  33
ENDBRANCH  22  24
ENDBRANCH  18  20
ENDBRANCH   1  18
TORSDOF 9
