REMARK  Name = ZINC28963503
REMARK  13 active torsions:
REMARK  status: ('A' for Active; 'I' for Inactive)
REMARK    1  A    between atoms: C_1  and  C_2
REMARK    2  A    between atoms: C_2  and  O_3
REMARK    3  A    between atoms: O_3  and  C_4
REMARK    4  A    between atoms: C_4  and  C_6
REMARK    5  A    between atoms: C_7  and  C_29
REMARK    6  A    between atoms: C_9  and  N_11
REMARK    7  A    between atoms: C_12  and  C_14
REMARK    8  A    between atoms: C_14  and  N_15
REMARK    9  A    between atoms: N_15  and  C_16
REMARK   10  A    between atoms: N_15  and  C_17
REMARK   11  A    between atoms: C_17  and  C_18
REMARK   12  A    between atoms: N_20  and  C_21
REMARK   13  A    between atoms: C_26  and  C_27
REMARK                            x       y       z     vdW  Elec       q    Type
REMARK                         _______ _______ _______ _____ _____    ______ ____
ROOT
ATOM      1  C   UNL     1      -0.022   1.463  -0.017  0.00  0.00    +0.019 C 
ENDROOT
BRANCH   1   3
ATOM      2  N   UNL     1       1.617   3.315  -0.034  0.00  0.00    -0.282 N 
ATOM      3  C   UNL     1       1.391   1.986  -0.029  0.00  0.00    +0.201 C 
ATOM      4  O   UNL     1       2.324   1.212  -0.034  0.00  0.00    -0.278 OA
ATOM      5  H   UNL     1       0.770   4.017  -0.029  0.00  0.00    +0.155 HD
BRANCH   2   9
ATOM      6  C   UNL     1       5.547   4.266  -0.066  0.00  0.00    +0.101 A 
ATOM      7  C   UNL     1       4.692   5.362  -0.062  0.00  0.00    -0.028 A 
ATOM      8  C   UNL     1       3.348   5.108  -0.051  0.00  0.00    +0.035 A 
ATOM      9  C   UNL     1       2.919   3.797  -0.045  0.00  0.00    +0.073 A 
ATOM     10  S   UNL     1       4.402   2.899  -0.046  0.00  0.00    -0.067 S 
ATOM     11  C   UNL     1       5.225   6.771  -0.069  0.00  0.00    +0.045 C 
BRANCH   6  12
ATOM     12  C   UNL     1       6.963   4.242  -0.077  0.00  0.00    +0.346 C 
ATOM     13  O   UNL     1       7.589   5.285  -0.085  0.00  0.00    -0.244 OA
BRANCH  12  14
ATOM     14  O   UNL     1       7.617   3.062  -0.079  0.00  0.00    -0.461 OA
BRANCH  14  16
ATOM     15  C   UNL     1       9.606   1.688  -0.091  0.00  0.00    +0.048 C 
ATOM     16  C   UNL     1       9.046   3.112  -0.090  0.00  0.00    +0.229 C 
ENDBRANCH  14  16
ENDBRANCH  12  14
ENDBRANCH   6  12
ENDBRANCH   2   9
ENDBRANCH   1   3
BRANCH   1  17
ATOM     17  N   UNL     1      -0.001  -0.006  -0.014  0.00  0.00    +0.389 N 
ATOM     18  C   UNL     1       0.555  -0.527  -1.270  0.00  0.00    -0.095 C 
ATOM     19  H   UNL     1       0.655  -0.333   0.806  0.00  0.00    -0.081 HD
BRANCH  17  20
ATOM     20  C   UNL     1      -1.341  -0.552   0.235  0.00  0.00    +0.019 C 
BRANCH  20  21
ATOM     21  C   UNL     1      -1.242  -2.037   0.475  0.00  0.00    +0.201 C 
ATOM     22  O   UNL     1      -0.161  -2.586   0.442  0.00  0.00    -0.278 OA
ATOM     23  N   UNL     1      -2.355  -2.754   0.727  0.00  0.00    -0.287 N 
ATOM     24  H   UNL     1      -3.322  -2.245   0.848  0.00  0.00    +0.155 HD
BRANCH  23  25
ATOM     25  C   UNL     1      -2.280  -4.148   0.835  0.00  0.00    +0.036 A 
ATOM     26  C   UNL     1      -1.253  -4.840   0.207  0.00  0.00    +0.024 A 
ATOM     27  C   UNL     1      -1.180  -6.215   0.315  0.00  0.00    +0.017 A 
ATOM     28  C   UNL     1      -2.130  -6.902   1.050  0.00  0.00    +0.018 A 
ATOM     29  C   UNL     1      -3.154  -6.216   1.677  0.00  0.00    +0.020 A 
ATOM     30  C   UNL     1      -3.228  -4.840   1.576  0.00  0.00    -0.028 A 
ATOM     31  C   UNL     1      -4.340  -4.092   2.265  0.00  0.00    +0.046 C 
ATOM     32 BR   UNL     1      -2.028  -8.785   1.197  0.00  0.00    -0.050 Br
ENDBRANCH  23  25
ENDBRANCH  20  21
ENDBRANCH  17  20
ENDBRANCH   1  17
TORSDOF 9
