REMARK  Name = ZINC00592817
REMARK  7 active torsions:
REMARK  status: ('A' for Active; 'I' for Inactive)
REMARK    1  A    between atoms: C_1  and  S_2
REMARK    2  A    between atoms: S_2  and  N_5
REMARK    3  A    between atoms: N_5  and  C_6
REMARK    4  A    between atoms: N_5  and  C_14
REMARK    5  A    between atoms: C_17  and  C_18
REMARK    6  A    between atoms: C_17  and  C_25
REMARK    7  A    between atoms: C_17  and  N_52
REMARK                            x       y       z     vdW  Elec       q    Type
REMARK                         _______ _______ _______ _____ _____    ______ ____
ROOT
ATOM      1  C   UNL     1       0.175   1.014   0.615  0.00  0.00    +0.065 C 
ATOM      2  C   UNL     1      -0.013   1.358   2.103  0.00  0.00    -0.055 C 
ATOM      3  C   UNL     1      -1.158   1.745   0.375  0.00  0.00    -0.055 C 
ATOM      4  N   UNL     1      -0.852   2.359   1.598  0.00  0.00    +0.389 N 
ATOM      5  H   UNL     1      -0.358   3.250   1.471  0.00  0.00    -0.080 HD
ENDROOT
BRANCH   1   6
ATOM      6  N   UNL     1       1.329   1.675  -0.002  0.00  0.00    -0.208 N 
BRANCH   6   7
ATOM      7  C   UNL     1       1.600   3.015   0.283  0.00  0.00    +0.056 A 
ATOM      8  C   UNL     1       2.425   3.346   1.351  0.00  0.00    +0.063 A 
ATOM      9  C   UNL     1       2.696   4.674   1.629  0.00  0.00    +0.128 A 
ATOM     10  C   UNL     1       2.138   5.673   0.849  0.00  0.00    +0.076 A 
ATOM     11  C   UNL     1       1.311   5.346  -0.212  0.00  0.00    +0.128 A 
ATOM     12  C   UNL     1       1.041   4.019  -0.497  0.00  0.00    +0.063 A 
ATOM     13  F   UNL     1       0.768   6.323  -0.971  0.00  0.00    -0.205 F 
ATOM     14  F   UNL     1       3.502   4.996   2.664  0.00  0.00    -0.205 F 
ENDBRANCH   6   7
BRANCH   6  16
ATOM     15  C   UNL     1       1.493   0.948  -2.651  0.00  0.00    +0.218 C 
ATOM     16  S   UNL     1       2.310   0.833  -1.036  0.00  0.00    +0.043 S 
ATOM     17  O   UNL     1       3.530   1.562  -1.052  0.00  0.00    -0.155 OA
ATOM     18  O   UNL     1       2.273  -0.506  -0.562  0.00  0.00    -0.155 OA
ENDBRANCH   6  16
ENDBRANCH   1   6
BRANCH   4  19
ATOM     19  C   UNL     1      -2.083   2.587   2.459  0.00  0.00    -0.007 C 
BRANCH  19  20
ATOM     20  C   UNL     1      -1.730   3.219   3.780  0.00  0.00    -0.057 A 
ATOM     21  C   UNL     1      -0.822   4.260   3.827  0.00  0.00    +0.004 A 
ATOM     22  C   UNL     1      -0.502   4.844   5.038  0.00  0.00    +0.020 A 
ATOM     23  C   UNL     1      -1.082   4.379   6.205  0.00  0.00    +0.041 A 
ATOM     24  C   UNL     1      -1.986   3.333   6.158  0.00  0.00    +0.020 A 
ATOM     25  C   UNL     1      -2.309   2.754   4.946  0.00  0.00    +0.004 A 
ATOM     26 CL   UNL     1      -0.675   5.107   7.728  0.00  0.00    -0.084 Cl
ENDBRANCH  19  20
BRANCH  19  27
ATOM     27  C   UNL     1      -3.096   3.445   1.746  0.00  0.00    -0.057 A 
ATOM     28  C   UNL     1      -2.686   4.575   1.063  0.00  0.00    +0.004 A 
ATOM     29  C   UNL     1      -3.614   5.360   0.405  0.00  0.00    +0.020 A 
ATOM     30  C   UNL     1      -4.955   5.020   0.439  0.00  0.00    +0.041 A 
ATOM     31  C   UNL     1      -5.365   3.893   1.127  0.00  0.00    +0.020 A 
ATOM     32  C   UNL     1      -4.436   3.106   1.780  0.00  0.00    +0.004 A 
ATOM     33 CL   UNL     1      -6.122   6.009  -0.383  0.00  0.00    -0.084 Cl
ENDBRANCH  19  27
ENDBRANCH   4  19
TORSDOF 6
