REMARK  Name = ZINC38599455
REMARK  9 active torsions:
REMARK  status: ('A' for Active; 'I' for Inactive)
REMARK    1  A    between atoms: C_1  and  O_2
REMARK    2  A    between atoms: O_2  and  C_3
REMARK    3  A    between atoms: C_3  and  C_5
REMARK    4  A    between atoms: C_7  and  N_16
REMARK    5  A    between atoms: C_17  and  C_19
REMARK    6  A    between atoms: C_19  and  N_20
REMARK    7  A    between atoms: N_23  and  C_26
REMARK    8  A    between atoms: C_26  and  C_27
REMARK    9  A    between atoms: C_26  and  C_33
REMARK                            x       y       z     vdW  Elec       q    Type
REMARK                         _______ _______ _______ _____ _____    ______ ____
ROOT
ATOM      1  C   UNL     1      -4.132  -2.987   0.748  0.00  0.00    +0.180 C 
ENDROOT
BRANCH   1   2
ATOM      2  N   UNL     1      -5.212  -3.520   1.589  0.00  0.00    -0.292 NA
ATOM      3  C   UNL     1      -5.450  -2.653   2.752  0.00  0.00    +0.100 C 
ATOM      4  C   UNL     1      -6.524  -3.283   3.642  0.00  0.00    +0.100 C 
ATOM      5  N   UNL     1      -7.757  -3.466   2.863  0.00  0.00    -0.289 NA
ATOM      6  C   UNL     1      -7.518  -4.332   1.700  0.00  0.00    +0.100 C 
ATOM      7  C   UNL     1      -6.444  -3.703   0.810  0.00  0.00    +0.100 C 
BRANCH   5   8
ATOM      8  C   UNL     1      -8.837  -3.999   3.704  0.00  0.00    +0.117 C 
BRANCH   8   9
ATOM      9  C   UNL     1      -9.033  -3.102   4.899  0.00  0.00    -0.026 A 
ATOM     10  C   UNL     1      -9.074  -1.730   4.733  0.00  0.00    +0.005 A 
ATOM     11  C   UNL     1      -9.254  -0.906   5.829  0.00  0.00    +0.000 A 
ATOM     12  C   UNL     1      -9.393  -1.455   7.090  0.00  0.00    +0.000 A 
ATOM     13  C   UNL     1      -9.354  -2.827   7.256  0.00  0.00    +0.000 A 
ATOM     14  C   UNL     1      -9.178  -3.650   6.159  0.00  0.00    +0.005 A 
ENDBRANCH   8   9
BRANCH   8  15
ATOM     15  C   UNL     1     -10.114  -4.058   2.905  0.00  0.00    -0.026 A 
ATOM     16  C   UNL     1     -10.384  -3.084   1.962  0.00  0.00    +0.005 A 
ATOM     17  C   UNL     1     -11.555  -3.138   1.230  0.00  0.00    +0.000 A 
ATOM     18  C   UNL     1     -12.455  -4.166   1.439  0.00  0.00    +0.000 A 
ATOM     19  C   UNL     1     -12.184  -5.141   2.381  0.00  0.00    +0.000 A 
ATOM     20  C   UNL     1     -11.011  -5.089   3.111  0.00  0.00    +0.005 A 
ENDBRANCH   8  15
ENDBRANCH   5   8
ENDBRANCH   1   2
BRANCH   1  22
ATOM     21  N   UNL     1      -1.695  -2.603   0.929  0.00  0.00    -0.285 N 
ATOM     22  C   UNL     1      -2.830  -3.043   1.506  0.00  0.00    +0.231 C 
ATOM     23  O   UNL     1      -2.805  -3.483   2.635  0.00  0.00    -0.274 OA
ATOM     24  H   UNL     1      -1.727  -2.174   0.060  0.00  0.00    +0.155 HD
BRANCH  21  26
ATOM     25  C   UNL     1      -0.237  -3.557   2.826  0.00  0.00    +0.234 C 
ATOM     26  C   UNL     1      -0.501  -2.762   1.566  0.00  0.00    +0.053 C 
ATOM     27  C   UNL     1       0.722  -2.229   1.195  0.00  0.00    +0.019 A 
ATOM     28  C   UNL     1       1.115  -1.405   0.114  0.00  0.00    +0.031 A 
ATOM     29  C   UNL     1       2.413  -1.026  -0.006  0.00  0.00    +0.042 A 
ATOM     30  C   UNL     1       3.382  -1.431   0.918  0.00  0.00    +0.022 A 
ATOM     31  C   UNL     1       3.077  -2.221   1.976  0.00  0.00    +0.027 A 
ATOM     32  C   UNL     1       1.740  -2.658   2.169  0.00  0.00    +0.045 A 
ATOM     33  N   UNL     1       1.196  -3.415   3.102  0.00  0.00    -0.367 N 
ATOM     34 CL   UNL     1       2.881  -0.015  -1.337  0.00  0.00    -0.084 Cl
ATOM     35  H   UNL     1       1.668  -3.815   3.850  0.00  0.00    +0.161 HD
BRANCH  25  36
ATOM     36  C   UNL     1      -0.582  -5.007   2.606  0.00  0.00    +0.335 C 
ATOM     37  O   UNL     1       0.271  -5.783   2.244  0.00  0.00    -0.248 OA
BRANCH  36  39
ATOM     38  C   UNL     1      -2.093  -6.825   2.583  0.00  0.00    +0.280 C 
ATOM     39  O   UNL     1      -1.837  -5.437   2.811  0.00  0.00    -0.466 OA
ENDBRANCH  36  39
ENDBRANCH  25  36
ENDBRANCH  21  26
ENDBRANCH   1  22
TORSDOF 8
