REMARK  Name = ZINC67470761
REMARK  6 active torsions:
REMARK  status: ('A' for Active; 'I' for Inactive)
REMARK    1  A    between atoms: C_1  and  C_2
REMARK    2  A    between atoms: C_2  and  C_3
REMARK    3  A    between atoms: C_2  and  C_4
REMARK    4  A    between atoms: C_2  and  N_11
REMARK    5  A    between atoms: C_17  and  C_20
REMARK    6  A    between atoms: C_20  and  O_21
REMARK                            x       y       z     vdW  Elec       q    Type
REMARK                         _______ _______ _______ _____ _____    ______ ____
ROOT
ATOM      1  N   UNL     1       0.191  -0.427  -1.058  0.00  0.00    -0.290 N 
ATOM      2  C   UNL     1       1.397  -0.422  -1.660  0.00  0.00    +0.303 C 
ATOM      3  O   UNL     1       2.375  -0.025  -1.057  0.00  0.00    -0.253 OA
ATOM      4  N   UNL     1       1.518  -0.857  -2.929  0.00  0.00    -0.286 N 
ATOM      5  C   UNL     1       0.368  -1.438  -3.635  0.00  0.00    +0.109 C 
ATOM      6  C   UNL     1       0.767  -2.814  -4.178  0.00  0.00    +0.025 C 
ATOM      7  C   UNL     1       2.025  -2.674  -5.037  0.00  0.00    +0.017 C 
ATOM      8  C   UNL     1       3.175  -2.142  -4.178  0.00  0.00    +0.025 C 
ATOM      9  C   UNL     1       2.802  -0.754  -3.637  0.00  0.00    +0.109 C 
ATOM     10  H   UNL     1      -0.575  -0.814  -1.510  0.00  0.00    +0.151 HD
ENDROOT
BRANCH   1  12
ATOM     11  C   UNL     1       0.524   1.604   0.264  0.00  0.00    +0.036 C 
ATOM     12  C   UNL     1       0.036   0.153   0.278  0.00  0.00    +0.056 C 
ATOM     13  C   UNL     1       0.863  -0.653   1.282  0.00  0.00    +0.036 C 
BRANCH  12  14
ATOM     14  C   UNL     1      -1.416   0.116   0.677  0.00  0.00    -0.025 A 
ATOM     15  C   UNL     1      -1.764  -0.001   2.010  0.00  0.00    +0.007 A 
ATOM     16  C   UNL     1      -3.096  -0.036   2.377  0.00  0.00    +0.020 A 
ATOM     17  C   UNL     1      -4.082   0.046   1.410  0.00  0.00    +0.041 A 
ATOM     18  C   UNL     1      -3.733   0.163   0.076  0.00  0.00    +0.020 A 
ATOM     19  C   UNL     1      -2.401   0.203  -0.289  0.00  0.00    +0.007 A 
ATOM     20 CL   UNL     1      -5.755   0.002   1.870  0.00  0.00    -0.084 Cl
ENDBRANCH  12  14
ENDBRANCH   1  12
BRANCH   7  21
ATOM     21  C   UNL     1       2.407  -4.040  -5.610  0.00  0.00    +0.159 C 
BRANCH  21  22
ATOM     22  O   UNL     1       3.511  -3.891  -6.504  0.00  0.00    -0.395 OA
ATOM     23  H   UNL     1       3.808  -4.719  -6.905  0.00  0.00    +0.209 HD
ENDBRANCH  21  22
ENDBRANCH   7  21
TORSDOF 4
