REMARK  Name = ZINC63385069
REMARK  10 active torsions:
REMARK  status: ('A' for Active; 'I' for Inactive)
REMARK    1  A    between atoms: C_1  and  C_2
REMARK    2  A    between atoms: C_14  and  C_19
REMARK    3  A    between atoms: C_16  and  C_18
REMARK    4  A    between atoms: C_19  and  C_20
REMARK    5  A    between atoms: C_20  and  C_21
REMARK    6  A    between atoms: N_23  and  C_24
REMARK    7  A    between atoms: C_24  and  C_25
REMARK    8  A    between atoms: C_25  and  C_26
REMARK    9  A    between atoms: C_29  and  O_35
REMARK   10  A    between atoms: O_35  and  C_36
REMARK                            x       y       z     vdW  Elec       q    Type
REMARK                         _______ _______ _______ _____ _____    ______ ____
ROOT
ATOM      1  C   UNL     1      -2.383  -4.056   6.367  0.00  0.00    +0.096 C 
ENDROOT
BRANCH   1   2
ATOM      2  C   UNL     1      -3.880  -4.188   6.252  0.00  0.00    +0.213 C 
ATOM      3  O   UNL     1      -4.507  -3.403   5.572  0.00  0.00    -0.276 OA
ATOM      4  N   UNL     1      -4.522  -5.176   6.905  0.00  0.00    -0.315 N 
ATOM      5  H   UNL     1      -4.020  -5.804   7.449  0.00  0.00    +0.149 HD
BRANCH   4   6
ATOM      6  C   UNL     1      -5.977  -5.304   6.794  0.00  0.00    +0.108 C 
BRANCH   6   7
ATOM      7  C   UNL     1      -6.449  -6.498   7.625  0.00  0.00    +0.052 C 
BRANCH   7   8
ATOM      8  C   UNL     1      -7.946  -6.630   7.511  0.00  0.00    -0.040 C 
ATOM      9  C   UNL     1      -8.629  -7.423   6.655  0.00  0.00    +0.002 A 
ATOM     10  C   UNL     1      -8.202  -8.364   5.614  0.00  0.00    +0.055 A 
ATOM     11  C   UNL     1      -9.136  -9.035   4.897  0.00  0.00    +0.121 A 
ATOM     12  C   UNL     1     -10.514  -8.862   5.113  0.00  0.00    +0.047 A 
ATOM     13  C   UNL     1     -11.004  -8.019   6.046  0.00  0.00    +0.029 A 
ATOM     14  C   UNL     1     -10.082  -7.242   6.881  0.00  0.00    +0.043 A 
ATOM     15  N   UNL     1     -10.288  -6.372   7.838  0.00  0.00    -0.380 N 
ATOM     16  C   UNL     1      -8.988  -5.905   8.334  0.00  0.00    +0.144 C 
ATOM     17  H   UNL     1     -11.155  -6.087   8.167  0.00  0.00    +0.160 HD
BRANCH  11  18
ATOM     18  O   UNL     1      -8.726  -9.904   3.936  0.00  0.00    -0.495 OA
ATOM     19  C   UNL     1      -9.744 -10.589   3.204  0.00  0.00    +0.277 C 
ENDBRANCH  11  18
ENDBRANCH   7   8
ENDBRANCH   6   7
ENDBRANCH   4   6
ENDBRANCH   1   2
BRANCH   1  20
ATOM     20  C   UNL     1      -1.911  -2.862   5.535  0.00  0.00    +0.024 C 
BRANCH  20  34
ATOM     21  C   UNL     1      -0.018   1.503   0.010  0.00  0.00    +0.047 C 
ATOM     22  C   UNL     1       0.002  -0.004   0.002  0.00  0.00    -0.005 A 
ATOM     23  C   UNL     1       0.009  -0.802  -1.074  0.00  0.00    +0.199 A 
ATOM     24  O   UNL     1       0.028  -2.092  -0.694  0.00  0.00    -0.463 OA
ATOM     25  C   UNL     1       0.033  -2.197   0.651  0.00  0.00    +0.139 A 
ATOM     26  C   UNL     1       0.025  -0.892   1.171  0.00  0.00    +0.024 A 
ATOM     27  C   UNL     1       0.039  -0.690   2.549  0.00  0.00    +0.019 A 
ATOM     28  C   UNL     1       0.059  -1.762   3.403  0.00  0.00    -0.001 A 
ATOM     29  C   UNL     1       0.064  -3.056   2.897  0.00  0.00    +0.139 A 
ATOM     30  C   UNL     1       0.048  -3.273   1.526  0.00  0.00    +0.093 A 
ATOM     31  O   UNL     1       0.063  -4.144   3.715  0.00  0.00    -0.425 OA
ATOM     32  C   UNL     1       0.281  -3.937   5.029  0.00  0.00    +0.316 C 
ATOM     33  O   UNL     1       0.978  -4.678   5.680  0.00  0.00    -0.250 OA
ATOM     34  C   UNL     1      -0.391  -2.729   5.652  0.00  0.00    +0.106 C 
ATOM     35  C   UNL     1       0.084  -1.490   4.887  0.00  0.00    +0.033 C 
ATOM     36  C   UNL     1      -0.841  -0.312   5.202  0.00  0.00    +0.013 C 
ENDBRANCH  20  34
ENDBRANCH   1  20
TORSDOF 7
