REMARK  Name = ZINC12040730
REMARK  8 active torsions:
REMARK  status: ('A' for Active; 'I' for Inactive)
REMARK    1  A    between atoms: C_1  and  C_2
REMARK    2  A    between atoms: C_2  and  C_3
REMARK    3  A    between atoms: C_2  and  C_4
REMARK    4  A    between atoms: C_4  and  C_5
REMARK    5  A    between atoms: C_5  and  C_6
REMARK    6  A    between atoms: C_6  and  C_13
REMARK    7  A    between atoms: C_18  and  C_19
REMARK    8  A    between atoms: C_18  and  N_59
REMARK                            x       y       z     vdW  Elec       q    Type
REMARK                         _______ _______ _______ _____ _____    ______ ____
ROOT
ATOM      1  C   UNL     1      -1.059  -1.321   6.979  0.00  0.00    +0.018 C 
ATOM      2  C   UNL     1      -1.474  -0.042   7.710  0.00  0.00    -0.013 C 
ATOM      3  C   UNL     1      -0.926   1.172   6.956  0.00  0.00    -0.078 C 
ATOM      4  C   UNL     1      -1.028  -0.019   4.848  0.00  0.00    -0.078 C 
ATOM      5  C   UNL     1      -1.580  -1.268   5.540  0.00  0.00    -0.013 C 
ATOM      6  N   UNL     1      -1.483   1.178   5.587  0.00  0.00    +0.382 N 
ATOM      7  H   UNL     1      -2.508   1.164   5.645  0.00  0.00    -0.081 HD
ENDROOT
BRANCH   1   8
ATOM      8  C   UNL     1      -1.654  -2.535   7.695  0.00  0.00    +0.115 C 
ATOM      9  C   UNL     1      -3.137  -2.337   7.938  0.00  0.00    +0.244 C 
ATOM     10  O   UNL     1      -4.003  -2.186   7.103  0.00  0.00    -0.273 OA
ATOM     11  N   UNL     1      -3.294  -2.364   9.276  0.00  0.00    -0.238 N 
ATOM     12  C   UNL     1      -2.128  -2.549   9.906  0.00  0.00    +0.307 C 
ATOM     13  O   UNL     1      -2.014  -2.609  11.114  0.00  0.00    -0.252 OA
ATOM     14  N   UNL     1      -1.095  -2.663   9.051  0.00  0.00    -0.285 N 
ATOM     15  H   UNL     1      -4.146  -2.261   9.727  0.00  0.00    +0.159 HD
ATOM     16  H   UNL     1      -0.163  -2.800   9.284  0.00  0.00    +0.151 HD
BRANCH   8  17
ATOM     17  C   UNL     1      -1.403  -3.811   6.887  0.00  0.00    +0.036 C 
BRANCH  17  18
ATOM     18  C   UNL     1      -2.007  -5.008   7.624  0.00  0.00    +0.005 C 
BRANCH  18  20
ATOM     19  C   UNL     1      -2.249  -7.495   7.611  0.00  0.00    +0.007 C 
ATOM     20  C   UNL     1      -1.757  -6.283   6.817  0.00  0.00    -0.017 C 
ATOM     21  C   UNL     1      -2.512  -6.202   5.489  0.00  0.00    +0.007 C 
ENDBRANCH  18  20
ENDBRANCH  17  18
ENDBRANCH   8  17
ENDBRANCH   1   8
BRANCH   6  22
ATOM     22  C   UNL     1      -1.060   2.401   4.875  0.00  0.00    -0.043 C 
BRANCH  22  23
ATOM     23  C   UNL     1      -1.402   2.266   3.414  0.00  0.00    -0.063 A 
ATOM     24  C   UNL     1      -2.640   2.673   2.951  0.00  0.00    +0.005 A 
ATOM     25  C   UNL     1      -2.960   2.548   1.615  0.00  0.00    +0.046 A 
ATOM     26  C   UNL     1      -2.038   2.010   0.720  0.00  0.00    +0.124 A 
ATOM     27  C   UNL     1      -0.795   1.611   1.196  0.00  0.00    -0.002 A 
ATOM     28  C   UNL     1      -0.480   1.733   2.531  0.00  0.00    +0.009 A 
ATOM     29  C   UNL     1      -0.013   1.086   0.008  0.00  0.00    +0.080 C 
ATOM     30  C   UNL     1      -0.834   1.634  -1.183  0.00  0.00    +0.234 C 
ATOM     31  O   UNL     1      -2.147   1.791  -0.619  0.00  0.00    -0.491 OA
ENDBRANCH  22  23
ENDBRANCH   6  22
TORSDOF 6
