REMARK  Name = ZINC08995541
REMARK  11 active torsions:
REMARK  status: ('A' for Active; 'I' for Inactive)
REMARK    1  A    between atoms: C_1  and  C_2
REMARK    2  A    between atoms: C_2  and  N_3
REMARK    3  A    between atoms: N_3  and  C_4
REMARK    4  A    between atoms: N_3  and  C_6
REMARK    5  A    between atoms: C_4  and  C_5
REMARK    6  A    between atoms: C_9  and  C_12
REMARK    7  A    between atoms: C_17  and  C_37
REMARK    8  A    between atoms: C_17  and  C_38
REMARK    9  A    between atoms: N_27  and  C_28
REMARK   10  A    between atoms: C_28  and  N_30
REMARK   11  A    between atoms: N_30  and  C_31
REMARK                            x       y       z     vdW  Elec       q    Type
REMARK                         _______ _______ _______ _____ _____    ______ ____
ROOT
ATOM      1  C   UNL     1       0.406   6.433   3.325  0.00  0.00    +0.126 C 
ATOM      2  C   UNL     1       1.328   6.115   4.455  0.00  0.00    +0.125 C 
ATOM      3  C   UNL     1       0.760   5.822   5.643  0.00  0.00    +0.144 C 
ATOM      4  C   UNL     1       1.558   5.486   6.868  0.00  0.00    +0.081 C 
ATOM      5  C   UNL     1       2.923   6.175   6.777  0.00  0.00    -0.023 C 
ATOM      6  C   UNL     1       3.597   5.724   5.483  0.00  0.00    +0.058 C 
ATOM      7  C   UNL     1       2.729   6.122   4.294  0.00  0.00    +0.032 C 
ATOM      8  N   UNL     1       3.375   6.431   3.229  0.00  0.00    -0.254 NA
ATOM      9  C   UNL     1       3.107   6.510   1.920  0.00  0.00    +0.085 A 
ATOM     10  C   UNL     1       4.064   6.106   0.980  0.00  0.00    +0.029 A 
ATOM     11  C   UNL     1       3.823   6.242  -0.368  0.00  0.00    +0.002 A 
ATOM     12  C   UNL     1       2.630   6.779  -0.821  0.00  0.00    +0.002 A 
ATOM     13  C   UNL     1       1.663   7.172   0.086  0.00  0.00    +0.025 A 
ATOM     14  C   UNL     1       1.883   7.034   1.440  0.00  0.00    +0.061 A 
ATOM     15  N   UNL     1       0.934   7.389   2.384  0.00  0.00    -0.272 N 
ATOM     16  C   UNL     1       2.736   7.694   6.760  0.00  0.00    +0.011 C 
ATOM     17  C   UNL     1       3.785   5.774   7.976  0.00  0.00    +0.011 C 
ATOM     18  O   UNL     1      -0.588   5.831   5.734  0.00  0.00    -0.297 OA
ENDROOT
BRANCH   1  22
ATOM     19  C   UNL     1      -0.476   2.812   1.233  0.00  0.00    +0.030 A 
ATOM     20  C   UNL     1       0.209   2.768   2.441  0.00  0.00    +0.023 A 
ATOM     21  C   UNL     1       0.497   3.941   3.111  0.00  0.00    +0.007 A 
ATOM     22  C   UNL     1       0.095   5.156   2.587  0.00  0.00    -0.026 A 
ATOM     23  C   UNL     1      -0.592   5.202   1.388  0.00  0.00    +0.007 A 
ATOM     24  C   UNL     1      -0.878   4.034   0.710  0.00  0.00    +0.023 A 
BRANCH  19  25
ATOM     25  N   UNL     1      -0.764   1.628   0.549  0.00  0.00    -0.330 N 
BRANCH  25  27
ATOM     26  C   UNL     1       1.059  -0.002   0.583  0.00  0.00    +0.024 C 
ATOM     27  C   UNL     1      -0.339   0.340   1.103  0.00  0.00    +0.102 C 
ENDBRANCH  25  27
BRANCH  25  28
ATOM     28  C   UNL     1      -1.492   1.675  -0.721  0.00  0.00    +0.102 C 
ATOM     29  C   UNL     1      -2.996   1.585  -0.451  0.00  0.00    +0.024 C 
ENDBRANCH  25  28
ENDBRANCH  19  25
ENDBRANCH   1  22
BRANCH  15  30
ATOM     30  C   UNL     1       0.492   8.661   2.424  0.00  0.00    +0.142 C 
ATOM     31  S   UNL     1      -0.681   9.124   3.582  0.00  0.00    -0.018 S 
BRANCH  30  32
ATOM     32  N   UNL     1       0.973   9.569   1.552  0.00  0.00    -0.296 N 
ATOM     33  H   UNL     1       1.591   9.294   0.857  0.00  0.00    +0.154 HD
BRANCH  32  34
ATOM     34  C   UNL     1       0.581  10.909   1.649  0.00  0.00    +0.033 A 
ATOM     35  C   UNL     1      -0.758  11.230   1.831  0.00  0.00    +0.023 A 
ATOM     36  C   UNL     1      -1.141  12.553   1.932  0.00  0.00    +0.002 A 
ATOM     37  C   UNL     1      -0.195  13.557   1.841  0.00  0.00    +0.000 A 
ATOM     38  C   UNL     1       1.138  13.241   1.655  0.00  0.00    +0.002 A 
ATOM     39  C   UNL     1       1.529  11.919   1.559  0.00  0.00    +0.023 A 
ENDBRANCH  32  34
ENDBRANCH  30  32
ENDBRANCH  15  30
TORSDOF 7
