REMARK  Name = ZINC14974897
REMARK  4 active torsions:
REMARK  status: ('A' for Active; 'I' for Inactive)
REMARK    1  A    between atoms: C_1  and  C_2
REMARK    2  A    between atoms: C_10  and  C_11
REMARK    3  A    between atoms: C_16  and  N_65
REMARK    4  A    between atoms: N_28  and  C_29
REMARK                            x       y       z     vdW  Elec       q    Type
REMARK                         _______ _______ _______ _____ _____    ______ ____
ROOT
ATOM      1  C   UNL     1       4.217   1.735  -0.421  0.00  0.00    +0.254 C 
ATOM      2  O   UNL     1       3.146   1.158  -0.408  0.00  0.00    -0.269 OA
ATOM      3  N   UNL     1       5.348   1.049  -0.683  0.00  0.00    -0.297 N 
ATOM      4  C   UNL     1       5.294  -0.374  -1.043  0.00  0.00    +0.106 C 
ATOM      5  C   UNL     1       6.050  -0.573  -2.365  0.00  0.00    +0.004 C 
ATOM      6  C   UNL     1       7.468  -0.014  -2.224  0.00  0.00    -0.065 C 
ATOM      7  C   UNL     1       7.399   1.487  -1.929  0.00  0.00    +0.004 C 
ATOM      8  C   UNL     1       6.658   1.710  -0.607  0.00  0.00    +0.106 C 
ENDROOT
BRANCH   1  18
ATOM      9  C   UNL     1       2.425   3.844  -1.669  0.00  0.00    +0.046 C 
ATOM     10  C   UNL     1       3.509   4.171  -0.674  0.00  0.00    -0.019 A 
ATOM     11  C   UNL     1       3.727   5.499  -0.285  0.00  0.00    +0.051 A 
ATOM     12  C   UNL     1       3.052   6.685  -0.703  0.00  0.00    +0.131 A 
ATOM     13  N   UNL     1       3.424   7.850  -0.198  0.00  0.00    -0.220 NA
ATOM     14  C   UNL     1       4.407   7.958   0.677  0.00  0.00    +0.224 A 
ATOM     15  N   UNL     1       5.073   6.901   1.100  0.00  0.00    -0.228 NA
ATOM     16  C   UNL     1       4.769   5.699   0.654  0.00  0.00    +0.114 A 
ATOM     17  S   UNL     1       5.380   4.058   0.942  0.00  0.00    -0.064 S 
ATOM     18  C   UNL     1       4.278   3.176  -0.152  0.00  0.00    +0.080 A 
ATOM     19  N   UNL     1       2.019   6.616  -1.615  0.00  0.00    -0.323 N 
ATOM     20  H   UNL     1       1.808   5.773  -2.046  0.00  0.00    +0.148 HD
BRANCH  19  21
ATOM     21  C   UNL     1       1.241   7.816  -1.933  0.00  0.00    +0.099 C 
ATOM     22  C   UNL     1       0.574   7.677  -3.323  0.00  0.00    +0.052 C 
ATOM     23  C   UNL     1      -0.862   7.220  -2.945  0.00  0.00    +0.162 C 
ATOM     24  O   UNL     1      -1.146   7.963  -1.739  0.00  0.00    -0.378 OA
ATOM     25  C   UNL     1       0.059   7.967  -0.956  0.00  0.00    +0.182 C 
ENDBRANCH  19  21
ENDBRANCH   1  18
BRANCH   6  35
ATOM     26  C   UNL     1       8.313  -1.669  -3.779  0.00  0.00    -0.073 C 
ATOM     27  C   UNL     1       8.751  -1.825  -5.235  0.00  0.00    +0.017 C 
ATOM     28  C   UNL     1       9.963  -0.970  -5.502  0.00  0.00    -0.048 A 
ATOM     29  C   UNL     1      10.719  -1.229  -6.636  0.00  0.00    +0.004 A 
ATOM     30  C   UNL     1      11.832  -0.464  -6.922  0.00  0.00    +0.000 A 
ATOM     31  C   UNL     1      12.194   0.566  -6.074  0.00  0.00    +0.000 A 
ATOM     32  C   UNL     1      11.444   0.824  -4.945  0.00  0.00    +0.002 A 
ATOM     33  C   UNL     1      10.326   0.055  -4.655  0.00  0.00    -0.061 A 
ATOM     34  C   UNL     1       9.541   0.371  -3.409  0.00  0.00    -0.042 C 
ATOM     35  N   UNL     1       8.198  -0.225  -3.494  0.00  0.00    +0.385 N 
ATOM     36  H   UNL     1       7.679   0.227  -4.257  0.00  0.00    -0.081 HD
ENDBRANCH   6  35
TORSDOF 3
