REMARK  Name = ZINC22513656
REMARK  10 active torsions:
REMARK  status: ('A' for Active; 'I' for Inactive)
REMARK    1  A    between atoms: C_1  and  C_2
REMARK    2  A    between atoms: C_5  and  C_8
REMARK    3  A    between atoms: C_8  and  C_10
REMARK    4  A    between atoms: C_8  and  N_11
REMARK    5  A    between atoms: C_12  and  C_14
REMARK    6  A    between atoms: C_14  and  N_15
REMARK    7  A    between atoms: N_15  and  C_16
REMARK    8  A    between atoms: N_15  and  S_32
REMARK    9  A    between atoms: C_19  and  C_22
REMARK   10  A    between atoms: S_32  and  C_35
REMARK                            x       y       z     vdW  Elec       q    Type
REMARK                         _______ _______ _______ _____ _____    ______ ____
ROOT
ATOM      1  N   UNL     1      -0.698   1.558   1.213  0.00  0.00    -0.199 N 
ENDROOT
BRANCH   1   2
ATOM      2  C   UNL     1      -0.510   2.847   1.718  0.00  0.00    +0.051 A 
ATOM      3  C   UNL     1       0.661   3.540   1.437  0.00  0.00    +0.025 A 
ATOM      4  C   UNL     1       0.842   4.816   1.934  0.00  0.00    +0.006 A 
ATOM      5  C   UNL     1      -0.135   5.399   2.720  0.00  0.00    -0.041 A 
ATOM      6  C   UNL     1      -1.299   4.709   3.006  0.00  0.00    +0.006 A 
ATOM      7  C   UNL     1      -1.489   3.435   2.508  0.00  0.00    +0.025 A 
BRANCH   5   8
ATOM      8  C   UNL     1       0.069   6.789   3.266  0.00  0.00    -0.003 C 
ATOM      9  C   UNL     1       0.029   6.747   4.795  0.00  0.00    +0.015 C 
ATOM     10  C   UNL     1       0.236   8.158   5.349  0.00  0.00    -0.010 C 
ATOM     11  C   UNL     1       1.594   8.693   4.888  0.00  0.00    +0.007 C 
ATOM     12  C   UNL     1       1.633   8.734   3.360  0.00  0.00    -0.010 C 
ATOM     13  C   UNL     1       1.426   7.323   2.805  0.00  0.00    +0.015 C 
ATOM     14  C   UNL     1       0.523   9.652   2.845  0.00  0.00    +0.007 C 
ATOM     15  C   UNL     1      -0.835   9.118   3.306  0.00  0.00    -0.010 C 
ATOM     16  C   UNL     1      -0.875   9.076   4.835  0.00  0.00    +0.007 C 
ATOM     17  C   UNL     1      -1.042   7.707   2.752  0.00  0.00    +0.015 C 
ENDBRANCH   5   8
ENDBRANCH   1   2
BRANCH   1  18
ATOM     18  S   UNL     1      -0.893   0.282   2.251  0.00  0.00    +0.043 S 
ATOM     19  O   UNL     1      -1.297   0.872   3.479  0.00  0.00    -0.155 OA
ATOM     20  O   UNL     1      -1.751  -0.617   1.562  0.00  0.00    -0.155 OA
ATOM     21  C   UNL     1       0.763  -0.439   2.419  0.00  0.00    +0.218 C 
ENDBRANCH   1  18
BRANCH   1  22
ATOM     22  C   UNL     1      -0.724   1.335  -0.234  0.00  0.00    +0.226 C 
BRANCH  22  24
ATOM     23  N   UNL     1      -2.377   1.444  -2.071  0.00  0.00    -0.307 N 
ATOM     24  C   UNL     1      -2.115   1.588  -0.757  0.00  0.00    +0.233 C 
ATOM     25  O   UNL     1      -2.998   1.921   0.005  0.00  0.00    -0.274 OA
ATOM     26  H   UNL     1      -1.577   1.141  -2.762  0.00  0.00    +0.149 HD
BRANCH  23  27
ATOM     27  C   UNL     1      -3.729   1.689  -2.579  0.00  0.00    +0.100 C 
ATOM     28  C   UNL     1      -4.572   0.422  -2.421  0.00  0.00    +0.033 C 
BRANCH  27  33
ATOM     29  C   UNL     1      -3.454   3.136  -8.167  0.00  0.00    +0.044 C 
ATOM     30  C   UNL     1      -3.526   2.759  -6.710  0.00  0.00    -0.050 A 
ATOM     31  C   UNL     1      -4.410   3.409  -5.870  0.00  0.00    +0.004 A 
ATOM     32  C   UNL     1      -4.476   3.063  -4.533  0.00  0.00    +0.006 A 
ATOM     33  C   UNL     1      -3.658   2.066  -4.036  0.00  0.00    -0.027 A 
ATOM     34  C   UNL     1      -2.769   1.420  -4.875  0.00  0.00    +0.006 A 
ATOM     35  C   UNL     1      -2.707   1.762  -6.213  0.00  0.00    +0.004 A 
ENDBRANCH  27  33
ENDBRANCH  23  27
ENDBRANCH  22  24
ENDBRANCH   1  22
TORSDOF 7
