REMARK  Name = ZINC38701427
REMARK  12 active torsions:
REMARK  status: ('A' for Active; 'I' for Inactive)
REMARK    1  A    between atoms: C_1  and  C_2
REMARK    2  A    between atoms: C_2  and  C_3
REMARK    3  A    between atoms: C_3  and  C_4
REMARK    4  A    between atoms: C_4  and  C_5
REMARK    5  A    between atoms: C_5  and  O_6
REMARK    6  A    between atoms: O_6  and  C_7
REMARK    7  A    between atoms: C_12  and  C_13
REMARK    8  A    between atoms: C_18  and  O_27
REMARK    9  A    between atoms: C_22  and  N_26
REMARK   10  A    between atoms: C_23  and  C_24
REMARK   11  A    between atoms: O_27  and  C_28
REMARK   12  A    between atoms: C_28  and  C_30
REMARK                            x       y       z     vdW  Elec       q    Type
REMARK                         _______ _______ _______ _____ _____    ______ ____
ROOT
ATOM      1  C   UNL     1       1.547  -6.749   2.499  0.00  0.00    +0.101 C 
ATOM      2  C   UNL     1       0.485  -7.643   3.083  0.00  0.00    +0.008 A 
ATOM      3  C   UNL     1      -0.707  -7.090   3.516  0.00  0.00    +0.012 A 
ATOM      4  C   UNL     1      -1.692  -7.894   4.054  0.00  0.00    +0.047 A 
ATOM      5  C   UNL     1      -1.489  -9.262   4.161  0.00  0.00    +0.135 A 
ATOM      6  C   UNL     1      -0.297  -9.819   3.728  0.00  0.00    +0.093 A 
ATOM      7  C   UNL     1       0.694  -9.009   3.188  0.00  0.00    +0.138 A 
ATOM      8  O   UNL     1       1.855  -9.569   2.768  0.00  0.00    -0.441 OA
ATOM      9  C   UNL     1       2.648  -8.905   1.911  0.00  0.00    +0.199 C 
ATOM     10  C   UNL     1       2.551  -7.569   1.739  0.00  0.00    +0.098 C 
ENDROOT
BRANCH   1  16
ATOM     11  C   UNL     1       2.219  -4.623   3.647  0.00  0.00    +0.125 A 
ATOM     12  C   UNL     1       2.857  -3.946   4.676  0.00  0.00    +0.046 A 
ATOM     13  C   UNL     1       3.521  -4.653   5.659  0.00  0.00    +0.004 A 
ATOM     14  C   UNL     1       3.550  -6.035   5.619  0.00  0.00    +0.001 A 
ATOM     15  C   UNL     1       2.914  -6.713   4.594  0.00  0.00    +0.008 A 
ATOM     16  C   UNL     1       2.244  -6.010   3.612  0.00  0.00    +0.007 A 
BRANCH  11  17
ATOM     17  O   UNL     1       1.564  -3.930   2.679  0.00  0.00    -0.492 OA
BRANCH  17  18
ATOM     18  C   UNL     1       1.579  -2.504   2.779  0.00  0.00    +0.229 C 
BRANCH  18  19
ATOM     19  C   UNL     1       0.798  -1.903   1.609  0.00  0.00    +0.041 C 
BRANCH  19  20
ATOM     20  C   UNL     1       0.814  -0.376   1.717  0.00  0.00    +0.003 C 
BRANCH  20  22
ATOM     21  C   UNL     1       0.049   1.752   0.654  0.00  0.00    +0.004 C 
ATOM     22  C   UNL     1       0.032   0.225   0.547  0.00  0.00    -0.003 C 
ENDBRANCH  20  22
ENDBRANCH  19  20
ENDBRANCH  18  19
ENDBRANCH  17  18
ENDBRANCH  11  17
ENDBRANCH   1  16
BRANCH   9  23
ATOM     23  N   UNL     1       3.584  -9.605   1.191  0.00  0.00    -0.328 N 
ATOM     24  H   UNL     1       3.665 -10.565   1.305  0.00  0.00    +0.145 HD
ATOM     25  H   UNL     1       4.164  -9.140   0.568  0.00  0.00    +0.145 HD
ENDBRANCH   9  23
BRANCH  10  26
ATOM     26  C   UNL     1       3.427  -6.920   0.810  0.00  0.00    +0.101 C 
ATOM     27  N   UNL     1       4.122  -6.406   0.073  0.00  0.00    -0.191 NA
ENDBRANCH  10  26
BRANCH   5  28
ATOM     28  O   UNL     1      -2.457 -10.055   4.691  0.00  0.00    -0.422 OA
BRANCH  28  29
ATOM     29  C   UNL     1      -3.590 -10.231   3.981  0.00  0.00    +0.351 C 
ATOM     30  O   UNL     1      -3.680  -9.775   2.858  0.00  0.00    -0.244 OA
BRANCH  29  31
ATOM     31  C   UNL     1      -4.716 -10.975   4.565  0.00  0.00    +0.144 A 
ATOM     32  C   UNL     1      -5.893 -11.178   3.856  0.00  0.00    +0.033 A 
ATOM     33  C   UNL     1      -6.947 -11.878   4.498  0.00  0.00    +0.018 A 
ATOM     34  C   UNL     1      -8.076 -12.286   3.773  0.00  0.00    +0.011 A 
ATOM     35  C   UNL     1      -9.062 -12.995   4.396  0.00  0.00    +0.001 A 
ATOM     36  C   UNL     1      -8.962 -13.309   5.744  0.00  0.00    +0.004 A 
ATOM     37  C   UNL     1      -7.870 -12.901   6.482  0.00  0.00    +0.047 A 
ATOM     38  C   UNL     1      -6.858 -12.173   5.871  0.00  0.00    +0.139 A 
ATOM     39  O   UNL     1      -5.802 -11.729   6.594  0.00  0.00    -0.422 OA
ATOM     40  C   UNL     1      -4.638 -11.541   5.925  0.00  0.00    +0.351 A 
ATOM     41  O   UNL     1      -3.567 -11.824   6.428  0.00  0.00    -0.244 OA
ENDBRANCH  29  31
ENDBRANCH  28  29
ENDBRANCH   5  28
TORSDOF 11
