REMARK  Name = ZINC04766519
REMARK  10 active torsions:
REMARK  status: ('A' for Active; 'I' for Inactive)
REMARK    1  A    between atoms: C_1  and  C_2
REMARK    2  A    between atoms: C_7  and  C_22
REMARK    3  A    between atoms: C_9  and  C_13
REMARK    4  A    between atoms: C_10  and  C_12
REMARK    5  A    between atoms: C_13  and  O_15
REMARK    6  A    between atoms: O_15  and  C_16
REMARK    7  A    between atoms: C_25  and  O_28
REMARK    8  A    between atoms: C_31  and  C_33
REMARK    9  A    between atoms: C_33  and  O_35
REMARK   10  A    between atoms: O_35  and  C_36
REMARK                            x       y       z     vdW  Elec       q    Type
REMARK                         _______ _______ _______ _____ _____    ______ ____
ROOT
ATOM      1  C   UNL     1      -4.126  -0.461   2.575  0.00  0.00    +0.009 C 
ATOM      2  C   UNL     1      -4.166   1.067   2.518  0.00  0.00    +0.013 C 
ATOM      3  C   UNL     1      -4.950   1.606   3.716  0.00  0.00    +0.055 C 
ATOM      4  C   UNL     1      -4.946   3.114   3.688  0.00  0.00    +0.016 C 
ATOM      5  C   UNL     1      -3.909   3.797   3.158  0.00  0.00    +0.025 C 
ATOM      6  C   UNL     1      -3.914   5.305   3.130  0.00  0.00    +0.092 C 
ATOM      7  C   UNL     1      -4.922   5.858   4.093  0.00  0.00    +0.065 C 
ATOM      8  C   UNL     1      -5.913   5.093   4.583  0.00  0.00    +0.016 C 
ATOM      9  N   UNL     1      -6.020   3.780   4.215  0.00  0.00    -0.321 N 
ATOM     10  C   UNL     1      -6.913   5.685   5.542  0.00  0.00    +0.061 C 
ATOM     11  C   UNL     1      -2.801   3.125   2.613  0.00  0.00    +0.176 C 
ATOM     12  O   UNL     1      -1.875   3.770   2.162  0.00  0.00    -0.291 OA
ATOM     13  C   UNL     1      -2.740   1.623   2.581  0.00  0.00    +0.171 C 
ATOM     14  H   UNL     1      -6.980   3.260   4.348  0.00  0.00    +0.152 HD
ENDROOT
BRANCH   6  15
ATOM     15  C   UNL     1      -4.250   5.774   1.738  0.00  0.00    -0.035 A 
ATOM     16  C   UNL     1      -5.455   5.416   1.162  0.00  0.00    +0.008 A 
ATOM     17  C   UNL     1      -5.769   5.849  -0.112  0.00  0.00    +0.046 A 
ATOM     18  C   UNL     1      -4.868   6.634  -0.818  0.00  0.00    +0.117 A 
ATOM     19  C   UNL     1      -3.658   6.987  -0.239  0.00  0.00    +0.046 A 
ATOM     20  C   UNL     1      -3.352   6.556   1.037  0.00  0.00    +0.008 A 
BRANCH  18  21
ATOM     21  O   UNL     1      -5.172   7.056  -2.073  0.00  0.00    -0.507 OA
ATOM     22  H   UNL     1      -4.457   7.678  -2.632  0.00  0.00    +0.292 HD
ENDBRANCH  18  21
ENDBRANCH   6  15
BRANCH   7  23
ATOM     23  C   UNL     1      -4.829   7.212   4.495  0.00  0.00    +0.338 C 
ATOM     24  O   UNL     1      -5.640   7.672   5.276  0.00  0.00    -0.245 OA
BRANCH  23  25
ATOM     25  O   UNL     1      -3.839   7.992   4.011  0.00  0.00    -0.458 OA
BRANCH  25  26
ATOM     26  C   UNL     1      -3.805   9.348   4.460  0.00  0.00    +0.177 C 
ATOM     27  C   UNL     1      -4.636  10.218   3.515  0.00  0.00    +0.044 C 
ATOM     28  C   UNL     1      -4.600  11.671   3.994  0.00  0.00    +0.004 C 
ATOM     29  C   UNL     1      -3.153  12.168   4.005  0.00  0.00    +0.000 C 
ATOM     30  C   UNL     1      -2.322  11.298   4.950  0.00  0.00    +0.004 C 
ATOM     31  C   UNL     1      -2.358   9.846   4.470  0.00  0.00    +0.044 C 
ENDBRANCH  25  26
ENDBRANCH  23  25
ENDBRANCH   7  23
BRANCH  13  32
ATOM     32  C   UNL     1      -1.970   1.175   1.365  0.00  0.00    +0.318 C 
ATOM     33  O   UNL     1      -2.502   0.475   0.537  0.00  0.00    -0.250 OA
BRANCH  32  34
ATOM     34  O   UNL     1      -0.692   1.554   1.203  0.00  0.00    -0.467 OA
ATOM     35  C   UNL     1      -0.013   1.086   0.008  0.00  0.00    +0.280 C 
ENDBRANCH  32  34
ENDBRANCH  13  32
TORSDOF 7
