REMARK  Name = ZINC40812074
REMARK  8 active torsions:
REMARK  status: ('A' for Active; 'I' for Inactive)
REMARK    1  A    between atoms: C_1  and  C_2
REMARK    2  A    between atoms: C_6  and  C_7
REMARK    3  A    between atoms: N_9  and  C_10
REMARK    4  A    between atoms: C_13  and  N_16
REMARK    5  A    between atoms: N_17  and  C_18
REMARK    6  A    between atoms: N_28  and  N_29
REMARK    7  A    between atoms: C_30  and  C_32
REMARK    8  A    between atoms: C_35  and  O_38
REMARK                            x       y       z     vdW  Elec       q    Type
REMARK                         _______ _______ _______ _____ _____    ______ ____
ROOT
ATOM      1  C   UNL     1      -4.105  -0.212   1.163  0.00  0.00    +0.048 C 
ATOM      2  C   UNL     1      -5.094  -0.967   2.014  0.00  0.00    +0.009 A 
ATOM      3  C   UNL     1      -6.264  -1.602   1.580  0.00  0.00    +0.042 A 
ATOM      4  C   UNL     1      -6.862  -2.163   2.683  0.00  0.00    +0.115 A 
ATOM      5  O   UNL     1      -6.104  -1.894   3.744  0.00  0.00    -0.454 OA
ATOM      6  C   UNL     1      -5.024  -1.174   3.363  0.00  0.00    +0.193 A 
ATOM      7  C   UNL     1      -8.157  -2.932   2.612  0.00  0.00    +0.075 C 
ATOM      8  C   UNL     1      -8.905  -2.551   1.331  0.00  0.00    +0.014 C 
ATOM      9  C   UNL     1      -7.998  -2.715   0.107  0.00  0.00    +0.058 C 
ATOM     10  C   UNL     1      -6.852  -1.722   0.227  0.00  0.00    +0.070 C 
ATOM     11  N   UNL     1      -6.421  -1.030  -0.783  0.00  0.00    -0.184 NA
ENDROOT
BRANCH   6  12
ATOM     12  C   UNL     1      -3.960  -0.694   4.250  0.00  0.00    +0.284 C 
ATOM     13  O   UNL     1      -3.033  -0.049   3.795  0.00  0.00    -0.266 OA
ATOM     14  N   UNL     1      -4.007  -0.966   5.569  0.00  0.00    -0.279 N 
ATOM     15  H   UNL     1      -4.797  -1.381   5.951  0.00  0.00    +0.155 HD
BRANCH  14  16
ATOM     16  C   UNL     1      -2.922  -0.651   6.386  0.00  0.00    +0.034 A 
ATOM     17  C   UNL     1      -2.675  -1.400   7.532  0.00  0.00    +0.025 A 
ATOM     18  C   UNL     1      -1.604  -1.093   8.341  0.00  0.00    +0.031 A 
ATOM     19  C   UNL     1      -0.763  -0.026   8.009  0.00  0.00    +0.086 A 
ATOM     20  C   UNL     1      -1.014   0.725   6.856  0.00  0.00    +0.031 A 
ATOM     21  C   UNL     1      -2.084   0.408   6.050  0.00  0.00    +0.025 A 
BRANCH  19  22
ATOM     22  N   UNL     1       0.299   0.282   8.808  0.00  0.00    -0.149 NA
ATOM     23  N   UNL     1       0.723  -0.573   9.676  0.00  0.00    -0.149 NA
BRANCH  23  24
ATOM     24  C   UNL     1       0.744  -1.905   9.370  0.00  0.00    +0.086 A 
ATOM     25  C   UNL     1       0.872  -2.857  10.384  0.00  0.00    +0.029 A 
ATOM     26  C   UNL     1       0.892  -4.199  10.068  0.00  0.00    +0.002 A 
ATOM     27  C   UNL     1       0.786  -4.604   8.748  0.00  0.00    +0.000 A 
ATOM     28  C   UNL     1       0.660  -3.667   7.738  0.00  0.00    +0.002 A 
ATOM     29  C   UNL     1       0.631  -2.321   8.040  0.00  0.00    +0.029 A 
ENDBRANCH  23  24
ENDBRANCH  19  22
ENDBRANCH  14  16
ENDBRANCH   6  12
BRANCH  11  30
ATOM     30  N   UNL     1      -7.016  -1.184  -2.042  0.00  0.00    -0.203 N 
ATOM     31  C   UNL     1      -6.569  -0.466  -3.091  0.00  0.00    +0.263 C 
ATOM     32  O   UNL     1      -5.649   0.316  -2.945  0.00  0.00    -0.268 OA
ATOM     33  H   UNL     1      -7.750  -1.808  -2.159  0.00  0.00    +0.178 HD
BRANCH  31  34
ATOM     34  C   UNL     1      -7.195  -0.628  -4.417  0.00  0.00    +0.039 A 
ATOM     35  C   UNL     1      -8.256  -1.522  -4.586  0.00  0.00    +0.016 A 
ATOM     36  C   UNL     1      -8.838  -1.671  -5.825  0.00  0.00    +0.046 A 
ATOM     37  C   UNL     1      -8.372  -0.933  -6.907  0.00  0.00    +0.117 A 
ATOM     38  C   UNL     1      -7.317  -0.043  -6.743  0.00  0.00    +0.046 A 
ATOM     39  C   UNL     1      -6.733   0.116  -5.506  0.00  0.00    +0.016 A 
BRANCH  37  40
ATOM     40  O   UNL     1      -8.947  -1.083  -8.127  0.00  0.00    -0.507 OA
ATOM     41  H   UNL     1      -9.688  -0.482  -8.289  0.00  0.00    +0.292 HD
ENDBRANCH  37  40
ENDBRANCH  31  34
ENDBRANCH  11  30
TORSDOF 7
