REMARK  Name = ZINC63270450
REMARK  11 active torsions:
REMARK  status: ('A' for Active; 'I' for Inactive)
REMARK    1  A    between atoms: C_1  and  C_2
REMARK    2  A    between atoms: C_4  and  O_17
REMARK    3  A    between atoms: C_11  and  O_15
REMARK    4  A    between atoms: O_15  and  C_16
REMARK    5  A    between atoms: O_17  and  C_18
REMARK    6  A    between atoms: C_21  and  C_24
REMARK    7  A    between atoms: N_26  and  C_27
REMARK    8  A    between atoms: C_27  and  C_28
REMARK    9  A    between atoms: C_28  and  C_29
REMARK   10  A    between atoms: C_33  and  O_38
REMARK   11  A    between atoms: O_38  and  C_39
REMARK                            x       y       z     vdW  Elec       q    Type
REMARK                         _______ _______ _______ _____ _____    ______ ____
ROOT
ATOM      1  C   UNL     1      -2.529  -2.579  -0.516  0.00  0.00    +0.122 A 
ATOM      2  C   UNL     1      -3.549  -1.821  -1.079  0.00  0.00    +0.046 A 
ATOM      3  C   UNL     1      -4.667  -2.440  -1.593  0.00  0.00    +0.016 A 
ATOM      4  C   UNL     1      -4.774  -3.833  -1.549  0.00  0.00    +0.037 A 
ATOM      5  C   UNL     1      -3.746  -4.591  -0.982  0.00  0.00    +0.016 A 
ATOM      6  C   UNL     1      -2.630  -3.965  -0.475  0.00  0.00    +0.046 A 
ENDROOT
BRANCH   4   7
ATOM      7  C   UNL     1      -5.970  -4.500  -2.098  0.00  0.00    +0.244 C 
ATOM      8  O   UNL     1      -6.864  -3.839  -2.590  0.00  0.00    -0.270 OA
ATOM      9  N   UNL     1      -6.072  -5.843  -2.054  0.00  0.00    -0.311 N 
ATOM     10  H   UNL     1      -5.359  -6.371  -1.661  0.00  0.00    +0.149 HD
BRANCH   9  11
ATOM     11  C   UNL     1      -7.260  -6.506  -2.599  0.00  0.00    +0.109 C 
BRANCH  11  12
ATOM     12  C   UNL     1      -7.124  -8.020  -2.425  0.00  0.00    +0.052 C 
BRANCH  12  13
ATOM     13  C   UNL     1      -8.345  -8.702  -2.986  0.00  0.00    -0.040 C 
ATOM     14  C   UNL     1      -8.486  -9.226  -4.223  0.00  0.00    -0.001 A 
ATOM     15  C   UNL     1      -7.577  -9.313  -5.374  0.00  0.00    +0.013 A 
ATOM     16  C   UNL     1      -8.008  -9.908  -6.507  0.00  0.00    +0.046 A 
ATOM     17  C   UNL     1      -9.305 -10.445  -6.612  0.00  0.00    +0.122 A 
ATOM     18  C   UNL     1     -10.198 -10.401  -5.590  0.00  0.00    +0.071 A 
ATOM     19  C   UNL     1      -9.845  -9.798  -4.357  0.00  0.00    +0.046 A 
ATOM     20  N   UNL     1     -10.519  -9.634  -3.241  0.00  0.00    -0.380 N 
ATOM     21  C   UNL     1      -9.658  -8.944  -2.274  0.00  0.00    +0.144 C 
ATOM     22  H   UNL     1     -11.431  -9.923  -3.082  0.00  0.00    +0.160 HD
BRANCH  17  23
ATOM     23  O   UNL     1      -9.676 -11.029  -7.778  0.00  0.00    -0.495 OA
ATOM     24  C   UNL     1      -8.708 -11.055  -8.828  0.00  0.00    +0.277 C 
ENDBRANCH  17  23
ENDBRANCH  12  13
ENDBRANCH  11  12
ENDBRANCH   9  11
ENDBRANCH   4   7
BRANCH   1  25
ATOM     25  O   UNL     1      -1.430  -1.965  -0.011  0.00  0.00    -0.477 OA
BRANCH  25  28
ATOM     26  C   UNL     1       0.230   1.396  -0.368  0.00  0.00    +0.056 C 
ATOM     27  C   UNL     1       0.138  -0.116  -0.152  0.00  0.00    +0.219 C 
ATOM     28  C   UNL     1      -1.335  -0.551  -0.194  0.00  0.00    +0.284 C 
ATOM     29  C   UNL     1      -2.047   0.168   0.938  0.00  0.00    +0.210 C 
ATOM     30  O   UNL     1      -3.162   0.626   0.801  0.00  0.00    -0.288 OA
ATOM     31  C   UNL     1      -1.316   0.279   2.209  0.00  0.00    +0.063 A 
ATOM     32  C   UNL     1      -1.969   0.692   3.374  0.00  0.00    +0.019 A 
ATOM     33  C   UNL     1      -1.271   0.794   4.543  0.00  0.00    +0.046 A 
ATOM     34  C   UNL     1       0.088   0.490   4.579  0.00  0.00    +0.124 A 
ATOM     35  C   UNL     1       0.749   0.077   3.431  0.00  0.00    +0.092 A 
ATOM     36  C   UNL     1       0.054  -0.036   2.237  0.00  0.00    +0.135 A 
ATOM     37  O   UNL     1       0.694  -0.451   1.119  0.00  0.00    -0.484 OA
BRANCH  34  38
ATOM     38  O   UNL     1       0.771   0.600   5.745  0.00  0.00    -0.495 OA
ATOM     39  C   UNL     1       0.034   1.030   6.891  0.00  0.00    +0.277 C 
ENDBRANCH  34  38
ENDBRANCH  25  28
ENDBRANCH   1  25
TORSDOF 8
