REMARK  Name = ZINC13498765
REMARK  12 active torsions:
REMARK  status: ('A' for Active; 'I' for Inactive)
REMARK    1  A    between atoms: C_1  and  C_2
REMARK    2  A    between atoms: C_2  and  C_3
REMARK    3  A    between atoms: C_2  and  C_4
REMARK    4  A    between atoms: C_4  and  C_6
REMARK    5  A    between atoms: C_4  and  N_67
REMARK    6  A    between atoms: N_10  and  C_11
REMARK    7  A    between atoms: C_11  and  C_12
REMARK    8  A    between atoms: C_17  and  C_18
REMARK    9  A    between atoms: C_17  and  N_67
REMARK   10  A    between atoms: C_23  and  O_30
REMARK   11  A    between atoms: O_30  and  C_31
REMARK   12  A    between atoms: C_32  and  N_67
REMARK                            x       y       z     vdW  Elec       q    Type
REMARK                         _______ _______ _______ _____ _____    ______ ____
ROOT
ATOM      1  N   UNL     1       0.155   1.075   2.564  0.00  0.00    +0.391 N 
ATOM      2  H   UNL     1       0.370   1.945   3.064  0.00  0.00    -0.080 HD
ENDROOT
BRANCH   1   3
ATOM      3  C   UNL     1       1.331   0.682   1.758  0.00  0.00    -0.067 C 
ATOM      4  C   UNL     1       1.342   1.445   0.410  0.00  0.00    -0.015 C 
ATOM      5  C   UNL     1       2.842   1.429   0.021  0.00  0.00    -0.002 C 
ATOM      6  C   UNL     1       3.582   1.620   1.362  0.00  0.00    -0.002 C 
ATOM      7  C   UNL     1       2.621   1.145   2.466  0.00  0.00    -0.015 C 
ENDBRANCH   1   3
BRANCH   1   8
ATOM      8  C   UNL     1      -1.009   1.302   1.682  0.00  0.00    +0.006 C 
BRANCH   8   9
ATOM      9  C   UNL     1      -1.283   0.081   0.843  0.00  0.00    +0.139 A 
ATOM     10  N   UNL     1      -1.026  -1.163   1.165  0.00  0.00    -0.115 NA
ATOM     11  N   UNL     1      -1.405  -1.914   0.189  0.00  0.00    -0.023 NA
ATOM     12  N   UNL     1      -1.897  -1.180  -0.748  0.00  0.00    -0.044 NA
ATOM     13  N   UNL     1      -1.844   0.055  -0.380  0.00  0.00    -0.223 N 
BRANCH  13  14
ATOM     14  C   UNL     1      -2.305   1.213  -1.150  0.00  0.00    +0.221 C 
BRANCH  14  15
ATOM     15  C   UNL     1      -1.229   1.633  -2.119  0.00  0.00    +0.126 A 
ATOM     16  C   UNL     1      -1.017   1.104  -3.337  0.00  0.00    +0.046 A 
ATOM     17  C   UNL     1       0.083   1.793  -3.897  0.00  0.00    +0.041 A 
ATOM     18  C   UNL     1       0.483   2.696  -2.984  0.00  0.00    +0.195 A 
ATOM     19  O   UNL     1      -0.316   2.595  -1.909  0.00  0.00    -0.466 OA
ENDBRANCH  14  15
ENDBRANCH  13  14
ENDBRANCH   8   9
BRANCH   8  21
ATOM     20  C   UNL     1      -1.909   2.772   3.490  0.00  0.00    +0.006 C 
ATOM     21  C   UNL     1      -2.234   1.615   2.544  0.00  0.00    -0.024 C 
ATOM     22  C   UNL     1      -3.405   2.007   1.641  0.00  0.00    +0.006 C 
ENDBRANCH   8  21
ENDBRANCH   1   8
BRANCH   1  23
ATOM     23  C   UNL     1      -0.157   0.019   3.550  0.00  0.00    -0.036 C 
BRANCH  23  24
ATOM     24  C   UNL     1       0.955  -0.042   4.565  0.00  0.00    +0.001 A 
ATOM     25  C   UNL     1       0.873   0.695   5.702  0.00  0.00    +0.017 A 
ATOM     26  C   UNL     1       1.966   0.611   6.670  0.00  0.00    -0.001 A 
ATOM     27  C   UNL     1       1.935   1.345   7.862  0.00  0.00    +0.013 A 
ATOM     28  C   UNL     1       2.972   1.250   8.743  0.00  0.00    +0.046 A 
ATOM     29  C   UNL     1       4.064   0.428   8.467  0.00  0.00    +0.122 A 
ATOM     30  C   UNL     1       4.113  -0.306   7.295  0.00  0.00    +0.072 A 
ATOM     31  C   UNL     1       3.067  -0.222   6.385  0.00  0.00    +0.053 A 
ATOM     32  N   UNL     1       3.091  -0.941   5.209  0.00  0.00    -0.322 N 
ATOM     33  H   UNL     1       3.849  -1.514   5.014  0.00  0.00    +0.169 HD
ATOM     34  C   UNL     1       2.078  -0.860   4.328  0.00  0.00    +0.251 A 
ATOM     35  O   UNL     1       2.134  -1.510   3.298  0.00  0.00    -0.268 OA
BRANCH  29  36
ATOM     36  O   UNL     1       5.087   0.347   9.355  0.00  0.00    -0.495 OA
ATOM     37  C   UNL     1       4.976   1.129  10.547  0.00  0.00    +0.277 C 
ENDBRANCH  29  36
ENDBRANCH  23  24
ENDBRANCH   1  23
TORSDOF 9
