REMARK  Name = ZINC16001714
REMARK  4 active torsions:
REMARK  status: ('A' for Active; 'I' for Inactive)
REMARK    1  A    between atoms: C_1  and  C_2
REMARK    2  A    between atoms: C_4  and  C_37
REMARK    3  A    between atoms: N_21  and  C_24
REMARK    4  A    between atoms: C_28  and  N_30
REMARK                            x       y       z     vdW  Elec       q    Type
REMARK                         _______ _______ _______ _____ _____    ______ ____
ROOT
ATOM      1  C   UNL     1      -3.350   5.469   3.519  0.00  0.00    +0.044 C 
ATOM      2  C   UNL     1      -2.989   5.736   2.081  0.00  0.00    -0.050 A 
ATOM      3  C   UNL     1      -3.064   7.021   1.575  0.00  0.00    +0.008 A 
ATOM      4  C   UNL     1      -2.736   7.270   0.258  0.00  0.00    -0.029 A 
ATOM      5  C   UNL     1      -2.324   6.229  -0.571  0.00  0.00    +0.039 A 
ATOM      6  C   UNL     1      -2.250   4.940  -0.050  0.00  0.00    -0.027 A 
ATOM      7  C   UNL     1      -2.581   4.697   1.264  0.00  0.00    +0.008 A 
ATOM      8  C   UNL     1      -1.779   4.064  -1.178  0.00  0.00    +0.053 C 
ATOM      9  C   UNL     1      -0.604   3.239  -0.879  0.00  0.00    +0.089 C 
ATOM     10  C   UNL     1      -1.225   2.100   0.018  0.00  0.00    +0.074 C 
ATOM     11  C   UNL     1      -2.430   1.763  -0.846  0.00  0.00    -0.054 C 
ATOM     12  N   UNL     1      -2.822   3.044  -1.506  0.00  0.00    +0.395 N 
ATOM     13  C   UNL     1      -2.849   2.833  -2.963  0.00  0.00    -0.076 C 
ATOM     14  C   UNL     1      -2.902   1.299  -3.165  0.00  0.00    -0.020 C 
ATOM     15  C   UNL     1      -2.042   0.793  -1.976  0.00  0.00    -0.016 C 
ATOM     16  C   UNL     1      -0.014   1.208   0.009  0.00  0.00    +0.228 C 
ATOM     17  O   UNL     1       0.002  -0.004   0.002  0.00  0.00    -0.275 OA
ATOM     18  N   UNL     1       1.063   2.048   0.003  0.00  0.00    -0.210 N 
ATOM     19  C   UNL     1       0.732   3.335  -0.342  0.00  0.00    +0.229 C 
ATOM     20  O   UNL     1       1.411   4.332  -0.222  0.00  0.00    -0.275 OA
ATOM     21  C   UNL     1      -1.608   5.001  -2.348  0.00  0.00    +0.212 C 
ATOM     22  O   UNL     1      -1.239   4.704  -3.464  0.00  0.00    -0.277 OA
ATOM     23  N   UNL     1      -1.943   6.230  -1.914  0.00  0.00    -0.286 N 
ATOM     24  C   UNL     1      -2.822   8.673  -0.285  0.00  0.00    +0.045 C 
ATOM     25  H   UNL     1      -1.944   7.170  -2.485  0.00  0.00    +0.155 HD
ATOM     26  H   UNL     1      -3.816   3.378  -1.174  0.00  0.00    -0.079 HD
ENDROOT
BRANCH  18  27
ATOM     27  C   UNL     1       2.368   1.640   0.315  0.00  0.00    +0.046 A 
ATOM     28  C   UNL     1       3.410   2.557   0.285  0.00  0.00    +0.025 A 
ATOM     29  C   UNL     1       4.694   2.152   0.593  0.00  0.00    +0.024 A 
ATOM     30  C   UNL     1       4.943   0.834   0.931  0.00  0.00    +0.071 A 
ATOM     31  C   UNL     1       3.906  -0.083   0.962  0.00  0.00    +0.146 A 
ATOM     32  C   UNL     1       2.619   0.319   0.660  0.00  0.00    +0.058 A 
ATOM     33 CL   UNL     1       6.558   0.328   1.317  0.00  0.00    -0.081 Cl
BRANCH  31  34
ATOM     34  N   UNL     1       4.176  -1.492   1.323  0.00  0.00    +0.058 N 
ATOM     35  O   UNL     1       3.264  -2.299   1.350  0.00  0.00    -0.126 OA
ATOM     36  O   UNL     1       5.310  -1.846   1.593  0.00  0.00    -0.126 OA
ENDBRANCH  31  34
ENDBRANCH  18  27
TORSDOF 2
