REMARK  Name = ZINC19565269
REMARK  6 active torsions:
REMARK  status: ('A' for Active; 'I' for Inactive)
REMARK    1  A    between atoms: C_1  and  C_2
REMARK    2  A    between atoms: C_5  and  C_20
REMARK    3  A    between atoms: N_11  and  C_13
REMARK    4  A    between atoms: C_20  and  N_21
REMARK    5  A    between atoms: C_23  and  C_30
REMARK    6  A    between atoms: C_26  and  C_29
REMARK                            x       y       z     vdW  Elec       q    Type
REMARK                         _______ _______ _______ _____ _____    ______ ____
ROOT
ATOM      1  C   UNL     1       2.519   8.635   2.628  0.00  0.00    +0.068 C 
ATOM      2  C   UNL     1       2.554   8.576   1.123  0.00  0.00    +0.070 A 
ATOM      3  C   UNL     1       2.613   7.399   0.341  0.00  0.00    +0.041 A 
ATOM      4  C   UNL     1       2.656   6.022   0.660  0.00  0.00    +0.023 A 
ATOM      5  C   UNL     1       2.711   5.111  -0.346  0.00  0.00    +0.032 A 
ATOM      6  C   UNL     1       2.730   5.542  -1.685  0.00  0.00    +0.255 A 
ATOM      7  O   UNL     1       2.784   4.717  -2.583  0.00  0.00    -0.268 OA
ATOM      8  N   UNL     1       2.684   6.853  -1.989  0.00  0.00    -0.307 N 
ATOM      9  H   UNL     1       2.692   7.174  -3.041  0.00  0.00    +0.170 HD
ATOM     10  C   UNL     1       2.629   7.795  -0.998  0.00  0.00    +0.145 A 
ATOM     11  N   UNL     1       2.581   9.153  -1.008  0.00  0.00    -0.216 N 
ATOM     12  N   UNL     1       2.536   9.601   0.318  0.00  0.00    -0.169 NA
ENDROOT
BRANCH  11  13
ATOM     13  C   UNL     1       2.576   9.966  -2.150  0.00  0.00    +0.068 A 
ATOM     14  C   UNL     1       3.309   9.596  -3.269  0.00  0.00    +0.030 A 
ATOM     15  C   UNL     1       3.299  10.396  -4.395  0.00  0.00    +0.040 A 
ATOM     16  C   UNL     1       2.569  11.572  -4.404  0.00  0.00    +0.124 A 
ATOM     17  C   UNL     1       1.842  11.946  -3.285  0.00  0.00    +0.040 A 
ATOM     18  C   UNL     1       1.845  11.146  -2.160  0.00  0.00    +0.030 A 
ATOM     19  F   UNL     1       2.566  12.357  -5.504  0.00  0.00    -0.205 F 
ENDBRANCH  11  13
BRANCH   5  20
ATOM     20  C   UNL     1       2.757   3.639  -0.028  0.00  0.00    +0.125 C 
BRANCH  20  21
ATOM     21  N   UNL     1       1.397   3.085  -0.073  0.00  0.00    -0.293 NA
ATOM     22  C   UNL     1       1.423   1.617  -0.003  0.00  0.00    +0.116 C 
ATOM     23  C   UNL     1      -0.013   1.086   0.008  0.00  0.00    +0.130 C 
ATOM     24  O   UNL     1      -0.700   1.560  -1.153  0.00  0.00    -0.371 OA
ATOM     25  C   UNL     1      -0.745   2.986  -1.252  0.00  0.00    +0.130 C 
ATOM     26  C   UNL     1       0.683   3.537  -1.276  0.00  0.00    +0.116 C 
ATOM     27  C   UNL     1      -1.468   3.387  -2.540  0.00  0.00    +0.039 C 
ATOM     28  C   UNL     1      -0.731   1.580   1.266  0.00  0.00    +0.039 C 
ENDBRANCH  20  21
ENDBRANCH   5  20
TORSDOF 3
