REMARK  Name = ZINC13117076
REMARK  12 active torsions:
REMARK  status: ('A' for Active; 'I' for Inactive)
REMARK    1  A    between atoms: C_1  and  C_2
REMARK    2  A    between atoms: C_2  and  O_3
REMARK    3  A    between atoms: O_3  and  C_4
REMARK    4  A    between atoms: C_9  and  C_10
REMARK    5  A    between atoms: C_10  and  N_11
REMARK    6  A    between atoms: C_12  and  C_14
REMARK    7  A    between atoms: C_19  and  S_20
REMARK    8  A    between atoms: S_20  and  C_21
REMARK    9  A    between atoms: C_21  and  C_22
REMARK   10  A    between atoms: C_23  and  C_28
REMARK   11  A    between atoms: C_26  and  C_27
REMARK   12  A    between atoms: C_30  and  C_33
REMARK                            x       y       z     vdW  Elec       q    Type
REMARK                         _______ _______ _______ _____ _____    ______ ____
ROOT
ATOM      1  N   UNL     1      -2.524  -0.294   0.012  0.00  0.00    -0.307 N 
ATOM      2  C   UNL     1      -2.509   1.054   0.019  0.00  0.00    +0.247 C 
ATOM      3  O   UNL     1      -3.555   1.674   0.028  0.00  0.00    -0.270 OA
ATOM      4  H   UNL     1      -1.690  -0.788   0.006  0.00  0.00    +0.149 HD
ENDROOT
BRANCH   2   5
ATOM      5  C   UNL     1      -1.224   1.776   0.017  0.00  0.00    +0.068 A 
ATOM      6  C   UNL     1      -0.013   1.076   0.008  0.00  0.00    +0.017 A 
ATOM      7  C   UNL     1       1.166   1.800   0.001  0.00  0.00    +0.020 A 
ATOM      8  C   UNL     1       1.116   3.184   0.008  0.00  0.00    +0.112 A 
ATOM      9  N   UNL     1      -0.035   3.826   0.022  0.00  0.00    -0.248 NA
ATOM     10  C   UNL     1      -1.193   3.182   0.029  0.00  0.00    +0.109 A 
BRANCH  10  11
ATOM     11  S   UNL     1      -2.702   4.092   0.048  0.00  0.00    -0.100 S 
BRANCH  11  12
ATOM     12  C   UNL     1      -2.051   5.781   0.050  0.00  0.00    +0.116 C 
BRANCH  12  13
ATOM     13  C   UNL     1      -3.195   6.761   0.066  0.00  0.00    +0.027 A 
ATOM     14  C   UNL     1      -3.863   7.337  -1.039  0.00  0.00    +0.085 A 
ATOM     15  N   UNL     1      -4.781   8.118  -0.547  0.00  0.00    -0.083 NA
ATOM     16  O   UNL     1      -4.770   8.111   0.662  0.00  0.00    -0.359 OA
ATOM     17  C   UNL     1      -3.819   7.298   1.142  0.00  0.00    +0.138 A 
ATOM     18  C   UNL     1      -3.506   7.032   2.592  0.00  0.00    +0.089 C 
ATOM     19  C   UNL     1      -3.572   7.093  -2.497  0.00  0.00    +0.069 C 
ENDBRANCH  12  13
ENDBRANCH  11  12
ENDBRANCH  10  11
ENDBRANCH   2   5
BRANCH   1  20
ATOM     20  C   UNL     1      -3.801  -1.012   0.014  0.00  0.00    +0.143 C 
BRANCH  20  26
ATOM     21  C   UNL     1      -3.213  -3.147   1.185  0.00  0.00    +0.126 A 
ATOM     22  C   UNL     1      -2.979  -4.515   1.172  0.00  0.00    +0.053 A 
ATOM     23  C   UNL     1      -3.075  -5.218  -0.008  0.00  0.00    +0.001 A 
ATOM     24  C   UNL     1      -3.398  -4.574  -1.196  0.00  0.00    +0.125 A 
ATOM     25  C   UNL     1      -3.640  -3.203  -1.175  0.00  0.00    +0.054 A 
ATOM     26  C   UNL     1      -3.543  -2.497   0.005  0.00  0.00    +0.015 A 
ATOM     27  O   UNL     1      -3.425  -5.449  -2.240  0.00  0.00    -0.488 OA
ATOM     28  C   UNL     1      -3.555  -6.788  -1.732  0.00  0.00    +0.175 C 
ATOM     29  C   UNL     1      -2.900  -6.689  -0.334  0.00  0.00    +0.083 C 
ATOM     30  C   UNL     1      -5.029  -7.182  -1.613  0.00  0.00    +0.052 C 
BRANCH  21  31
ATOM     31  O   UNL     1      -3.119  -2.448   2.347  0.00  0.00    -0.492 OA
BRANCH  31  33
ATOM     32  C   UNL     1      -2.717  -2.238   4.721  0.00  0.00    +0.048 C 
ATOM     33  C   UNL     1      -2.775  -3.186   3.522  0.00  0.00    +0.225 C 
ENDBRANCH  31  33
ENDBRANCH  21  31
ENDBRANCH  20  26
ENDBRANCH   1  20
TORSDOF 8
