REMARK  Name = ZINC63572610
REMARK  6 active torsions:
REMARK  status: ('A' for Active; 'I' for Inactive)
REMARK    1  A    between atoms: C_1  and  C_2
REMARK    2  A    between atoms: C_2  and  O_3
REMARK    3  A    between atoms: O_3  and  C_4
REMARK    4  A    between atoms: C_4  and  C_6
REMARK    5  A    between atoms: C_6  and  N_7
REMARK    6  A    between atoms: C_23  and  C_25
REMARK                            x       y       z     vdW  Elec       q    Type
REMARK                         _______ _______ _______ _____ _____    ______ ____
ROOT
ATOM      1  N   UNL     1       0.411  -4.083  -3.308  0.00  0.00    -0.289 N 
ATOM      2  C   UNL     1       1.343  -4.736  -4.031  0.00  0.00    +0.303 C 
ATOM      3  O   UNL     1       1.861  -4.193  -4.988  0.00  0.00    -0.253 OA
ATOM      4  N   UNL     1       1.700  -5.991  -3.693  0.00  0.00    -0.276 N 
ATOM      5  C   UNL     1       0.980  -6.687  -2.622  0.00  0.00    +0.114 C 
ATOM      6  C   UNL     1       1.974  -7.106  -1.524  0.00  0.00    +0.052 C 
ATOM      7  C   UNL     1       3.164  -7.711  -2.225  0.00  0.00    -0.035 C 
ATOM      8  C   UNL     1       3.787  -8.871  -2.055  0.00  0.00    +0.001 A 
ATOM      9  C   UNL     1       3.618  -9.937  -1.055  0.00  0.00    +0.030 A 
ATOM     10  C   UNL     1       4.428 -11.020  -1.189  0.00  0.00    +0.042 A 
ATOM     11  C   UNL     1       5.380 -11.148  -2.208  0.00  0.00    +0.022 A 
ATOM     12  C   UNL     1       5.609 -10.213  -3.165  0.00  0.00    +0.027 A 
ATOM     13  C   UNL     1       4.823  -9.025  -3.123  0.00  0.00    +0.043 A 
ATOM     14  N   UNL     1       4.847  -7.973  -3.887  0.00  0.00    -0.375 N 
ATOM     15  C   UNL     1       3.882  -7.003  -3.368  0.00  0.00    +0.131 C 
ATOM     16  C   UNL     1       2.805  -6.650  -4.407  0.00  0.00    +0.134 C 
ATOM     17 CL   UNL     1       4.276 -12.311  -0.039  0.00  0.00    -0.084 Cl
ATOM     18  H   UNL     1      -0.054  -4.540  -2.591  0.00  0.00    +0.151 HD
ATOM     19  H   UNL     1       5.409  -7.853  -4.669  0.00  0.00    +0.160 HD
ENDROOT
BRANCH  16  20
ATOM     20  C   UNL     1       3.376  -5.714  -5.440  0.00  0.00    -0.025 A 
ATOM     21  C   UNL     1       4.035  -4.565  -5.042  0.00  0.00    +0.008 A 
ATOM     22  C   UNL     1       4.559  -3.705  -5.989  0.00  0.00    +0.038 A 
ATOM     23  C   UNL     1       4.425  -3.995  -7.336  0.00  0.00    +0.123 A 
ATOM     24  C   UNL     1       3.766  -5.146  -7.733  0.00  0.00    +0.038 A 
ATOM     25  C   UNL     1       3.247  -6.006  -6.785  0.00  0.00    +0.008 A 
ATOM     26  F   UNL     1       4.937  -3.155  -8.262  0.00  0.00    -0.205 F 
ENDBRANCH  16  20
BRANCH   1  27
ATOM     27  C   UNL     1       0.103  -2.682  -3.606  0.00  0.00    +0.226 C 
BRANCH  27  28
ATOM     28  C   UNL     1      -0.964  -2.191  -2.661  0.00  0.00    +0.324 C 
ATOM     29  O   UNL     1      -1.419  -2.935  -1.825  0.00  0.00    -0.249 OA
BRANCH  28  30
ATOM     30  O   UNL     1      -1.407  -0.927  -2.748  0.00  0.00    -0.464 OA
BRANCH  30  32
ATOM     31  C   UNL     1      -2.795   0.932  -2.073  0.00  0.00    +0.048 C 
ATOM     32  C   UNL     1      -2.420  -0.529  -1.821  0.00  0.00    +0.229 C 
ENDBRANCH  30  32
ENDBRANCH  28  30
ENDBRANCH  27  28
ENDBRANCH   1  27
TORSDOF 5
