REMARK  Name = ZINC34749193
REMARK  10 active torsions:
REMARK  status: ('A' for Active; 'I' for Inactive)
REMARK    1  A    between atoms: C_1  and  C_2
REMARK    2  A    between atoms: C_2  and  C_3
REMARK    3  A    between atoms: C_4  and  C_36
REMARK    4  A    between atoms: N_10  and  C_28
REMARK    5  A    between atoms: N_16  and  C_19
REMARK    6  A    between atoms: C_19  and  C_20
REMARK    7  A    between atoms: C_22  and  C_27
REMARK    8  A    between atoms: C_25  and  C_26
REMARK    9  A    between atoms: C_28  and  C_29
REMARK   10  A    between atoms: C_29  and  C_30
REMARK                            x       y       z     vdW  Elec       q    Type
REMARK                         _______ _______ _______ _____ _____    ______ ____
ROOT
ATOM      1  C   UNL     1      -1.380  -0.477  -0.035  0.00  0.00    -0.023 A 
ATOM      2  C   UNL     1      -1.989  -0.675   1.143  0.00  0.00    -0.007 A 
ATOM      3  S   UNL     1      -3.610  -1.254   0.680  0.00  0.00    -0.073 S 
ATOM      4  C   UNL     1      -3.423  -1.214  -1.084  0.00  0.00    +0.117 A 
ATOM      5  C   UNL     1      -2.108  -0.746  -1.263  0.00  0.00    +0.076 A 
ATOM      6  C   UNL     1      -1.677  -0.608  -2.620  0.00  0.00    +0.264 A 
ATOM      7  O   UNL     1      -0.552  -0.213  -2.874  0.00  0.00    -0.267 OA
ATOM      8  N   UNL     1      -2.530  -0.919  -3.614  0.00  0.00    -0.280 N 
ATOM      9  C   UNL     1      -3.793  -1.361  -3.350  0.00  0.00    +0.202 A 
ATOM     10  N   UNL     1      -4.213  -1.508  -2.110  0.00  0.00    -0.208 NA
ATOM     11  N   UNL     1      -4.634  -1.668  -4.390  0.00  0.00    -0.304 N 
ATOM     12  C   UNL     1      -4.736  -3.044  -4.899  0.00  0.00    +0.089 C 
ATOM     13  C   UNL     1      -6.218  -3.429  -4.965  0.00  0.00    -0.059 C 
ATOM     14  N   UNL     1      -6.947  -2.433  -5.760  0.00  0.00    +0.384 N 
ATOM     15  C   UNL     1      -6.907  -1.129  -5.087  0.00  0.00    -0.059 C 
ATOM     16  C   UNL     1      -5.463  -0.631  -5.024  0.00  0.00    +0.089 C 
ATOM     17  C   UNL     1      -1.435  -0.459   2.528  0.00  0.00    +0.052 C 
ATOM     18  H   UNL     1      -6.519  -2.353  -6.671  0.00  0.00    -0.081 HD
ENDROOT
BRANCH   1  20
ATOM     19  C   UNL     1       0.041   1.553  -0.115  0.00  0.00    +0.009 C 
ATOM     20  C   UNL     1       0.040   0.024  -0.085  0.00  0.00    +0.033 C 
ENDBRANCH   1  20
BRANCH  14  21
ATOM     21  C   UNL     1      -8.344  -2.859  -5.915  0.00  0.00    -0.043 C 
BRANCH  21  22
ATOM     22  C   UNL     1      -9.062  -1.903  -6.832  0.00  0.00    -0.061 A 
ATOM     23  C   UNL     1      -9.867  -0.911  -6.303  0.00  0.00    +0.005 A 
ATOM     24  C   UNL     1     -10.525  -0.034  -7.144  0.00  0.00    -0.050 A 
ATOM     25  C   UNL     1     -10.380  -0.149  -8.514  0.00  0.00    +0.003 A 
ATOM     26  C   UNL     1      -9.575  -1.140  -9.043  0.00  0.00    +0.004 A 
ATOM     27  C   UNL     1      -8.913  -2.015  -8.201  0.00  0.00    -0.049 A 
ATOM     28  C   UNL     1      -8.031  -3.093  -8.778  0.00  0.00    +0.044 C 
ATOM     29  C   UNL     1     -11.403   1.047  -6.568  0.00  0.00    +0.044 C 
ENDBRANCH  21  22
ENDBRANCH  14  21
BRANCH   8  30
ATOM     30  C   UNL     1      -2.094  -0.779  -5.005  0.00  0.00    +0.133 C 
BRANCH  30  31
ATOM     31  C   UNL     1      -1.341  -2.040  -5.433  0.00  0.00    +0.057 C 
BRANCH  31  32
ATOM     32  C   UNL     1      -0.790  -1.849  -6.823  0.00  0.00    -0.046 A 
ATOM     33  C   UNL     1      -1.509  -2.292  -7.918  0.00  0.00    +0.004 A 
ATOM     34  C   UNL     1      -1.003  -2.117  -9.193  0.00  0.00    +0.000 A 
ATOM     35  C   UNL     1       0.220  -1.499  -9.372  0.00  0.00    +0.000 A 
ATOM     36  C   UNL     1       0.938  -1.055  -8.277  0.00  0.00    +0.000 A 
ATOM     37  C   UNL     1       0.430  -1.226  -7.003  0.00  0.00    +0.004 A 
ENDBRANCH  31  32
ENDBRANCH  30  31
ENDBRANCH   8  30
TORSDOF 6
