REMARK  Name = ZINC12731807
REMARK  9 active torsions:
REMARK  status: ('A' for Active; 'I' for Inactive)
REMARK    1  A    between atoms: C_1  and  C_2
REMARK    2  A    between atoms: C_2  and  O_3
REMARK    3  A    between atoms: O_3  and  C_4
REMARK    4  A    between atoms: C_9  and  N_10
REMARK    5  A    between atoms: C_11  and  C_13
REMARK    6  A    between atoms: C_13  and  C_15
REMARK    7  A    between atoms: C_13  and  N_62
REMARK    8  A    between atoms: C_18  and  C_21
REMARK    9  A    between atoms: C_21  and  C_23
REMARK                            x       y       z     vdW  Elec       q    Type
REMARK                         _______ _______ _______ _____ _____    ______ ____
ROOT
ATOM      1  C   UNL     1      -7.429  -0.210  -0.506  0.00  0.00    -0.077 C 
ATOM      2  C   UNL     1      -6.088  -0.945  -0.577  0.00  0.00    -0.007 C 
ATOM      3  C   UNL     1      -4.994  -0.058   0.023  0.00  0.00    +0.057 C 
ATOM      4  C   UNL     1      -5.368   0.296   1.465  0.00  0.00    -0.007 C 
ATOM      5  C   UNL     1      -6.729   0.995   1.476  0.00  0.00    -0.077 C 
ATOM      6  N   UNL     1      -7.743   0.080   0.909  0.00  0.00    +0.387 N 
ATOM      7  H   UNL     1      -7.732  -0.799   1.440  0.00  0.00    -0.081 HD
ENDROOT
BRANCH   6   8
ATOM      8  C   UNL     1      -9.086   0.688   1.014  0.00  0.00    +0.016 C 
ATOM      9  C   UNL     1      -9.123   2.038   0.295  0.00  0.00    -0.004 C 
BRANCH   8  11
ATOM     10  N   UNL     1     -10.609   1.409   2.824  0.00  0.00    -0.284 N 
ATOM     11  C   UNL     1      -9.419   0.884   2.470  0.00  0.00    +0.203 C 
ATOM     12  O   UNL     1      -8.617   0.571   3.324  0.00  0.00    -0.277 OA
ATOM     13  H   UNL     1     -11.218   1.734   2.142  0.00  0.00    +0.155 HD
BRANCH  10  19
ATOM     14  C   UNL     1     -11.893   2.435   4.602  0.00  0.00    +0.142 A 
ATOM     15  C   UNL     1     -12.243   2.506   5.941  0.00  0.00    +0.047 A 
ATOM     16  C   UNL     1     -11.674   1.634   6.851  0.00  0.00    +0.004 A 
ATOM     17  C   UNL     1     -10.755   0.691   6.429  0.00  0.00    +0.002 A 
ATOM     18  C   UNL     1     -10.405   0.611   5.095  0.00  0.00    +0.027 A 
ATOM     19  C   UNL     1     -10.967   1.485   4.177  0.00  0.00    +0.076 A 
BRANCH  14  20
ATOM     20  O   UNL     1     -12.452   3.291   3.705  0.00  0.00    -0.490 OA
BRANCH  20  22
ATOM     21  C   UNL     1     -13.911   5.108   3.065  0.00  0.00    +0.048 C 
ATOM     22  C   UNL     1     -13.393   4.239   4.213  0.00  0.00    +0.226 C 
ENDBRANCH  20  22
ENDBRANCH  14  20
ENDBRANCH  10  19
ENDBRANCH   8  11
ENDBRANCH   6   8
BRANCH   3  23
ATOM     23  C   UNL     1      -3.682  -0.800   0.011  0.00  0.00    +0.166 C 
ATOM     24  O   UNL     1      -3.671  -2.013   0.011  0.00  0.00    -0.292 OA
BRANCH  23  25
ATOM     25  C   UNL     1      -2.417  -0.054  -0.001  0.00  0.00    +0.021 A 
ATOM     26  C   UNL     1      -2.426   1.346  -0.001  0.00  0.00    +0.015 A 
ATOM     27  C   UNL     1      -1.239   2.041  -0.018  0.00  0.00    +0.050 A 
ATOM     28  C   UNL     1      -0.026   1.359  -0.026  0.00  0.00    +0.162 A 
ATOM     29  C   UNL     1      -0.009  -0.034  -0.024  0.00  0.00    +0.163 A 
ATOM     30  C   UNL     1      -1.197  -0.740  -0.012  0.00  0.00    +0.060 A 
ATOM     31  O   UNL     1       1.170  -0.716  -0.032  0.00  0.00    -0.485 OA
ATOM     32  C   UNL     1       2.335   0.020  -0.420  0.00  0.00    +0.270 C 
ATOM     33  C   UNL     1       2.325   1.363   0.322  0.00  0.00    +0.270 C 
ATOM     34  O   UNL     1       1.133   2.068  -0.042  0.00  0.00    -0.485 OA
ENDBRANCH  23  25
ENDBRANCH   3  23
TORSDOF 7
