REMARK  Name = ZINC08998604
REMARK  9 active torsions:
REMARK  status: ('A' for Active; 'I' for Inactive)
REMARK    1  A    between atoms: C_1  and  C_2
REMARK    2  A    between atoms: C_2  and  O_3
REMARK    3  A    between atoms: O_3  and  C_4
REMARK    4  A    between atoms: C_4  and  C_5
REMARK    5  A    between atoms: C_5  and  N_6
REMARK    6  A    between atoms: C_10  and  S_28
REMARK    7  A    between atoms: N_15  and  C_16
REMARK    8  A    between atoms: C_16  and  C_18
REMARK    9  A    between atoms: S_28  and  N_31
REMARK                            x       y       z     vdW  Elec       q    Type
REMARK                         _______ _______ _______ _____ _____    ______ ____
ROOT
ATOM      1  N   UNL     1      -2.079   5.769   0.059  0.00  0.00    -0.319 N 
ATOM      2  C   UNL     1      -3.280   6.453   0.107  0.00  0.00    +0.058 A 
ATOM      3  C   UNL     1      -3.472   7.845   0.145  0.00  0.00    +0.029 A 
ATOM      4  C   UNL     1      -4.736   8.382   0.193  0.00  0.00    +0.030 A 
ATOM      5  C   UNL     1      -5.860   7.574   0.204  0.00  0.00    +0.106 A 
ATOM      6  C   UNL     1      -5.702   6.200   0.167  0.00  0.00    +0.045 A 
ATOM      7  C   UNL     1      -4.438   5.662   0.120  0.00  0.00    +0.041 A 
ATOM      8  S   UNL     1      -3.804   4.003   0.056  0.00  0.00    -0.052 S 
ATOM      9  C   UNL     1      -2.064   4.406   0.026  0.00  0.00    +0.167 A 
ATOM     10  N   UNL     1      -1.022   3.586  -0.022  0.00  0.00    -0.152 NA
ENDROOT
BRANCH   5  11
ATOM     11  S   UNL     1      -7.471   8.286   0.264  0.00  0.00    +0.056 S 
ATOM     12  O   UNL     1      -8.331   7.298   0.815  0.00  0.00    -0.153 OA
ATOM     13  O   UNL     1      -7.323   9.575   0.843  0.00  0.00    -0.153 OA
BRANCH  11  14
ATOM     14  N   UNL     1      -7.961   8.522  -1.300  0.00  0.00    -0.204 NA
ATOM     15  H   UNL     1      -8.904   8.483  -1.524  0.00  0.00    +0.144 HD
ATOM     16  H   UNL     1      -7.305   8.700  -1.992  0.00  0.00    +0.144 HD
ENDBRANCH  11  14
ENDBRANCH   5  11
BRANCH  10  17
ATOM     17  C   UNL     1      -1.212   2.260  -0.048  0.00  0.00    +0.278 C 
ATOM     18  O   UNL     1      -2.345   1.807  -0.027  0.00  0.00    -0.267 OA
BRANCH  17  19
ATOM     19  C   UNL     1      -0.056   1.351  -0.101  0.00  0.00    +0.095 A 
ATOM     20  C   UNL     1      -0.048  -0.008  -0.133  0.00  0.00    +0.068 A 
ATOM     21  C   UNL     1       1.177  -0.701  -0.188  0.00  0.00    +0.008 A 
ATOM     22  C   UNL     1       1.391  -2.103  -0.228  0.00  0.00    +0.010 A 
ATOM     23  C   UNL     1       2.649  -2.612  -0.281  0.00  0.00    +0.001 A 
ATOM     24  C   UNL     1       3.768  -1.789  -0.297  0.00  0.00    +0.001 A 
ATOM     25  C   UNL     1       3.605  -0.419  -0.260  0.00  0.00    +0.016 A 
ATOM     26  C   UNL     1       2.334   0.112  -0.206  0.00  0.00    +0.021 A 
ATOM     27  S   UNL     1       1.680   1.762  -0.146  0.00  0.00    -0.082 S 
ATOM     28 CL   UNL     1      -1.544  -0.887  -0.105  0.00  0.00    -0.082 Cl
ENDBRANCH  17  19
ENDBRANCH  10  17
BRANCH   1  29
ATOM     29  C   UNL     1      -0.817   6.512   0.042  0.00  0.00    +0.152 C 
BRANCH  29  30
ATOM     30  C   UNL     1       0.232   5.755   0.860  0.00  0.00    +0.181 C 
BRANCH  30  31
ATOM     31  O   UNL     1       1.420   6.543   0.956  0.00  0.00    -0.378 OA
BRANCH  31  33
ATOM     32  C   UNL     1       3.685   6.851   1.742  0.00  0.00    +0.034 C 
ATOM     33  C   UNL     1       2.468   5.924   1.705  0.00  0.00    +0.156 C 
ENDBRANCH  31  33
ENDBRANCH  30  31
ENDBRANCH  29  30
ENDBRANCH   1  29
TORSDOF 8
