REMARK  Name = ZINC34946148
REMARK  11 active torsions:
REMARK  status: ('A' for Active; 'I' for Inactive)
REMARK    1  A    between atoms: C_4  and  C_7
REMARK    2  A    between atoms: C_7  and  N_8
REMARK    3  A    between atoms: C_11  and  N_14
REMARK    4  A    between atoms: C_15  and  C_17
REMARK    5  A    between atoms: C_17  and  C_18
REMARK    6  A    between atoms: C_18  and  N_19
REMARK    7  A    between atoms: N_19  and  C_20
REMARK    8  A    between atoms: C_26  and  C_28
REMARK    9  A    between atoms: C_28  and  O_29
REMARK   10  A    between atoms: O_29  and  C_30
REMARK   11  A    between atoms: C_30  and  C_31
REMARK                            x       y       z     vdW  Elec       q    Type
REMARK                         _______ _______ _______ _____ _____    ______ ____
ROOT
ATOM      1  C   UNL     1       6.856  -3.560   6.812  0.00  0.00    +0.114 C 
ENDROOT
BRANCH   1   3
ATOM      2  N   UNL     1       5.556  -2.147   5.252  0.00  0.00    -0.313 N 
ATOM      3  C   UNL     1       6.401  -3.183   5.425  0.00  0.00    +0.215 C 
ATOM      4  O   UNL     1       6.794  -3.811   4.466  0.00  0.00    -0.276 OA
ATOM      5  H   UNL     1       5.242  -1.644   6.019  0.00  0.00    +0.149 HD
BRANCH   2   9
ATOM      6  N   UNL     1       4.361   0.304   2.038  0.00  0.00    +0.382 N 
ATOM      7  C   UNL     1       3.349  -0.607   2.585  0.00  0.00    -0.077 C 
ATOM      8  C   UNL     1       3.766  -1.058   3.986  0.00  0.00    +0.003 C 
ATOM      9  C   UNL     1       5.114  -1.780   3.904  0.00  0.00    +0.069 C 
ATOM     10  C   UNL     1       6.145  -0.845   3.264  0.00  0.00    +0.003 C 
ATOM     11  C   UNL     1       5.639  -0.402   1.889  0.00  0.00    -0.077 C 
ATOM     12  H   UNL     1       4.481   1.086   2.665  0.00  0.00    -0.081 HD
BRANCH   6  13
ATOM     13  C   UNL     1       3.919   0.795   0.726  0.00  0.00    -0.043 C 
BRANCH  13  17
ATOM     14  C   UNL     1       0.385   3.147   1.200  0.00  0.00    +0.000 A 
ATOM     15  C   UNL     1       1.628   3.747   1.265  0.00  0.00    +0.000 A 
ATOM     16  C   UNL     1       2.772   2.986   1.111  0.00  0.00    +0.002 A 
ATOM     17  C   UNL     1       2.672   1.624   0.894  0.00  0.00    -0.064 A 
ATOM     18  C   UNL     1       1.429   1.024   0.831  0.00  0.00    +0.002 A 
ATOM     19  C   UNL     1       0.285   1.785   0.982  0.00  0.00    +0.000 A 
ENDBRANCH  13  17
ENDBRANCH   6  13
ENDBRANCH   2   9
ENDBRANCH   1   3
BRANCH   1  20
ATOM     20  C   UNL     1       7.801  -4.760   6.729  0.00  0.00    +0.117 C 
BRANCH  20  21
ATOM     21  N   UNL     1       8.243  -5.127   8.077  0.00  0.00    -0.296 N 
ATOM     22  C   UNL     1       9.357  -4.572   8.595  0.00  0.00    +0.242 C 
ATOM     23  O   UNL     1       9.934  -3.693   7.991  0.00  0.00    -0.273 OA
BRANCH  21  24
ATOM     24  C   UNL     1       7.476  -6.098   8.860  0.00  0.00    +0.076 C 
ATOM     25  C   UNL     1       7.538  -7.467   8.180  0.00  0.00    +0.022 C 
ATOM     26  C   UNL     1       6.736  -8.480   8.998  0.00  0.00    +0.002 C 
ATOM     27  C   UNL     1       5.279  -8.023   9.091  0.00  0.00    +0.000 C 
ATOM     28  C   UNL     1       5.217  -6.654   9.771  0.00  0.00    +0.002 C 
ATOM     29  C   UNL     1       6.019  -5.640   8.953  0.00  0.00    +0.022 C 
ENDBRANCH  21  24
BRANCH  22  30
ATOM     30  C   UNL     1       9.884  -5.043   9.926  0.00  0.00    +0.256 C 
BRANCH  30  31
ATOM     31  O   UNL     1      11.051  -4.293  10.268  0.00  0.00    -0.366 OA
BRANCH  31  32
ATOM     32  C   UNL     1      11.633  -4.663  11.520  0.00  0.00    +0.195 C 
BRANCH  32  33
ATOM     33  C   UNL     1      12.851  -3.813  11.778  0.00  0.00    -0.022 A 
ATOM     34  C   UNL     1      14.092  -4.230  11.335  0.00  0.00    +0.006 A 
ATOM     35  C   UNL     1      15.208  -3.450  11.572  0.00  0.00    +0.000 A 
ATOM     36  C   UNL     1      15.084  -2.253  12.253  0.00  0.00    +0.000 A 
ATOM     37  C   UNL     1      13.842  -1.836  12.696  0.00  0.00    +0.000 A 
ATOM     38  C   UNL     1      12.725  -2.614  12.455  0.00  0.00    +0.006 A 
ENDBRANCH  32  33
ENDBRANCH  31  32
ENDBRANCH  30  31
ENDBRANCH  22  30
ENDBRANCH  20  21
ENDBRANCH   1  20
TORSDOF 11
