REMARK  Name = ZINC16524441
REMARK  6 active torsions:
REMARK  status: ('A' for Active; 'I' for Inactive)
REMARK    1  A    between atoms: C_7  and  C_17
REMARK    2  A    between atoms: C_7  and  O_30
REMARK    3  A    between atoms: N_10  and  C_11
REMARK    4  A    between atoms: C_11  and  N_61
REMARK    5  A    between atoms: C_17  and  C_18
REMARK    6  A    between atoms: C_18  and  C_20
REMARK                            x       y       z     vdW  Elec       q    Type
REMARK                         _______ _______ _______ _____ _____    ______ ____
ROOT
ATOM      1  C   UNL     1       0.543  -2.729  -0.017  0.00  0.00    +0.000 A 
ATOM      2  C   UNL     1      -0.766  -2.281  -0.002  0.00  0.00    +0.002 A 
ATOM      3  C   UNL     1      -1.040  -0.929   0.007  0.00  0.00    +0.024 A 
ATOM      4  C   UNL     1       0.002  -0.004   0.002  0.00  0.00    +0.041 A 
ATOM      5  C   UNL     1       1.312  -0.467  -0.013  0.00  0.00    +0.014 A 
ATOM      6  C   UNL     1       1.583  -1.816  -0.022  0.00  0.00    +0.009 A 
ATOM      7  C   UNL     1       2.196   0.759  -0.015  0.00  0.00    +0.175 C 
ATOM      8  C   UNL     1       1.220   1.917   0.001  0.00  0.00    +0.255 C 
ATOM      9  O   UNL     1       1.501   3.096   0.004  0.00  0.00    -0.272 OA
ATOM     10  N   UNL     1      -0.017   1.391   0.010  0.00  0.00    -0.285 N 
ENDROOT
BRANCH   7  11
ATOM     11  O   UNL     1       3.000   0.795  -1.195  0.00  0.00    -0.374 OA
ATOM     12  H   UNL     1       3.587   1.562  -1.248  0.00  0.00    +0.211 HD
ENDBRANCH   7  11
BRANCH  10  13
ATOM     13  C   UNL     1      -1.244   2.191   0.020  0.00  0.00    +0.038 C 
BRANCH  13  19
ATOM     14  C   UNL     1      -2.357   1.297   1.975  0.00  0.00    -0.077 C 
ATOM     15  C   UNL     1      -2.633   1.545   3.460  0.00  0.00    -0.019 C 
ATOM     16  C   UNL     1      -3.478   2.813   3.612  0.00  0.00    -0.004 C 
ATOM     17  C   UNL     1      -2.738   3.990   2.972  0.00  0.00    -0.019 C 
ATOM     18  C   UNL     1      -2.459   3.671   1.501  0.00  0.00    -0.077 C 
ATOM     19  N   UNL     1      -1.622   2.455   1.424  0.00  0.00    +0.390 N 
ATOM     20  H   UNL     1      -0.769   2.602   1.977  0.00  0.00    -0.080 HD
ENDBRANCH  13  19
ENDBRANCH  10  13
BRANCH   7  21
ATOM     21  C   UNL     1       3.078   0.786   1.235  0.00  0.00    +0.129 C 
BRANCH  21  22
ATOM     22  C   UNL     1       3.859   2.074   1.271  0.00  0.00    +0.167 C 
ATOM     23  O   UNL     1       3.723   2.891   0.385  0.00  0.00    -0.292 OA
BRANCH  22  24
ATOM     24  C   UNL     1       4.787   2.341   2.382  0.00  0.00    +0.018 A 
ATOM     25  C   UNL     1       4.944   1.406   3.410  0.00  0.00    +0.011 A 
ATOM     26  C   UNL     1       5.818   1.669   4.439  0.00  0.00    +0.004 A 
ATOM     27  C   UNL     1       6.537   2.860   4.476  0.00  0.00    -0.044 A 
ATOM     28  C   UNL     1       6.385   3.787   3.468  0.00  0.00    -0.044 A 
ATOM     29  C   UNL     1       5.513   3.532   2.422  0.00  0.00    +0.015 A 
ATOM     30  C   UNL     1       7.142   5.090   3.444  0.00  0.00    +0.035 C 
ATOM     31  C   UNL     1       7.705   5.410   4.827  0.00  0.00    +0.005 C 
ATOM     32  C   UNL     1       8.472   4.182   5.332  0.00  0.00    +0.005 C 
ATOM     33  C   UNL     1       7.463   3.080   5.645  0.00  0.00    +0.035 C 
ENDBRANCH  22  24
ENDBRANCH  21  22
ENDBRANCH   7  21
TORSDOF 6
