REMARK  Name = ZINC35817486
REMARK  12 active torsions:
REMARK  status: ('A' for Active; 'I' for Inactive)
REMARK    1  A    between atoms: C_1  and  C_2
REMARK    2  A    between atoms: C_2  and  C_3
REMARK    3  A    between atoms: C_3  and  C_5
REMARK    4  A    between atoms: C_3  and  O_6
REMARK    5  A    between atoms: O_6  and  C_7
REMARK    6  A    between atoms: C_7  and  C_9
REMARK    7  A    between atoms: C_10  and  C_39
REMARK    8  A    between atoms: C_14  and  C_16
REMARK    9  A    between atoms: C_19  and  O_22
REMARK   10  A    between atoms: O_22  and  C_23
REMARK   11  A    between atoms: C_23  and  C_25
REMARK   12  A    between atoms: C_29  and  C_32
REMARK                            x       y       z     vdW  Elec       q    Type
REMARK                         _______ _______ _______ _____ _____    ______ ____
ROOT
ATOM      1  C   UNL     1      -3.641  -0.309   2.357  0.00  0.00    +0.065 C 
ATOM      2  C   UNL     1      -4.753   0.014   1.673  0.00  0.00    +0.016 C 
ATOM      3  N   UNL     1      -5.697   0.829   2.232  0.00  0.00    -0.321 N 
ATOM      4  C   UNL     1      -5.749   1.007   3.589  0.00  0.00    +0.016 C 
ATOM      5  C   UNL     1      -4.675   0.728   4.358  0.00  0.00    +0.024 C 
ATOM      6  C   UNL     1      -3.401   0.211   3.743  0.00  0.00    +0.092 C 
ATOM      7  C   UNL     1      -4.713   0.911   5.751  0.00  0.00    +0.162 C 
ATOM      8  O   UNL     1      -3.735   0.635   6.416  0.00  0.00    -0.292 OA
ATOM      9  C   UNL     1      -5.944   1.442   6.434  0.00  0.00    +0.088 C 
ATOM     10  C   UNL     1      -6.711   2.336   5.454  0.00  0.00    +0.032 C 
ATOM     11  C   UNL     1      -7.030   1.518   4.200  0.00  0.00    +0.059 C 
ATOM     12  C   UNL     1      -4.958  -0.525   0.281  0.00  0.00    +0.061 C 
ATOM     13  H   UNL     1      -6.337   1.284   1.663  0.00  0.00    +0.152 HD
ENDROOT
BRANCH  10  14
ATOM     14  C   UNL     1      -7.991   2.808   6.094  0.00  0.00    -0.043 A 
ATOM     15  C   UNL     1      -8.932   1.889   6.518  0.00  0.00    +0.005 A 
ATOM     16  C   UNL     1     -10.106   2.321   7.106  0.00  0.00    +0.020 A 
ATOM     17  C   UNL     1     -10.339   3.675   7.269  0.00  0.00    +0.041 A 
ATOM     18  C   UNL     1      -9.397   4.595   6.845  0.00  0.00    +0.020 A 
ATOM     19  C   UNL     1      -8.221   4.161   6.263  0.00  0.00    +0.005 A 
ATOM     20 CL   UNL     1     -11.813   4.219   8.007  0.00  0.00    -0.084 Cl
ENDBRANCH  10  14
BRANCH   6  21
ATOM     21  C   UNL     1      -2.395   1.332   3.684  0.00  0.00    -0.035 A 
ATOM     22  C   UNL     1      -2.670   2.467   2.944  0.00  0.00    +0.008 A 
ATOM     23  C   UNL     1      -1.750   3.495   2.887  0.00  0.00    +0.046 A 
ATOM     24  C   UNL     1      -0.549   3.389   3.575  0.00  0.00    +0.132 A 
ATOM     25  C   UNL     1      -0.276   2.249   4.317  0.00  0.00    +0.046 A 
ATOM     26  C   UNL     1      -1.202   1.226   4.374  0.00  0.00    +0.008 A 
BRANCH  24  27
ATOM     27  O   UNL     1       0.358   4.399   3.520  0.00  0.00    -0.426 OA
BRANCH  27  28
ATOM     28  C   UNL     1       0.460   5.213   4.583  0.00  0.00    +0.309 C 
ATOM     29  O   UNL     1      -0.306   5.095   5.510  0.00  0.00    -0.251 OA
ATOM     30  C   UNL     1       1.529   6.274   4.621  0.00  0.00    +0.136 C 
ENDBRANCH  27  28
ENDBRANCH  24  27
ENDBRANCH   6  21
BRANCH   1  31
ATOM     31  C   UNL     1      -2.683  -1.161   1.759  0.00  0.00    +0.338 C 
ATOM     32  O   UNL     1      -2.925  -1.696   0.694  0.00  0.00    -0.245 OA
BRANCH  31  33
ATOM     33  O   UNL     1      -1.500  -1.380   2.372  0.00  0.00    -0.458 OA
BRANCH  33  34
ATOM     34  C   UNL     1      -0.580  -2.252   1.712  0.00  0.00    +0.173 C 
ATOM     35  C   UNL     1      -0.821  -3.691   2.172  0.00  0.00    +0.052 C 
BRANCH  34  37
ATOM     36  C   UNL     1       1.133  -0.446   1.489  0.00  0.00    +0.007 C 
ATOM     37  C   UNL     1       0.852  -1.838   2.058  0.00  0.00    +0.041 C 
ENDBRANCH  34  37
ENDBRANCH  33  34
ENDBRANCH  31  33
ENDBRANCH   1  31
TORSDOF 8
