REMARK  Name = ZINC08456205
REMARK  12 active torsions:
REMARK  status: ('A' for Active; 'I' for Inactive)
REMARK    1  A    between atoms: C_1  and  C_2
REMARK    2  A    between atoms: C_2  and  O_3
REMARK    3  A    between atoms: O_3  and  C_4
REMARK    4  A    between atoms: C_6  and  C_15
REMARK    5  A    between atoms: C_9  and  O_10
REMARK    6  A    between atoms: O_10  and  C_11
REMARK    7  A    between atoms: C_11  and  C_12
REMARK    8  A    between atoms: C_17  and  C_24
REMARK    9  A    between atoms: C_18  and  C_23
REMARK   10  A    between atoms: C_24  and  O_26
REMARK   11  A    between atoms: O_26  and  C_27
REMARK   12  A    between atoms: C_27  and  C_28
REMARK                            x       y       z     vdW  Elec       q    Type
REMARK                         _______ _______ _______ _____ _____    ______ ____
ROOT
ATOM      1  C   UNL     1       5.018   3.340  -2.275  0.00  0.00    +0.163 A 
ATOM      2  C   UNL     1       4.350   2.867  -1.157  0.00  0.00    +0.055 A 
ATOM      3  C   UNL     1       3.593   1.713  -1.240  0.00  0.00    -0.018 A 
ATOM      4  C   UNL     1       3.492   1.034  -2.439  0.00  0.00    +0.025 A 
ATOM      5  C   UNL     1       4.152   1.502  -3.561  0.00  0.00    +0.063 A 
ATOM      6  C   UNL     1       4.917   2.656  -3.483  0.00  0.00    +0.177 A 
ATOM      7 BR   UNL     1       4.012   0.570  -5.200  0.00  0.00    -0.046 Br
ENDROOT
BRANCH   3   8
ATOM      8  C   UNL     1       2.871   1.198  -0.021  0.00  0.00    +0.141 C 
ATOM      9  C   UNL     1       3.876   0.457   0.838  0.00  0.00    +0.078 C 
ATOM     10  C   UNL     1       4.054   0.885   2.107  0.00  0.00    +0.019 C 
ATOM     11  N   UNL     1       3.353   1.948   2.597  0.00  0.00    -0.300 N 
ATOM     12  C   UNL     1       2.455   2.638   1.883  0.00  0.00    +0.135 C 
ATOM     13  S   UNL     1       1.645   3.954   2.622  0.00  0.00    -0.019 S 
ATOM     14  N   UNL     1       2.168   2.332   0.603  0.00  0.00    -0.315 N 
ATOM     15  C   UNL     1       5.049   0.180   2.993  0.00  0.00    +0.061 C 
ATOM     16  H   UNL     1       3.515   2.219   3.514  0.00  0.00    +0.154 HD
ATOM     17  H   UNL     1       1.514   2.845   0.104  0.00  0.00    +0.149 HD
BRANCH   9  18
ATOM     18  C   UNL     1       4.601  -0.644   0.329  0.00  0.00    +0.339 C 
ATOM     19  O   UNL     1       5.466  -1.169   1.006  0.00  0.00    -0.245 OA
BRANCH  18  20
ATOM     20  O   UNL     1       4.335  -1.114  -0.908  0.00  0.00    -0.462 OA
BRANCH  20  21
ATOM     21  C   UNL     1       5.049  -2.279  -1.327  0.00  0.00    +0.229 C 
ATOM     22  C   UNL     1       4.681  -2.609  -2.775  0.00  0.00    +0.048 C 
ENDBRANCH  20  21
ENDBRANCH  18  20
ENDBRANCH   9  18
ENDBRANCH   3   8
BRANCH   1  23
ATOM     23  O   UNL     1       5.767   4.472  -2.193  0.00  0.00    -0.489 OA
BRANCH  23  25
ATOM     24  C   UNL     1       6.800   6.304  -1.003  0.00  0.00    +0.048 C 
ATOM     25  C   UNL     1       5.922   5.055  -0.898  0.00  0.00    +0.226 C 
ENDBRANCH  23  25
ENDBRANCH   1  23
BRANCH   6  26
ATOM     26  O   UNL     1       5.567   3.119  -4.584  0.00  0.00    -0.476 OA
BRANCH  26  27
ATOM     27  C   UNL     1       4.857   4.037  -5.418  0.00  0.00    +0.354 C 
BRANCH  27  28
ATOM     28  C   UNL     1       5.729   4.437  -6.580  0.00  0.00    +0.393 C 
ATOM     29  O   UNL     1       6.844   3.984  -6.684  0.00  0.00    -0.243 OA
ATOM     30  O   UNL     1       5.266   5.298  -7.501  0.00  0.00    -0.243 OA
ENDBRANCH  27  28
ENDBRANCH  26  27
ENDBRANCH   6  26
TORSDOF 9
