REMARK  Name = ZINC36594663
REMARK  16 active torsions:
REMARK  status: ('A' for Active; 'I' for Inactive)
REMARK    1  A    between atoms: C_1  and  C_2
REMARK    2  A    between atoms: C_2  and  C_3
REMARK    3  A    between atoms: C_3  and  C_4
REMARK    4  A    between atoms: C_4  and  C_5
REMARK    5  A    between atoms: N_7  and  C_8
REMARK    6  A    between atoms: N_7  and  C_33
REMARK    7  A    between atoms: C_8  and  C_10
REMARK    8  A    between atoms: C_8  and  C_19
REMARK    9  A    between atoms: C_13  and  N_16
REMARK   10  A    between atoms: N_21  and  C_22
REMARK   11  A    between atoms: C_22  and  S_23
REMARK   12  A    between atoms: S_23  and  C_26
REMARK   13  A    between atoms: C_29  and  C_32
REMARK   14  A    between atoms: C_33  and  C_34
REMARK   15  A    between atoms: C_33  and  C_35
REMARK   16  A    between atoms: C_33  and  C_36
REMARK                            x       y       z     vdW  Elec       q    Type
REMARK                         _______ _______ _______ _____ _____    ______ ____
ROOT
ATOM      1  C   UNL     1      -4.389  -3.414   0.829  0.00  0.00    +0.193 C 
ENDROOT
BRANCH   1   2
ATOM      2  C   UNL     1      -4.657  -3.466   2.310  0.00  0.00    -0.018 A 
ATOM      3  C   UNL     1      -4.010  -4.400   3.098  0.00  0.00    +0.008 A 
ATOM      4  C   UNL     1      -4.256  -4.448   4.457  0.00  0.00    +0.033 A 
ATOM      5  C   UNL     1      -5.150  -3.562   5.029  0.00  0.00    +0.126 A 
ATOM      6  C   UNL     1      -5.796  -2.627   4.242  0.00  0.00    +0.033 A 
ATOM      7  C   UNL     1      -5.547  -2.576   2.884  0.00  0.00    +0.008 A 
BRANCH   5   8
ATOM      8  N   UNL     1      -5.414  -3.614   6.485  0.00  0.00    +0.056 N 
ATOM      9  O   UNL     1      -4.849  -4.431   7.173  0.00  0.00    -0.126 OA
ATOM     10  O   UNL     1      -6.195  -2.839   6.985  0.00  0.00    -0.126 OA
ENDBRANCH   5   8
ENDBRANCH   1   2
BRANCH   1  11
ATOM     11  C   UNL     1      -5.528  -4.066   0.088  0.00  0.00    +0.239 C 
ATOM     12  O   UNL     1      -5.308  -4.968  -0.692  0.00  0.00    -0.273 OA
ATOM     13  N   UNL     1      -6.793  -3.646   0.293  0.00  0.00    -0.294 N 
ATOM     14  H   UNL     1      -6.969  -2.924   0.917  0.00  0.00    +0.150 HD
BRANCH  13  15
ATOM     15  C   UNL     1      -7.900  -4.279  -0.427  0.00  0.00    +0.278 C 
BRANCH  15  16
ATOM     16  S   UNL     1      -8.626  -5.583   0.606  0.00  0.00    +0.013 S 
ATOM     17  O   UNL     1      -9.742  -6.165  -0.053  0.00  0.00    -0.168 OA
ATOM     18  O   UNL     1      -7.601  -6.400   1.154  0.00  0.00    -0.168 OA
BRANCH  16  19
ATOM     19  C   UNL     1      -9.312  -4.735   1.990  0.00  0.00    +0.090 A 
ATOM     20  C   UNL     1      -8.541  -4.511   3.115  0.00  0.00    +0.027 A 
ATOM     21  C   UNL     1      -9.079  -3.846   4.201  0.00  0.00    +0.005 A 
ATOM     22  C   UNL     1     -10.388  -3.404   4.161  0.00  0.00    -0.050 A 
ATOM     23  C   UNL     1     -11.159  -3.626   3.035  0.00  0.00    +0.005 A 
ATOM     24  C   UNL     1     -10.619  -4.288   1.948  0.00  0.00    +0.027 A 
ATOM     25  C   UNL     1     -10.976  -2.679   5.345  0.00  0.00    +0.044 C 
ENDBRANCH  16  19
ENDBRANCH  15  16
ENDBRANCH  13  15
ENDBRANCH   1  11
BRANCH   1  28
ATOM     26  C   UNL     1      -3.084  -5.466   0.668  0.00  0.00    +0.217 C 
ATOM     27  O   UNL     1      -4.088  -6.093   0.931  0.00  0.00    -0.276 OA
ATOM     28  N   UNL     1      -3.143  -4.126   0.532  0.00  0.00    -0.281 N 
BRANCH  28  29
ATOM     29  C   UNL     1      -1.962  -3.382   0.089  0.00  0.00    +0.030 C 
ATOM     30  C   UNL     1      -1.637  -3.757  -1.358  0.00  0.00    +0.031 C 
ATOM     31  C   UNL     1      -2.242  -1.880   0.176  0.00  0.00    +0.031 C 
ATOM     32  C   UNL     1      -0.773  -3.732   0.986  0.00  0.00    +0.031 C 
ENDBRANCH  28  29
BRANCH  26  33
ATOM     33  C   UNL     1      -1.771  -6.184   0.493  0.00  0.00    +0.096 C 
BRANCH  33  34
ATOM     34  C   UNL     1      -2.003  -7.694   0.557  0.00  0.00    +0.009 C 
BRANCH  34  36
ATOM     35  C   UNL     1      -0.902  -9.934   0.444  0.00  0.00    +0.004 C 
ATOM     36  C   UNL     1      -0.670  -8.424   0.380  0.00  0.00    -0.003 C 
ENDBRANCH  34  36
ENDBRANCH  33  34
ENDBRANCH  26  33
ENDBRANCH   1  28
TORSDOF 11
