REMARK  Name = ZINC01712079
REMARK  5 active torsions:
REMARK  status: ('A' for Active; 'I' for Inactive)
REMARK    1  A    between atoms: C_1  and  C_2
REMARK    2  A    between atoms: C_2  and  C_14
REMARK    3  A    between atoms: C_3  and  C_10
REMARK    4  A    between atoms: C_6  and  C_8
REMARK    5  A    between atoms: C_10  and  C_12
REMARK                            x       y       z     vdW  Elec       q    Type
REMARK                         _______ _______ _______ _____ _____    ______ ____
ROOT
ATOM      1  C   UNL     1       3.484   0.738   1.259  0.00  0.00    +0.012 C 
ATOM      2  C   UNL     1       2.527   1.635   0.472  0.00  0.00    -0.012 C 
ATOM      3  C   UNL     1       2.519   1.352  -1.040  0.00  0.00    +0.074 C 
ATOM      4  C   UNL     1       0.996   1.554  -0.990  0.00  0.00    +0.027 C 
ATOM      5  C   UNL     1       1.069   1.146   0.491  0.00  0.00    +0.109 C 
ATOM      6  C   UNL     1       2.683   3.118   0.817  0.00  0.00    +0.012 C 
ENDROOT
BRANCH   5   7
ATOM      7  C   UNL     1       0.932  -0.337   0.718  0.00  0.00    +0.360 C 
ATOM      8  O   UNL     1       0.942  -1.096  -0.222  0.00  0.00    -0.246 OA
ATOM      9  O   UNL     1       0.800  -0.816   1.966  0.00  0.00    -0.246 OA
ENDBRANCH   5   7
BRANCH   3  10
ATOM     10  C   UNL     1       3.242   2.396  -1.852  0.00  0.00    +0.247 C 
ATOM     11  O   UNL     1       3.165   3.561  -1.545  0.00  0.00    -0.285 OA
BRANCH  10  12
ATOM     12  C   UNL     1       4.052   1.989  -3.036  0.00  0.00    +0.422 C 
ATOM     13  O   UNL     1       4.129   0.819  -3.345  0.00  0.00    -0.237 OA
ATOM     14  O   UNL     1       4.697   2.921  -3.762  0.00  0.00    -0.237 OA
ENDBRANCH  10  12
ENDBRANCH   3  10
TORSDOF 3
