REMARK  Name = ZINC27391822
REMARK  9 active torsions:
REMARK  status: ('A' for Active; 'I' for Inactive)
REMARK    1  A    between atoms: C_1  and  C_2
REMARK    2  A    between atoms: C_4  and  C_29
REMARK    3  A    between atoms: C_6  and  C_24
REMARK    4  A    between atoms: C_10  and  C_11
REMARK    5  A    between atoms: N_13  and  C_14
REMARK    6  A    between atoms: C_14  and  C_15
REMARK    7  A    between atoms: C_15  and  N_21
REMARK    8  A    between atoms: N_21  and  C_22
REMARK    9  A    between atoms: N_21  and  C_23
REMARK                            x       y       z     vdW  Elec       q    Type
REMARK                         _______ _______ _______ _____ _____    ______ ____
ROOT
ATOM      1  C   UNL     1      -1.397   8.155   3.844  0.00  0.00    +0.046 C 
ATOM      2  C   UNL     1      -1.842   6.997   4.699  0.00  0.00    -0.020 A 
ATOM      3  C   UNL     1      -2.334   7.228   5.992  0.00  0.00    +0.032 A 
ATOM      4  C   UNL     1      -2.497   8.456   6.684  0.00  0.00    +0.051 A 
ATOM      5  N   UNL     1      -2.977   8.452   7.905  0.00  0.00    -0.229 NA
ATOM      6  C   UNL     1      -3.321   7.327   8.531  0.00  0.00    +0.197 A 
ATOM      7  N   UNL     1      -3.192   6.143   7.938  0.00  0.00    -0.217 NA
ATOM      8  C   UNL     1      -2.720   6.066   6.715  0.00  0.00    +0.113 A 
ATOM      9  S   UNL     1      -2.389   4.748   5.575  0.00  0.00    -0.064 S 
ATOM     10  C   UNL     1      -1.770   5.727   4.218  0.00  0.00    +0.079 A 
ATOM     11  C   UNL     1      -2.122   9.756   6.020  0.00  0.00    +0.066 C 
ENDROOT
BRANCH   6  12
ATOM     12  C   UNL     1      -3.853   7.395   9.904  0.00  0.00    +0.172 A 
ATOM     13  C   UNL     1      -4.244   6.335  10.664  0.00  0.00    +0.053 A 
ATOM     14  C   UNL     1      -4.680   6.857  11.895  0.00  0.00    +0.042 A 
ATOM     15  C   UNL     1      -4.536   8.197  11.830  0.00  0.00    +0.196 A 
ATOM     16  O   UNL     1      -4.032   8.518  10.628  0.00  0.00    -0.460 OA
ENDBRANCH   6  12
BRANCH  10  17
ATOM     17  C   UNL     1      -1.295   5.272   2.904  0.00  0.00    +0.251 C 
ATOM     18  O   UNL     1      -0.902   6.082   2.086  0.00  0.00    -0.270 OA
ATOM     19  N   UNL     1      -1.293   3.958   2.606  0.00  0.00    -0.312 N 
ATOM     20  H   UNL     1      -1.648   3.225   3.346  0.00  0.00    +0.149 HD
BRANCH  19  21
ATOM     21  C   UNL     1      -0.819   3.504   1.296  0.00  0.00    +0.092 C 
BRANCH  21  22
ATOM     22  C   UNL     1      -0.806   1.975   1.260  0.00  0.00    -0.050 C 
ATOM     23  C   UNL     1      -0.247   1.501  -0.083  0.00  0.00    -0.010 C 
ATOM     24  C   UNL     1      -1.128   2.030  -1.216  0.00  0.00    -0.001 C 
ATOM     25  C   UNL     1      -2.554   1.504  -1.043  0.00  0.00    -0.000 C 
ATOM     26  C   UNL     1      -3.112   1.978   0.301  0.00  0.00    -0.001 C 
ATOM     27  C   UNL     1      -2.232   1.448   1.434  0.00  0.00    -0.010 C 
BRANCH  22  28
ATOM     28  N   UNL     1       0.040   1.466   2.349  0.00  0.00    +0.381 N 
ATOM     29  C   UNL     1      -0.001  -0.001   2.406  0.00  0.00    -0.096 C 
ATOM     30  C   UNL     1       1.421   1.950   2.212  0.00  0.00    -0.096 C 
ATOM     31  H   UNL     1      -0.361   1.853   3.297  0.00  0.00    -0.082 HD
ENDBRANCH  22  28
ENDBRANCH  21  22
ENDBRANCH  19  21
ENDBRANCH  10  17
TORSDOF 5
