REMARK  Name = ZINC64625932
REMARK  9 active torsions:
REMARK  status: ('A' for Active; 'I' for Inactive)
REMARK    1  A    between atoms: C_1  and  C_2
REMARK    2  A    between atoms: C_2  and  C_3
REMARK    3  A    between atoms: C_2  and  C_4
REMARK    4  A    between atoms: C_4  and  N_5
REMARK    5  A    between atoms: C_6  and  C_8
REMARK    6  A    between atoms: N_10  and  C_13
REMARK    7  A    between atoms: C_19  and  C_21
REMARK    8  A    between atoms: C_21  and  C_22
REMARK    9  A    between atoms: C_22  and  C_23
REMARK                            x       y       z     vdW  Elec       q    Type
REMARK                         _______ _______ _______ _____ _____    ______ ____
ROOT
ATOM      1  C   UNL     1       7.750   0.226  -3.433  0.00  0.00    +0.095 C 
ATOM      2  C   UNL     1       8.222   1.649  -3.741  0.00  0.00    +0.043 C 
ATOM      3  C   UNL     1       9.528   1.588  -4.540  0.00  0.00    +0.109 C 
ATOM      4  N   UNL     1      10.501   0.777  -3.795  0.00  0.00    -0.301 N 
ATOM      5  C   UNL     1      10.115  -0.576  -3.370  0.00  0.00    +0.109 C 
ATOM      6  C   UNL     1       8.803  -0.490  -2.584  0.00  0.00    +0.043 C 
ATOM      7  C   UNL     1      11.724   1.264  -3.507  0.00  0.00    +0.216 C 
ATOM      8  O   UNL     1      12.030   2.382  -3.864  0.00  0.00    -0.276 OA
ENDROOT
BRANCH   1  11
ATOM      9  C   UNL     1       4.358  -0.012  -2.172  0.00  0.00    +0.120 C 
ATOM     10  C   UNL     1       5.294  -0.266  -3.112  0.00  0.00    +0.119 C 
ATOM     11  N   UNL     1       6.484   0.280  -2.697  0.00  0.00    -0.253 N 
ATOM     12  N   UNL     1       6.293   0.882  -1.487  0.00  0.00    -0.160 NA
ATOM     13  N   UNL     1       4.981   0.721  -1.138  0.00  0.00    -0.259 N 
ATOM     14  H   UNL     1       6.907   0.491  -0.788  0.00  0.00    +0.168 HD
ATOM     15  H   UNL     1       4.557   1.048  -0.329  0.00  0.00    +0.168 HD
BRANCH   9  17
ATOM     16  N   UNL     1       2.125  -0.091  -1.209  0.00  0.00    -0.310 N 
ATOM     17  C   UNL     1       2.955  -0.418  -2.220  0.00  0.00    +0.260 C 
ATOM     18  O   UNL     1       2.536  -1.051  -3.172  0.00  0.00    -0.269 OA
ATOM     19  H   UNL     1       2.459   0.413  -0.451  0.00  0.00    +0.149 HD
BRANCH  16  20
ATOM     20  C   UNL     1       0.718  -0.497  -1.257  0.00  0.00    +0.107 C 
BRANCH  20  22
ATOM     21  C   UNL     1      -0.019   1.526   0.010  0.00  0.00    +0.009 C 
ATOM     22  C   UNL     1       0.002  -0.004   0.002  0.00  0.00    -0.000 C 
ATOM     23  C   UNL     1      -1.433  -0.534   0.013  0.00  0.00    +0.009 C 
ENDBRANCH  20  22
ENDBRANCH  16  20
ENDBRANCH   9  17
ENDBRANCH   1  11
BRANCH   7  24
ATOM     24  C   UNL     1      12.710   0.420  -2.742  0.00  0.00    +0.100 C 
BRANCH  24  25
ATOM     25  C   UNL     1      14.011   1.204  -2.550  0.00  0.00    +0.042 C 
BRANCH  25  26
ATOM     26  C   UNL     1      14.997   0.360  -1.785  0.00  0.00    -0.041 C 
ATOM     27  C   UNL     1      15.973  -0.420  -2.303  0.00  0.00    -0.001 A 
ATOM     28  C   UNL     1      16.392  -0.707  -3.680  0.00  0.00    +0.010 A 
ATOM     29  C   UNL     1      17.428  -1.550  -3.889  0.00  0.00    +0.001 A 
ATOM     30  C   UNL     1      18.110  -2.157  -2.826  0.00  0.00    +0.002 A 
ATOM     31  C   UNL     1      17.785  -1.943  -1.533  0.00  0.00    +0.026 A 
ATOM     32  C   UNL     1      16.711  -1.073  -1.197  0.00  0.00    +0.043 A 
ATOM     33  N   UNL     1      16.210  -0.711  -0.041  0.00  0.00    -0.380 N 
ATOM     34  C   UNL     1      15.101   0.219  -0.283  0.00  0.00    +0.144 C 
ATOM     35  H   UNL     1      16.523  -1.005   0.828  0.00  0.00    +0.160 HD
ENDBRANCH  25  26
ENDBRANCH  24  25
ENDBRANCH   7  24
TORSDOF 7
