REMARK  Name = ZINC13724790
REMARK  12 active torsions:
REMARK  status: ('A' for Active; 'I' for Inactive)
REMARK    1  A    between atoms: C_1  and  C_2
REMARK    2  A    between atoms: C_6  and  C_12
REMARK    3  A    between atoms: C_7  and  C_11
REMARK    4  A    between atoms: C_13  and  O_33
REMARK    5  A    between atoms: C_14  and  C_15
REMARK    6  A    between atoms: C_18  and  C_21
REMARK    7  A    between atoms: C_24  and  O_31
REMARK    8  A    between atoms: C_25  and  O_29
REMARK    9  A    between atoms: C_26  and  O_27
REMARK   10  A    between atoms: O_27  and  C_28
REMARK   11  A    between atoms: O_29  and  C_30
REMARK   12  A    between atoms: O_31  and  C_32
REMARK                            x       y       z     vdW  Elec       q    Type
REMARK                         _______ _______ _______ _____ _____    ______ ____
ROOT
ATOM      1  C   UNL     1       0.010   0.033   2.491  0.00  0.00    +0.072 C 
ATOM      2  N   UNL     1      -1.043   0.381   3.146  0.00  0.00    -0.190 NA
ATOM      3  N   UNL     1      -0.777   1.069   4.328  0.00  0.00    -0.261 N 
ATOM      4  C   UNL     1       0.681   1.198   4.485  0.00  0.00    +0.129 C 
ATOM      5  C   UNL     1       1.243   0.488   3.237  0.00  0.00    +0.086 C 
ATOM      6  H   UNL     1      -1.443   1.407   4.946  0.00  0.00    +0.169 HD
ENDROOT
BRANCH   1  20
ATOM      7  C   UNL     1      -0.033   1.502   0.010  0.00  0.00    +0.044 C 
ATOM      8  C   UNL     1      -0.009  -0.004   0.002  0.00  0.00    -0.035 A 
ATOM      9  C   UNL     1      -0.002  -0.680  -1.198  0.00  0.00    +0.051 A 
ATOM     10  C   UNL     1       0.021  -2.069  -1.221  0.00  0.00    +0.143 A 
ATOM     11  C   UNL     1       0.037  -2.787  -0.011  0.00  0.00    +0.063 A 
ATOM     12  C   UNL     1       0.061  -4.250  -0.053  0.00  0.00    -0.027 A 
ATOM     13  C   UNL     1       0.067  -4.857  -1.268  0.00  0.00    +0.038 A 
ATOM     14  C   UNL     1       0.050  -4.076  -2.442  0.00  0.00    +0.340 A 
ATOM     15  O   UNL     1       0.055  -4.633  -3.525  0.00  0.00    -0.245 OA
ATOM     16  O   UNL     1       0.028  -2.735  -2.396  0.00  0.00    -0.422 OA
ATOM     17  C   UNL     1       0.091  -6.361  -1.362  0.00  0.00    +0.051 C 
ATOM     18  C   UNL     1       0.079  -5.061   1.217  0.00  0.00    +0.045 C 
ATOM     19  C   UNL     1       0.029  -2.102   1.212  0.00  0.00    +0.137 A 
ATOM     20  C   UNL     1       0.012  -0.704   1.214  0.00  0.00    +0.043 A 
BRANCH  19  21
ATOM     21  O   UNL     1       0.044  -2.788   2.381  0.00  0.00    -0.505 OA
ATOM     22  H   UNL     1       0.932  -2.972   2.718  0.00  0.00    +0.292 HD
ENDBRANCH  19  21
ENDBRANCH   1  20
BRANCH   4  23
ATOM     23  C   UNL     1       1.142   0.505   5.741  0.00  0.00    +0.020 A 
ATOM     24  C   UNL     1       0.384  -0.514   6.285  0.00  0.00    +0.013 A 
ATOM     25  C   UNL     1       0.803  -1.153   7.437  0.00  0.00    +0.050 A 
ATOM     26  C   UNL     1       1.987  -0.773   8.052  0.00  0.00    +0.165 A 
ATOM     27  C   UNL     1       2.752   0.251   7.507  0.00  0.00    +0.204 A 
ATOM     28  C   UNL     1       2.330   0.887   6.346  0.00  0.00    +0.170 A 
BRANCH  28  29
ATOM     29  O   UNL     1       3.079   1.886   5.806  0.00  0.00    -0.491 OA
ATOM     30  C   UNL     1       2.803   3.216   6.252  0.00  0.00    +0.277 C 
ENDBRANCH  28  29
BRANCH  27  31
ATOM     31  O   UNL     1       3.915   0.626   8.107  0.00  0.00    -0.488 OA
ATOM     32  C   UNL     1       5.106  -0.044   7.691  0.00  0.00    +0.277 C 
ENDBRANCH  27  31
BRANCH  26  33
ATOM     33  O   UNL     1       2.398  -1.402   9.185  0.00  0.00    -0.491 OA
ATOM     34  C   UNL     1       1.560  -2.445   9.689  0.00  0.00    +0.277 C 
ENDBRANCH  26  33
ENDBRANCH   4  23
TORSDOF 6
