REMARK  Name = ZINC12503299
REMARK  8 active torsions:
REMARK  status: ('A' for Active; 'I' for Inactive)
REMARK    1  A    between atoms: C_9  and  O_12
REMARK    2  A    between atoms: O_12  and  C_13
REMARK    3  A    between atoms: C_13  and  C_14
REMARK    4  A    between atoms: N_16  and  C_17
REMARK    5  A    between atoms: C_17  and  N_19
REMARK    6  A    between atoms: N_19  and  N_20
REMARK    7  A    between atoms: C_21  and  C_23
REMARK    8  A    between atoms: C_28  and  O_29
REMARK                            x       y       z     vdW  Elec       q    Type
REMARK                         _______ _______ _______ _____ _____    ______ ____
ROOT
ATOM      1  C   UNL     1       2.119   9.458   0.028  0.00  0.00    +0.256 C 
ATOM      2  O   UNL     1       0.994   9.911   0.041  0.00  0.00    -0.272 OA
ATOM      3  N   UNL     1       3.180  10.290   0.021  0.00  0.00    -0.264 N 
ATOM      4  H   UNL     1       4.079   9.928   0.011  0.00  0.00    +0.157 HD
ENDROOT
BRANCH   3   5
ATOM      5  C   UNL     1       2.990  11.624   0.030  0.00  0.00    +0.153 C 
ATOM      6  S   UNL     1       1.402  12.263   0.048  0.00  0.00    -0.017 S 
BRANCH   5   7
ATOM      7  N   UNL     1       4.051  12.455   0.023  0.00  0.00    -0.245 N 
ATOM      8  H   UNL     1       3.914  13.416   0.029  0.00  0.00    +0.172 HD
BRANCH   7   9
ATOM      9  N   UNL     1       5.350  11.933   0.009  0.00  0.00    -0.231 N 
ATOM     10  C   UNL     1       6.411  12.764   0.002  0.00  0.00    +0.264 C 
ATOM     11  O   UNL     1       6.240  13.968   0.009  0.00  0.00    -0.269 OA
ATOM     12  H   UNL     1       5.487  10.972   0.003  0.00  0.00    +0.173 HD
BRANCH  10  13
ATOM     13  C   UNL     1       7.780  12.213  -0.013  0.00  0.00    +0.079 A 
ATOM     14  C   UNL     1       7.981  10.831  -0.016  0.00  0.00    +0.017 A 
ATOM     15  C   UNL     1       9.262  10.323  -0.036  0.00  0.00    +0.001 A 
ATOM     16  C   UNL     1      10.352  11.178  -0.043  0.00  0.00    +0.004 A 
ATOM     17  C   UNL     1      10.168  12.546  -0.035  0.00  0.00    +0.046 A 
ATOM     18  C   UNL     1       8.886  13.074  -0.020  0.00  0.00    +0.129 A 
BRANCH  18  19
ATOM     19  O   UNL     1       8.703  14.418  -0.011  0.00  0.00    -0.506 OA
ATOM     20  H   UNL     1       8.659  14.804   0.874  0.00  0.00    +0.292 HD
ENDBRANCH  18  19
ENDBRANCH  10  13
ENDBRANCH   7   9
ENDBRANCH   5   7
ENDBRANCH   3   5
BRANCH   1  21
ATOM     21  C   UNL     1       2.331   7.966   0.019  0.00  0.00    +0.325 C 
BRANCH  21  22
ATOM     22  O   UNL     1       1.064   7.305   0.028  0.00  0.00    -0.482 OA
BRANCH  22  31
ATOM     23  C   UNL     1      -0.013   1.076   0.008  0.00  0.00    +0.001 A 
ATOM     24  C   UNL     1      -1.235   1.746   0.017  0.00  0.00    +0.001 A 
ATOM     25  C   UNL     1      -1.288   3.105   0.030  0.00  0.00    +0.010 A 
ATOM     26  C   UNL     1      -0.095   3.849   0.023  0.00  0.00    -0.000 A 
ATOM     27  C   UNL     1       1.148   3.167   0.008  0.00  0.00    -0.017 A 
ATOM     28  C   UNL     1       1.163   1.762   0.000  0.00  0.00    +0.008 A 
ATOM     29  C   UNL     1       2.343   3.907  -0.000  0.00  0.00    +0.012 A 
ATOM     30  C   UNL     1       2.299   5.266   0.006  0.00  0.00    +0.047 A 
ATOM     31  C   UNL     1       1.077   5.946   0.021  0.00  0.00    +0.136 A 
ATOM     32  C   UNL     1      -0.113   5.253   0.029  0.00  0.00    +0.067 A 
ATOM     33 BR   UNL     1      -1.758   6.186   0.049  0.00  0.00    -0.046 Br
ENDBRANCH  22  31
ENDBRANCH  21  22
ENDBRANCH   1  21
TORSDOF 8
