REMARK  Name = ZINC36301684
REMARK  18 active torsions:
REMARK  status: ('A' for Active; 'I' for Inactive)
REMARK    1  A    between atoms: C_1  and  C_2
REMARK    2  A    between atoms: C_2  and  C_3
REMARK    3  A    between atoms: C_3  and  N_4
REMARK    4  A    between atoms: N_4  and  C_5
REMARK    5  A    between atoms: N_4  and  C_28
REMARK    6  A    between atoms: C_5  and  C_6
REMARK    7  A    between atoms: C_7  and  C_27
REMARK    8  A    between atoms: N_9  and  C_20
REMARK    9  A    between atoms: C_10  and  O_11
REMARK   10  A    between atoms: O_11  and  C_12
REMARK   11  A    between atoms: C_15  and  O_18
REMARK   12  A    between atoms: O_18  and  C_19
REMARK   13  A    between atoms: C_28  and  C_29
REMARK   14  A    between atoms: C_29  and  C_31
REMARK   15  A    between atoms: C_29  and  O_36
REMARK   16  A    between atoms: C_31  and  O_32
REMARK   17  A    between atoms: O_32  and  C_33
REMARK   18  A    between atoms: C_33  and  C_34
REMARK                            x       y       z     vdW  Elec       q    Type
REMARK                         _______ _______ _______ _____ _____    ______ ____
ROOT
ATOM      1  C   UNL     1       2.819  -1.860  -1.776  0.00  0.00    +0.021 A 
ATOM      2  C   UNL     1       3.407  -0.633  -2.098  0.00  0.00    +0.065 A 
ATOM      3  N   UNL     1       4.514  -0.511  -1.410  0.00  0.00    -0.168 NA
ATOM      4  N   UNL     1       4.674  -1.658  -0.623  0.00  0.00    -0.200 N 
ATOM      5  C   UNL     1       3.614  -2.476  -0.860  0.00  0.00    +0.225 A 
ATOM      6  C   UNL     1       2.858   0.378  -3.072  0.00  0.00    +0.068 C 
ENDROOT
BRANCH   4   7
ATOM      7  C   UNL     1       5.735  -1.915   0.257  0.00  0.00    +0.070 A 
ATOM      8  C   UNL     1       5.489  -2.505   1.490  0.00  0.00    +0.028 A 
ATOM      9  C   UNL     1       6.536  -2.756   2.354  0.00  0.00    +0.003 A 
ATOM     10  C   UNL     1       7.829  -2.422   1.994  0.00  0.00    +0.020 A 
ATOM     11  C   UNL     1       8.077  -1.834   0.766  0.00  0.00    +0.043 A 
ATOM     12  C   UNL     1       7.034  -1.585  -0.106  0.00  0.00    +0.048 A 
ATOM     13 CL   UNL     1       9.701  -1.416   0.317  0.00  0.00    -0.083 Cl
ENDBRANCH   4   7
BRANCH   1  14
ATOM     14  C   UNL     1       1.530  -2.402  -2.339  0.00  0.00    -0.036 C 
BRANCH  14  15
ATOM     15  N   UNL     1       0.407  -1.965  -1.499  0.00  0.00    +0.384 N 
ATOM     16  H   UNL     1       0.575  -2.240  -0.543  0.00  0.00    -0.081 HD
BRANCH  15  17
ATOM     17  C   UNL     1       0.280  -0.503  -1.573  0.00  0.00    -0.079 C 
BRANCH  17  19
ATOM     18  C   UNL     1      -0.851   1.492  -0.582  0.00  0.00    +0.002 C 
ATOM     19  C   UNL     1      -0.812  -0.037  -0.608  0.00  0.00    -0.022 C 
ENDBRANCH  17  19
ENDBRANCH  15  17
BRANCH  15  20
ATOM     20  C   UNL     1      -0.834  -2.589  -1.977  0.00  0.00    -0.044 C 
BRANCH  20  21
ATOM     21  C   UNL     1      -0.763  -4.101  -1.752  0.00  0.00    +0.124 C 
BRANCH  21  22
ATOM     22  O   UNL     1      -0.692  -4.371  -0.351  0.00  0.00    -0.391 OA
ATOM     23  H   UNL     1      -1.483  -4.111   0.141  0.00  0.00    +0.210 HD
ENDBRANCH  21  22
BRANCH  21  24
ATOM     24  C   UNL     1      -2.013  -4.762  -2.336  0.00  0.00    +0.190 C 
BRANCH  24  25
ATOM     25  O   UNL     1      -1.895  -6.182  -2.231  0.00  0.00    -0.365 OA
BRANCH  25  26
ATOM     26  C   UNL     1      -3.016  -6.899  -2.750  0.00  0.00    +0.248 C 
BRANCH  26  27
ATOM     27  C   UNL     1      -2.790  -8.345  -2.592  0.00  0.00    -0.077 C 
ATOM     28  C   UNL     1      -2.610  -9.498  -2.465  0.00  0.00    +0.006 C 
ENDBRANCH  26  27
ENDBRANCH  25  26
ENDBRANCH  24  25
ENDBRANCH  21  24
ENDBRANCH  20  21
ENDBRANCH  15  20
ENDBRANCH  14  15
ENDBRANCH   1  14
BRANCH   5  29
ATOM     29  O   UNL     1       3.391  -3.687  -0.289  0.00  0.00    -0.438 OA
BRANCH  29  30
ATOM     30  C   UNL     1       3.984  -4.775  -0.847  0.00  0.00    +0.131 A 
ATOM     31  C   UNL     1       4.875  -4.616  -1.899  0.00  0.00    +0.050 A 
ATOM     32  C   UNL     1       5.478  -5.721  -2.467  0.00  0.00    +0.049 A 
ATOM     33  C   UNL     1       5.192  -6.991  -1.986  0.00  0.00    +0.120 A 
ATOM     34  C   UNL     1       4.302  -7.150  -0.934  0.00  0.00    +0.049 A 
ATOM     35  C   UNL     1       3.704  -6.044  -0.362  0.00  0.00    +0.050 A 
BRANCH  33  36
ATOM     36  O   UNL     1       5.786  -8.079  -2.545  0.00  0.00    -0.495 OA
ATOM     37  C   UNL     1       5.446  -9.355  -1.999  0.00  0.00    +0.277 C 
ENDBRANCH  33  36
ENDBRANCH  29  30
ENDBRANCH   5  29
TORSDOF 15
