REMARK  Name = ZINC14269679
REMARK  10 active torsions:
REMARK  status: ('A' for Active; 'I' for Inactive)
REMARK    1  A    between atoms: C_1  and  C_2
REMARK    2  A    between atoms: C_6  and  C_10
REMARK    3  A    between atoms: C_7  and  O_8
REMARK    4  A    between atoms: O_8  and  C_9
REMARK    5  A    between atoms: N_12  and  C_13
REMARK    6  A    between atoms: C_13  and  N_15
REMARK    7  A    between atoms: N_15  and  C_16
REMARK    8  A    between atoms: C_18  and  N_24
REMARK    9  A    between atoms: C_21  and  O_22
REMARK   10  A    between atoms: O_22  and  C_23
REMARK                            x       y       z     vdW  Elec       q    Type
REMARK                         _______ _______ _______ _____ _____    ______ ____
ROOT
ATOM      1  C   UNL     1       4.745   4.742  -0.262  0.00  0.00    +0.141 C 
ATOM      2  S   UNL     1       4.705   6.423  -0.586  0.00  0.00    -0.018 S 
ENDROOT
BRANCH   1   5
ATOM      3  C   UNL     1       2.421   4.648  -0.471  0.00  0.00    +0.253 C 
ATOM      4  O   UNL     1       2.394   5.841  -0.701  0.00  0.00    -0.270 OA
ATOM      5  N   UNL     1       3.598   4.033  -0.239  0.00  0.00    -0.263 N 
ATOM      6  H   UNL     1       3.621   3.081  -0.056  0.00  0.00    +0.157 HD
BRANCH   3  12
ATOM      7  C   UNL     1      -2.554   4.446  -0.916  0.00  0.00    +0.047 C 
ATOM      8  C   UNL     1      -1.232   3.769  -0.659  0.00  0.00    -0.007 A 
ATOM      9  C   UNL     1      -1.191   2.413  -0.403  0.00  0.00    +0.022 A 
ATOM     10  C   UNL     1       0.018   1.782  -0.159  0.00  0.00    +0.019 A 
ATOM     11  C   UNL     1       1.195   2.501  -0.182  0.00  0.00    +0.032 A 
ATOM     12  C   UNL     1       1.167   3.872  -0.446  0.00  0.00    +0.080 A 
ATOM     13  C   UNL     1      -0.059   4.508  -0.686  0.00  0.00    +0.135 A 
ATOM     14 BR   UNL     1       0.057  -0.075   0.198  0.00  0.00    -0.050 Br
BRANCH  13  15
ATOM     15  O   UNL     1      -0.098   5.839  -0.942  0.00  0.00    -0.494 OA
ATOM     16  C   UNL     1       0.004   6.239  -2.310  0.00  0.00    +0.277 C 
ENDBRANCH  13  15
ENDBRANCH   3  12
ENDBRANCH   1   5
BRANCH   1  17
ATOM     17  N   UNL     1       5.922   4.128  -0.030  0.00  0.00    -0.294 N 
ATOM     18  H   UNL     1       5.939   3.189   0.214  0.00  0.00    +0.154 HD
BRANCH  17  19
ATOM     19  C   UNL     1       7.120   4.844  -0.143  0.00  0.00    +0.077 A 
ATOM     20  C   UNL     1       7.244   6.091   0.453  0.00  0.00    +0.059 A 
ATOM     21  C   UNL     1       8.428   6.794   0.344  0.00  0.00    +0.128 A 
ATOM     22  C   UNL     1       9.489   6.263  -0.367  0.00  0.00    +0.036 A 
ATOM     23  C   UNL     1       9.371   5.023  -0.968  0.00  0.00    +0.050 A 
ATOM     24  C   UNL     1       8.189   4.310  -0.859  0.00  0.00    +0.141 A 
BRANCH  21  25
ATOM     25  N   UNL     1       8.560   8.122   0.984  0.00  0.00    +0.056 N 
ATOM     26  O   UNL     1       9.602   8.745   0.885  0.00  0.00    -0.126 OA
ATOM     27  O   UNL     1       7.627   8.592   1.610  0.00  0.00    -0.126 OA
ENDBRANCH  21  25
BRANCH  24  28
ATOM     28  O   UNL     1       8.072   3.091  -1.450  0.00  0.00    -0.493 OA
ATOM     29  C   UNL     1       9.208   2.605  -2.167  0.00  0.00    +0.277 C 
ENDBRANCH  24  28
ENDBRANCH  17  19
ENDBRANCH   1  17
TORSDOF 7
