REMARK  Name = ZINC39928321
REMARK  17 active torsions:
REMARK  status: ('A' for Active; 'I' for Inactive)
REMARK    1  A    between atoms: C_1  and  C_2
REMARK    2  A    between atoms: C_2  and  O_3
REMARK    3  A    between atoms: O_3  and  C_4
REMARK    4  A    between atoms: C_6  and  C_16
REMARK    5  A    between atoms: C_8  and  O_13
REMARK    6  A    between atoms: C_9  and  O_10
REMARK    7  A    between atoms: O_10  and  C_11
REMARK    8  A    between atoms: C_11  and  C_12
REMARK    9  A    between atoms: O_13  and  C_14
REMARK   10  A    between atoms: C_14  and  C_15
REMARK   11  A    between atoms: N_18  and  C_19
REMARK   12  A    between atoms: N_18  and  C_34
REMARK   13  A    between atoms: C_19  and  C_20
REMARK   14  A    between atoms: C_25  and  O_32
REMARK   15  A    between atoms: O_32  and  C_33
REMARK   16  A    between atoms: C_34  and  C_35
REMARK   17  A    between atoms: C_34  and  C_36
REMARK                            x       y       z     vdW  Elec       q    Type
REMARK                         _______ _______ _______ _____ _____    ______ ____
ROOT
ATOM      1  C   UNL     1      -0.140  -4.972   0.501  0.00  0.00    +0.247 C 
ATOM      2  O   UNL     1      -0.601  -4.534   1.538  0.00  0.00    -0.270 OA
ATOM      3  N   UNL     1      -0.199  -6.293   0.243  0.00  0.00    -0.294 N 
ENDROOT
BRANCH   1   6
ATOM      4  C   UNL     1       0.771  -3.312  -2.744  0.00  0.00    +0.166 A 
ATOM      5  C   UNL     1       0.185  -4.171  -1.833  0.00  0.00    +0.062 A 
ATOM      6  C   UNL     1       0.485  -4.056  -0.474  0.00  0.00    +0.044 A 
ATOM      7  C   UNL     1       1.377  -3.073  -0.038  0.00  0.00    +0.062 A 
ATOM      8  C   UNL     1       1.960  -2.216  -0.953  0.00  0.00    +0.166 A 
ATOM      9  C   UNL     1       1.663  -2.336  -2.308  0.00  0.00    +0.204 A 
BRANCH   4  10
ATOM     10  O   UNL     1       0.480  -3.424  -4.068  0.00  0.00    -0.488 OA
BRANCH  10  12
ATOM     11  C   UNL     1      -0.646  -4.418  -5.961  0.00  0.00    +0.048 C 
ATOM     12  C   UNL     1      -0.444  -4.446  -4.445  0.00  0.00    +0.226 C 
ENDBRANCH  10  12
ENDBRANCH   4  10
BRANCH   9  13
ATOM     13  O   UNL     1       2.242  -1.497  -3.206  0.00  0.00    -0.485 OA
BRANCH  13  14
ATOM     14  C   UNL     1       1.554  -0.277  -3.491  0.00  0.00    +0.226 C 
ATOM     15  C   UNL     1       2.352   0.531  -4.516  0.00  0.00    +0.048 C 
ENDBRANCH  13  14
ENDBRANCH   9  13
BRANCH   8  16
ATOM     16  O   UNL     1       2.828  -1.259  -0.530  0.00  0.00    -0.488 OA
BRANCH  16  17
ATOM     17  C   UNL     1       3.091  -1.196   0.874  0.00  0.00    +0.226 C 
ATOM     18  C   UNL     1       4.083  -0.066   1.157  0.00  0.00    +0.048 C 
ENDBRANCH  16  17
ENDBRANCH   8  16
ENDBRANCH   1   6
BRANCH   3  19
ATOM     19  C   UNL     1       0.478  -6.840  -0.936  0.00  0.00    +0.070 C 
ATOM     20  C   UNL     1       1.508  -7.881  -0.495  0.00  0.00    +0.028 C 
ATOM     21  C   UNL     1      -0.552  -7.499  -1.856  0.00  0.00    +0.028 C 
ENDBRANCH   3  19
BRANCH   3  22
ATOM     22  C   UNL     1      -0.941  -7.183   1.140  0.00  0.00    +0.125 C 
BRANCH  22  23
ATOM     23  C   UNL     1      -2.393  -7.285   0.670  0.00  0.00    +0.116 C 
ATOM     24  C   UNL     1      -3.068  -8.374   1.481  0.00  0.00    -0.003 C 
ATOM     25  C   UNL     1      -4.171  -8.024   2.201  0.00  0.00    -0.004 A 
ATOM     26  C   UNL     1      -4.883  -9.014   3.011  0.00  0.00    +0.055 A 
ATOM     27  C   UNL     1      -5.981  -8.619   3.714  0.00  0.00    +0.121 A 
ATOM     28  C   UNL     1      -6.433  -7.295   3.673  0.00  0.00    +0.047 A 
ATOM     29  C   UNL     1      -5.814  -6.333   2.940  0.00  0.00    +0.027 A 
ATOM     30  C   UNL     1      -4.671  -6.638   2.179  0.00  0.00    +0.041 A 
ATOM     31  N   UNL     1      -4.073  -5.684   1.465  0.00  0.00    -0.284 N 
ATOM     32  C   UNL     1      -2.998  -5.901   0.727  0.00  0.00    +0.226 C 
ATOM     33  O   UNL     1      -2.497  -4.989   0.097  0.00  0.00    -0.275 OA
ATOM     34  H   UNL     1      -4.446  -4.789   1.487  0.00  0.00    +0.155 HD
BRANCH  27  35
ATOM     35  O   UNL     1      -6.651  -9.529   4.470  0.00  0.00    -0.495 OA
ATOM     36  C   UNL     1      -7.795  -9.060   5.186  0.00  0.00    +0.277 C 
ENDBRANCH  27  35
ENDBRANCH  22  23
ENDBRANCH   3  22
TORSDOF 11
