REMARK  Name = ZINC08695368
REMARK  17 active torsions:
REMARK  status: ('A' for Active; 'I' for Inactive)
REMARK    1  A    between atoms: C_1  and  C_2
REMARK    2  A    between atoms: C_2  and  C_3
REMARK    3  A    between atoms: C_3  and  C_4
REMARK    4  A    between atoms: C_4  and  N_72
REMARK    5  A    between atoms: C_5  and  C_6
REMARK    6  A    between atoms: C_5  and  N_72
REMARK    7  A    between atoms: C_6  and  C_7
REMARK    8  A    between atoms: C_7  and  C_8
REMARK    9  A    between atoms: C_9  and  C_10
REMARK   10  A    between atoms: C_9  and  N_72
REMARK   11  A    between atoms: C_10  and  C_11
REMARK   12  A    between atoms: C_11  and  N_12
REMARK   13  A    between atoms: C_13  and  C_29
REMARK   14  A    between atoms: C_15  and  C_20
REMARK   15  A    between atoms: C_16  and  O_19
REMARK   16  A    between atoms: C_20  and  C_22
REMARK   17  A    between atoms: C_32  and  C_35
REMARK                            x       y       z     vdW  Elec       q    Type
REMARK                         _______ _______ _______ _____ _____    ______ ____
ROOT
ATOM      1  N   UNL     1      -1.127   4.238   0.318  0.00  0.00    -0.284 N 
ATOM      2  C   UNL     1       0.226   3.945  -0.169  0.00  0.00    +0.144 C 
ATOM      3  C   UNL     1       0.326   2.440  -0.256  0.00  0.00    +0.071 C 
ATOM      4  C   UNL     1      -0.869   1.946   0.143  0.00  0.00    +0.188 C 
ATOM      5  C   UNL     1      -1.763   3.067   0.503  0.00  0.00    +0.282 C 
ATOM      6  O   UNL     1      -2.904   2.948   0.902  0.00  0.00    -0.267 OA
ENDROOT
BRANCH   2   7
ATOM      7  C   UNL     1       0.430   4.558  -1.531  0.00  0.00    -0.022 A 
ATOM      8  C   UNL     1      -0.533   4.400  -2.511  0.00  0.00    +0.006 A 
ATOM      9  C   UNL     1      -0.349   4.966  -3.758  0.00  0.00    +0.004 A 
ATOM     10  C   UNL     1       0.803   5.680  -4.030  0.00  0.00    -0.050 A 
ATOM     11  C   UNL     1       1.769   5.833  -3.052  0.00  0.00    +0.004 A 
ATOM     12  C   UNL     1       1.582   5.271  -1.803  0.00  0.00    +0.006 A 
ATOM     13  C   UNL     1       1.007   6.293  -5.392  0.00  0.00    +0.044 C 
ENDBRANCH   2   7
BRANCH   4  14
ATOM     14  O   UNL     1      -1.193   0.634   0.204  0.00  0.00    -0.502 OA
ATOM     15  H   UNL     1      -2.134   0.538   0.530  0.00  0.00    +0.292 HD
ENDBRANCH   4  14
BRANCH   3  16
ATOM     16  C   UNL     1       1.491   1.665  -0.694  0.00  0.00    +0.195 C 
ATOM     17  O   UNL     1       1.431   0.997  -1.708  0.00  0.00    -0.287 OA
BRANCH  16  18
ATOM     18  C   UNL     1       2.740   1.701   0.094  0.00  0.00    +0.022 A 
ATOM     19  C   UNL     1       2.827   2.503   1.235  0.00  0.00    +0.014 A 
ATOM     20  C   UNL     1       3.993   2.528   1.970  0.00  0.00    +0.039 A 
ATOM     21  C   UNL     1       5.083   1.768   1.571  0.00  0.00    +0.123 A 
ATOM     22  C   UNL     1       5.004   0.975   0.436  0.00  0.00    +0.039 A 
ATOM     23  C   UNL     1       3.842   0.938  -0.302  0.00  0.00    +0.014 A 
ATOM     24  F   UNL     1       6.226   1.801   2.291  0.00  0.00    -0.205 F 
ENDBRANCH  16  18
ENDBRANCH   3  16
BRANCH   1  25
ATOM     25  C   UNL     1      -1.687   5.570   0.560  0.00  0.00    +0.107 C 
BRANCH  25  26
ATOM     26  C   UNL     1      -2.362   6.079  -0.715  0.00  0.00    +0.000 C 
BRANCH  26  27
ATOM     27  C   UNL     1      -2.946   7.470  -0.462  0.00  0.00    -0.077 C 
BRANCH  27  28
ATOM     28  N   UNL     1      -3.575   7.957  -1.708  0.00  0.00    +0.380 N 
ATOM     29  H   UNL     1      -2.901   7.872  -2.477  0.00  0.00    -0.082 HD
BRANCH  28  30
ATOM     30  C   UNL     1      -4.768   7.143  -2.022  0.00  0.00    -0.079 C 
BRANCH  30  31
ATOM     31  C   UNL     1      -5.795   7.236  -0.892  0.00  0.00    -0.019 C 
BRANCH  31  33
ATOM     32  C   UNL     1      -8.039   6.469  -0.106  0.00  0.00    +0.004 C 
ATOM     33  C   UNL     1      -7.012   6.376  -1.236  0.00  0.00    -0.005 C 
ENDBRANCH  31  33
ENDBRANCH  30  31
ENDBRANCH  28  30
BRANCH  28  34
ATOM     34  C   UNL     1      -3.958   9.377  -1.559  0.00  0.00    -0.079 C 
BRANCH  34  35
ATOM     35  C   UNL     1      -4.383   9.918  -2.925  0.00  0.00    -0.019 C 
BRANCH  35  36
ATOM     36  C   UNL     1      -4.705  11.409  -2.805  0.00  0.00    -0.005 C 
ATOM     37  C   UNL     1      -5.131  11.951  -4.171  0.00  0.00    +0.004 C 
ENDBRANCH  35  36
ENDBRANCH  34  35
ENDBRANCH  28  34
ENDBRANCH  27  28
ENDBRANCH  26  27
ENDBRANCH  25  26
ENDBRANCH   1  25
TORSDOF 14
