REMARK  Name = ZINC04311474
REMARK  11 active torsions:
REMARK  status: ('A' for Active; 'I' for Inactive)
REMARK    1  A    between atoms: C_1  and  C_2
REMARK    2  A    between atoms: C_7  and  C_8
REMARK    3  A    between atoms: C_7  and  N_75
REMARK    4  A    between atoms: C_9  and  C_13
REMARK    5  A    between atoms: C_13  and  C_14
REMARK    6  A    between atoms: C_14  and  C_15
REMARK    7  A    between atoms: C_23  and  C_33
REMARK    8  A    between atoms: C_27  and  C_28
REMARK    9  A    between atoms: C_27  and  C_29
REMARK   10  A    between atoms: C_29  and  O_31
REMARK   11  A    between atoms: O_31  and  C_32
REMARK                            x       y       z     vdW  Elec       q    Type
REMARK                         _______ _______ _______ _____ _____    ______ ____
ROOT
ATOM      1  C   UNL     1       0.169   0.434  -0.586  0.00  0.00    +0.021 C 
ATOM      2  C   UNL     1       0.553   1.879  -0.364  0.00  0.00    -0.073 C 
ATOM      3  C   UNL     1      -0.365   2.817  -0.341  0.00  0.00    +0.008 C 
ATOM      4  C   UNL     1       2.011   2.229  -0.177  0.00  0.00    +0.031 C 
ATOM      5  C   UNL     1       2.607   1.299   0.890  0.00  0.00    +0.009 C 
ATOM      6  C   UNL     1       2.317  -0.150   0.498  0.00  0.00    +0.012 C 
ATOM      7  C   UNL     1       0.821  -0.427   0.516  0.00  0.00    -0.022 C 
ATOM      8  C   UNL     1       0.539  -1.896   0.196  0.00  0.00    +0.007 C 
ATOM      9  C   UNL     1       1.299  -2.803   1.163  0.00  0.00    +0.002 C 
ATOM     10  C   UNL     1       2.798  -2.578   0.996  0.00  0.00    +0.018 C 
ATOM     11  C   UNL     1       3.172  -1.124   1.284  0.00  0.00    +0.068 C 
ATOM     12  C   UNL     1       3.121  -0.864   2.789  0.00  0.00    +0.023 C 
ATOM     13  C   UNL     1       0.170  -0.059   1.848  0.00  0.00    +0.012 C 
ENDROOT
BRANCH  11  14
ATOM     14  C   UNL     1       4.621  -0.956   0.843  0.00  0.00    +0.313 C 
ATOM     15  O   UNL     1       4.902  -0.151  -0.013  0.00  0.00    -0.250 OA
BRANCH  14  16
ATOM     16  O   UNL     1       5.585  -1.702   1.405  0.00  0.00    -0.468 OA
ATOM     17  C   UNL     1       6.942  -1.488   0.936  0.00  0.00    +0.280 C 
ENDBRANCH  14  16
ENDBRANCH  11  14
BRANCH   1  18
ATOM     18  C   UNL     1      -1.353   0.302  -0.509  0.00  0.00    +0.013 C 
BRANCH  18  19
ATOM     19  C   UNL     1      -1.979   0.852  -1.793  0.00  0.00    +0.039 C 
BRANCH  19  21
ATOM     20  C   UNL     1      -4.407   1.354  -1.200  0.00  0.00    +0.092 A 
ATOM     21  C   UNL     1      -3.463   0.590  -1.780  0.00  0.00    -0.008 A 
ATOM     22  C   UNL     1      -4.130  -0.508  -2.370  0.00  0.00    +0.045 A 
ATOM     23  C   UNL     1      -5.442  -0.347  -2.120  0.00  0.00    +0.195 A 
ATOM     24  O   UNL     1      -5.604   0.784  -1.414  0.00  0.00    -0.469 OA
BRANCH  20  25
ATOM     25  C   UNL     1      -4.162   2.633  -0.442  0.00  0.00    -0.003 C 
BRANCH  25  32
ATOM     26  C   UNL     1      -3.540   7.298  -3.686  0.00  0.00    +0.007 C 
ATOM     27  C   UNL     1      -3.305   6.185  -2.663  0.00  0.00    -0.018 C 
ATOM     28  C   UNL     1      -4.432   6.197  -1.626  0.00  0.00    -0.016 C 
ATOM     29  C   UNL     1      -4.224   5.045  -0.641  0.00  0.00    -0.078 C 
ATOM     30  C   UNL     1      -3.119   3.716  -2.339  0.00  0.00    -0.078 C 
ATOM     31  C   UNL     1      -3.293   4.829  -3.375  0.00  0.00    -0.016 C 
ATOM     32  N   UNL     1      -4.247   3.768  -1.385  0.00  0.00    +0.384 N 
ATOM     33  H   UNL     1      -5.128   3.702  -1.907  0.00  0.00    -0.081 HD
ENDBRANCH  25  32
ENDBRANCH  20  25
ENDBRANCH  19  21
ENDBRANCH  18  19
ENDBRANCH   1  18
TORSDOF 7
