REMARK  Name = ZINC15860534
REMARK  8 active torsions:
REMARK  status: ('A' for Active; 'I' for Inactive)
REMARK    1  A    between atoms: C_1  and  C_2
REMARK    2  A    between atoms: C_5  and  C_7
REMARK    3  A    between atoms: C_7  and  C_9
REMARK    4  A    between atoms: C_7  and  N_56
REMARK    5  A    between atoms: C_9  and  N_10
REMARK    6  A    between atoms: C_11  and  C_13
REMARK    7  A    between atoms: C_15  and  C_18
REMARK    8  A    between atoms: C_27  and  C_30
REMARK                            x       y       z     vdW  Elec       q    Type
REMARK                         _______ _______ _______ _____ _____    ______ ____
ROOT
ATOM      1  C   UNL     1      -4.019   4.029   2.677  0.00  0.00    +0.097 C 
ENDROOT
BRANCH   1   2
ATOM      2  N   UNL     1      -5.389   4.349   3.083  0.00  0.00    -0.311 N 
ATOM      3  C   UNL     1      -5.915   5.555   2.791  0.00  0.00    +0.266 C 
ATOM      4  O   UNL     1      -5.251   6.377   2.190  0.00  0.00    -0.268 OA
ATOM      5  H   UNL     1      -5.919   3.693   3.563  0.00  0.00    +0.149 HD
BRANCH   3   6
ATOM      6  C   UNL     1      -7.303   5.880   3.202  0.00  0.00    +0.168 A 
ATOM      7  C   UNL     1      -7.994   7.098   2.977  0.00  0.00    +0.086 A 
ATOM      8  C   UNL     1      -9.222   6.886   3.541  0.00  0.00    +0.168 A 
ATOM      9  O   UNL     1      -9.196   5.640   4.046  0.00  0.00    -0.354 OA
ATOM     10  N   UNL     1      -8.132   5.100   3.851  0.00  0.00    -0.073 NA
BRANCH   8  11
ATOM     11  C   UNL     1     -10.350   7.839   3.591  0.00  0.00    +0.020 A 
ATOM     12  C   UNL     1     -10.222   9.108   3.023  0.00  0.00    +0.013 A 
ATOM     13  C   UNL     1     -11.280   9.991   3.068  0.00  0.00    +0.016 A 
ATOM     14  C   UNL     1     -12.465   9.626   3.685  0.00  0.00    +0.018 A 
ATOM     15  C   UNL     1     -12.596   8.371   4.255  0.00  0.00    +0.016 A 
ATOM     16  C   UNL     1     -11.547   7.477   4.212  0.00  0.00    +0.013 A 
ATOM     17 BR   UNL     1     -13.908  10.845   3.750  0.00  0.00    -0.050 Br
ENDBRANCH   8  11
ENDBRANCH   3   6
ENDBRANCH   1   2
BRANCH   1  18
ATOM     18  C   UNL     1      -3.672   2.609   3.128  0.00  0.00    +0.016 C 
BRANCH  18  25
ATOM     19  C   UNL     1      -4.777   1.774   1.142  0.00  0.00    -0.078 C 
ATOM     20  C   UNL     1      -5.926   0.892   0.647  0.00  0.00    -0.015 C 
ATOM     21  C   UNL     1      -5.660  -0.559   1.056  0.00  0.00    -0.018 C 
ATOM     22  C   UNL     1      -5.507  -0.633   2.578  0.00  0.00    -0.015 C 
ATOM     23  C   UNL     1      -4.371   0.294   3.017  0.00  0.00    -0.078 C 
ATOM     24  C   UNL     1      -6.834  -1.437   0.617  0.00  0.00    +0.007 C 
ATOM     25  N   UNL     1      -4.699   1.678   2.615  0.00  0.00    +0.387 N 
ATOM     26  H   UNL     1      -5.609   1.934   3.015  0.00  0.00    -0.081 HD
ENDBRANCH  18  25
BRANCH  18  31
ATOM     27  C   UNL     1      -0.013   1.086   0.008  0.00  0.00    +0.086 C 
ATOM     28  C   UNL     1      -0.718   1.572   1.248  0.00  0.00    +0.102 A 
ATOM     29  C   UNL     1      -0.136   1.835   2.432  0.00  0.00    +0.044 A 
ATOM     30  C   UNL     1      -1.162   2.263   3.306  0.00  0.00    +0.043 A 
ATOM     31  C   UNL     1      -2.309   2.234   2.604  0.00  0.00    +0.093 A 
ATOM     32  O   UNL     1      -2.033   1.821   1.357  0.00  0.00    -0.466 OA
ENDBRANCH  18  31
ENDBRANCH   1  18
TORSDOF 6
