REMARK  Name = ZINC40260290
REMARK  15 active torsions:
REMARK  status: ('A' for Active; 'I' for Inactive)
REMARK    1  A    between atoms: C_1  and  C_2
REMARK    2  A    between atoms: C_2  and  C_4
REMARK    3  A    between atoms: C_2  and  N_10
REMARK    4  A    between atoms: C_11  and  C_13
REMARK    5  A    between atoms: C_16  and  C_18
REMARK    6  A    between atoms: C_18  and  N_19
REMARK    7  A    between atoms: N_19  and  C_20
REMARK    8  A    between atoms: N_19  and  C_31
REMARK    9  A    between atoms: C_20  and  C_21
REMARK   10  A    between atoms: C_24  and  C_27
REMARK   11  A    between atoms: C_27  and  C_28
REMARK   12  A    between atoms: C_27  and  C_29
REMARK   13  A    between atoms: C_27  and  C_30
REMARK   14  A    between atoms: C_31  and  C_32
REMARK   15  A    between atoms: C_31  and  C_33
REMARK                            x       y       z     vdW  Elec       q    Type
REMARK                         _______ _______ _______ _____ _____    ______ ____
ROOT
ATOM      1  C   UNL     1       2.555   0.330   4.269  0.00  0.00    +0.189 A 
ATOM      2  C   UNL     1       1.967   0.326   5.502  0.00  0.00    +0.055 A 
ATOM      3  C   UNL     1       2.577  -0.703   6.237  0.00  0.00    +0.043 A 
ATOM      4  C   UNL     1       3.498  -1.275   5.431  0.00  0.00    +0.090 A 
ATOM      5  O   UNL     1       3.479  -0.653   4.244  0.00  0.00    -0.457 OA
ENDROOT
BRANCH   1   7
ATOM      6  N   UNL     1       2.888   1.131   1.991  0.00  0.00    -0.302 N 
ATOM      7  C   UNL     1       2.233   1.238   3.164  0.00  0.00    +0.280 C 
ATOM      8  O   UNL     1       1.375   2.090   3.306  0.00  0.00    -0.267 OA
ATOM      9  H   UNL     1       3.572   0.453   1.878  0.00  0.00    +0.150 HD
BRANCH   6  11
ATOM     10  C   UNL     1       3.364   3.336   1.045  0.00  0.00    +0.033 C 
ATOM     11  C   UNL     1       2.567   2.039   0.887  0.00  0.00    +0.100 C 
BRANCH  11  12
ATOM     12  C   UNL     1       2.927   1.385  -0.422  0.00  0.00    -0.027 A 
ATOM     13  C   UNL     1       4.086   0.639  -0.526  0.00  0.00    +0.005 A 
ATOM     14  C   UNL     1       4.416   0.039  -1.727  0.00  0.00    +0.000 A 
ATOM     15  C   UNL     1       3.587   0.185  -2.824  0.00  0.00    +0.000 A 
ATOM     16  C   UNL     1       2.427   0.930  -2.719  0.00  0.00    +0.000 A 
ATOM     17  C   UNL     1       2.095   1.527  -1.517  0.00  0.00    +0.005 A 
ENDBRANCH  11  12
ENDBRANCH   6  11
ENDBRANCH   1   7
BRANCH   4  18
ATOM     18  C   UNL     1       4.397  -2.425   5.803  0.00  0.00    -0.002 C 
BRANCH  18  19
ATOM     19  N   UNL     1       3.942  -3.643   5.120  0.00  0.00    +0.389 N 
ATOM     20  H   UNL     1       3.866  -3.465   4.130  0.00  0.00    -0.080 HD
BRANCH  19  21
ATOM     21  C   UNL     1       2.631  -4.041   5.649  0.00  0.00    -0.074 C 
ATOM     22  C   UNL     1       2.614  -3.849   7.167  0.00  0.00    -0.013 C 
ATOM     23  C   UNL     1       1.541  -3.175   5.013  0.00  0.00    -0.013 C 
ENDBRANCH  19  21
BRANCH  19  24
ATOM     24  C   UNL     1       4.911  -4.724   5.349  0.00  0.00    -0.042 C 
BRANCH  24  25
ATOM     25  C   UNL     1       4.497  -5.944   4.566  0.00  0.00    -0.064 A 
ATOM     26  C   UNL     1       3.773  -6.948   5.182  0.00  0.00    +0.002 A 
ATOM     27  C   UNL     1       3.394  -8.066   4.464  0.00  0.00    +0.004 A 
ATOM     28  C   UNL     1       3.737  -8.181   3.130  0.00  0.00    -0.042 A 
ATOM     29  C   UNL     1       4.460  -7.177   2.514  0.00  0.00    +0.004 A 
ATOM     30  C   UNL     1       4.836  -6.056   3.231  0.00  0.00    +0.002 A 
BRANCH  28  31
ATOM     31  C   UNL     1       3.325  -9.401   2.348  0.00  0.00    -0.013 C 
ATOM     32  C   UNL     1       1.799  -9.514   2.347  0.00  0.00    +0.015 C 
ATOM     33  C   UNL     1       3.827  -9.278   0.908  0.00  0.00    +0.015 C 
ATOM     34  C   UNL     1       3.929 -10.649   2.994  0.00  0.00    +0.015 C 
ENDBRANCH  28  31
ENDBRANCH  24  25
ENDBRANCH  19  24
ENDBRANCH  18  19
ENDBRANCH   4  18
TORSDOF 9
