REMARK  Name = ZINC12492653
REMARK  8 active torsions:
REMARK  status: ('A' for Active; 'I' for Inactive)
REMARK    1  A    between atoms: C_1  and  C_2
REMARK    2  A    between atoms: C_2  and  C_3
REMARK    3  A    between atoms: C_2  and  C_4
REMARK    4  A    between atoms: C_2  and  C_5
REMARK    5  A    between atoms: C_8  and  C_12
REMARK    6  A    between atoms: N_14  and  N_15
REMARK    7  A    between atoms: C_16  and  C_18
REMARK    8  A    between atoms: C_22  and  N_24
REMARK                            x       y       z     vdW  Elec       q    Type
REMARK                         _______ _______ _______ _____ _____    ______ ____
ROOT
ATOM      1  C   UNL     1      -8.407   1.542   0.189  0.00  0.00    +0.260 C 
ATOM      2  O   UNL     1      -8.363   2.749   0.327  0.00  0.00    -0.269 OA
ATOM      3  N   UNL     1      -7.266   0.836   0.067  0.00  0.00    -0.230 N 
ATOM      4  H   UNL     1      -7.302  -0.128  -0.044  0.00  0.00    +0.173 HD
ENDROOT
BRANCH   1   8
ATOM      5  C   UNL     1     -12.159  -0.449   0.091  0.00  0.00    -0.028 A 
ATOM      6  C   UNL     1     -10.989  -1.177  -0.034  0.00  0.00    +0.006 A 
ATOM      7  C   UNL     1      -9.768  -0.535  -0.009  0.00  0.00    +0.013 A 
ATOM      8  C   UNL     1      -9.713   0.850   0.155  0.00  0.00    +0.039 A 
ATOM      9  C   UNL     1     -10.896   1.579   0.281  0.00  0.00    +0.028 A 
ATOM     10  C   UNL     1     -12.113   0.926   0.248  0.00  0.00    +0.022 A 
ATOM     11 BR   UNL     1     -13.718   1.911   0.419  0.00  0.00    -0.050 Br
BRANCH   5  13
ATOM     12  C   UNL     1     -13.264  -2.660  -0.109  0.00  0.00    +0.015 C 
ATOM     13  C   UNL     1     -13.490  -1.155   0.056  0.00  0.00    -0.012 C 
ATOM     14  C   UNL     1     -14.241  -0.893   1.363  0.00  0.00    +0.015 C 
ATOM     15  C   UNL     1     -14.315  -0.631  -1.120  0.00  0.00    +0.015 C 
ENDBRANCH   5  13
ENDBRANCH   1   8
BRANCH   3  16
ATOM     16  N   UNL     1      -6.029   1.492   0.099  0.00  0.00    -0.230 N 
ATOM     17  C   UNL     1      -4.888   0.785  -0.024  0.00  0.00    +0.260 C 
ATOM     18  O   UNL     1      -4.933  -0.422  -0.162  0.00  0.00    -0.269 OA
ATOM     19  H   UNL     1      -5.994   2.455   0.208  0.00  0.00    +0.173 HD
BRANCH  17  20
ATOM     20  C   UNL     1      -3.582   1.478   0.010  0.00  0.00    +0.040 A 
ATOM     21  C   UNL     1      -3.528   2.863   0.168  0.00  0.00    +0.013 A 
ATOM     22  C   UNL     1      -2.306   3.503   0.198  0.00  0.00    +0.003 A 
ATOM     23  C   UNL     1      -1.136   2.774   0.078  0.00  0.00    +0.033 A 
ATOM     24  C   UNL     1      -1.183   1.401  -0.084  0.00  0.00    +0.127 A 
ATOM     25  C   UNL     1      -2.399   0.749  -0.116  0.00  0.00    +0.045 A 
BRANCH  24  26
ATOM     26  N   UNL     1       0.073   0.630  -0.218  0.00  0.00    +0.056 N 
ATOM     27  O   UNL     1       0.033  -0.580  -0.356  0.00  0.00    -0.126 OA
ATOM     28  O   UNL     1       1.146   1.205  -0.195  0.00  0.00    -0.126 OA
ENDBRANCH  24  26
ENDBRANCH  17  20
ENDBRANCH   3  16
TORSDOF 5
