REMARK  Name = ZINC06046881
REMARK  6 active torsions:
REMARK  status: ('A' for Active; 'I' for Inactive)
REMARK    1  A    between atoms: C_1  and  C_2
REMARK    2  A    between atoms: C_5  and  C_8
REMARK    3  A    between atoms: C_10  and  C_17
REMARK    4  A    between atoms: C_11  and  C_16
REMARK    5  A    between atoms: N_19  and  C_20
REMARK    6  A    between atoms: C_23  and  N_26
REMARK                            x       y       z     vdW  Elec       q    Type
REMARK                         _______ _______ _______ _____ _____    ______ ____
ROOT
ATOM      1  C   UNL     1       1.467  -4.973  -0.040  0.00  0.00    +0.142 C 
ATOM      2  C   UNL     1       2.810  -4.277   0.036  0.00  0.00    +0.056 C 
ATOM      3  C   UNL     1       3.914  -5.049   0.126  0.00  0.00    +0.019 C 
ATOM      4  N   UNL     1       3.821  -6.412   0.141  0.00  0.00    -0.273 N 
ATOM      5  C   UNL     1       2.662  -7.079   0.071  0.00  0.00    +0.304 C 
ATOM      6  O   UNL     1       2.680  -8.294   0.092  0.00  0.00    -0.252 OA
ATOM      7  N   UNL     1       1.476  -6.446  -0.023  0.00  0.00    -0.288 N 
ATOM      8  C   UNL     1       5.270  -4.396   0.209  0.00  0.00    +0.061 C 
ATOM      9  H   UNL     1       4.642  -6.926   0.207  0.00  0.00    +0.156 HD
ATOM     10  H   UNL     1       0.648  -6.948  -0.073  0.00  0.00    +0.151 HD
ENDROOT
BRANCH   1  15
ATOM     11  C   UNL     1      -1.139  -3.285  -4.913  0.00  0.00    +0.044 C 
ATOM     12  C   UNL     1      -0.460  -3.725  -3.642  0.00  0.00    -0.050 A 
ATOM     13  C   UNL     1      -0.838  -3.177  -2.431  0.00  0.00    +0.004 A 
ATOM     14  C   UNL     1      -0.214  -3.581  -1.265  0.00  0.00    +0.006 A 
ATOM     15  C   UNL     1       0.787  -4.533  -1.311  0.00  0.00    -0.023 A 
ATOM     16  C   UNL     1       1.168  -5.078  -2.523  0.00  0.00    +0.006 A 
ATOM     17  C   UNL     1       0.541  -4.678  -3.688  0.00  0.00    +0.004 A 
ENDBRANCH   1  15
BRANCH   2  18
ATOM     18  C   UNL     1       2.905  -2.864   0.020  0.00  0.00    +0.248 C 
ATOM     19  O   UNL     1       2.590  -2.221   1.005  0.00  0.00    -0.270 OA
ATOM     20  N   UNL     1       3.343  -2.230  -1.086  0.00  0.00    -0.282 N 
ATOM     21  H   UNL     1       3.476  -2.726  -1.909  0.00  0.00    +0.155 HD
BRANCH  20  22
ATOM     22  C   UNL     1       3.607  -0.857  -1.047  0.00  0.00    +0.034 A 
ATOM     23  C   UNL     1       4.618  -0.321  -1.833  0.00  0.00    +0.025 A 
ATOM     24  C   UNL     1       4.876   1.036  -1.793  0.00  0.00    +0.034 A 
ATOM     25  C   UNL     1       4.128   1.859  -0.971  0.00  0.00    +0.126 A 
ATOM     26  C   UNL     1       3.121   1.327  -0.186  0.00  0.00    +0.034 A 
ATOM     27  C   UNL     1       2.858  -0.028  -0.222  0.00  0.00    +0.025 A 
BRANCH  25  28
ATOM     28  N   UNL     1       4.408   3.312  -0.930  0.00  0.00    +0.056 N 
ATOM     29  O   UNL     1       5.294   3.781  -1.620  0.00  0.00    -0.126 OA
ATOM     30  O   UNL     1       3.750   4.038  -0.206  0.00  0.00    -0.126 OA
ENDBRANCH  25  28
ENDBRANCH  20  22
ENDBRANCH   2  18
TORSDOF 4
