REMARK  Name = ZINC13064683
REMARK  13 active torsions:
REMARK  status: ('A' for Active; 'I' for Inactive)
REMARK    1  A    between atoms: C_1  and  C_2
REMARK    2  A    between atoms: C_2  and  C_3
REMARK    3  A    between atoms: C_3  and  C_5
REMARK    4  A    between atoms: C_3  and  N_72
REMARK    5  A    between atoms: N_9  and  C_10
REMARK    6  A    between atoms: C_10  and  C_11
REMARK    7  A    between atoms: C_18  and  C_19
REMARK    8  A    between atoms: C_18  and  N_72
REMARK    9  A    between atoms: C_22  and  C_25
REMARK   10  A    between atoms: C_26  and  C_27
REMARK   11  A    between atoms: C_26  and  N_72
REMARK   12  A    between atoms: C_31  and  C_40
REMARK   13  A    between atoms: C_32  and  C_39
REMARK                            x       y       z     vdW  Elec       q    Type
REMARK                         _______ _______ _______ _____ _____    ______ ____
ROOT
ATOM      1  N   UNL     1      -5.476   4.015  -1.919  0.00  0.00    +0.392 N 
ATOM      2  H   UNL     1      -4.966   4.384  -2.729  0.00  0.00    -0.080 HD
ENDROOT
BRANCH   1   3
ATOM      3  C   UNL     1      -6.793   4.682  -1.835  0.00  0.00    +0.003 C 
BRANCH   3   4
ATOM      4  C   UNL     1      -6.640   6.107  -2.302  0.00  0.00    +0.138 A 
ATOM      5  N   UNL     1      -5.698   6.948  -1.952  0.00  0.00    -0.115 NA
ATOM      6  N   UNL     1      -5.911   8.061  -2.565  0.00  0.00    -0.023 NA
ATOM      7  N   UNL     1      -6.970   7.954  -3.290  0.00  0.00    -0.044 NA
ATOM      8  N   UNL     1      -7.448   6.763  -3.155  0.00  0.00    -0.226 N 
BRANCH   8   9
ATOM      9  C   UNL     1      -8.645   6.227  -3.807  0.00  0.00    +0.182 C 
BRANCH   9  10
ATOM     10  C   UNL     1      -9.849   6.487  -2.939  0.00  0.00    -0.026 A 
ATOM     11  C   UNL     1     -10.233   5.553  -1.994  0.00  0.00    +0.008 A 
ATOM     12  C   UNL     1     -11.334   5.792  -1.194  0.00  0.00    +0.038 A 
ATOM     13  C   UNL     1     -12.059   6.962  -1.345  0.00  0.00    +0.123 A 
ATOM     14  C   UNL     1     -11.676   7.894  -2.295  0.00  0.00    +0.038 A 
ATOM     15  C   UNL     1     -10.571   7.655  -3.091  0.00  0.00    +0.008 A 
ATOM     16  F   UNL     1     -13.138   7.194  -0.567  0.00  0.00    -0.205 F 
ENDBRANCH   9  10
ENDBRANCH   8   9
ENDBRANCH   3   4
BRANCH   3  18
ATOM     17  C   UNL     1      -7.594   3.230   0.034  0.00  0.00    +0.002 C 
ATOM     18  C   UNL     1      -7.307   4.670  -0.394  0.00  0.00    -0.011 C 
ENDBRANCH   3  18
ENDBRANCH   1   3
BRANCH   1  19
ATOM     19  C   UNL     1      -5.659   2.558  -2.088  0.00  0.00    -0.042 C 
BRANCH  19  20
ATOM     20  C   UNL     1      -6.203   2.295  -3.469  0.00  0.00    -0.064 A 
ATOM     21  C   UNL     1      -7.564   2.148  -3.659  0.00  0.00    +0.002 A 
ATOM     22  C   UNL     1      -8.064   1.911  -4.926  0.00  0.00    +0.003 A 
ATOM     23  C   UNL     1      -7.201   1.811  -6.001  0.00  0.00    -0.050 A 
ATOM     24  C   UNL     1      -5.839   1.953  -5.811  0.00  0.00    +0.003 A 
ATOM     25  C   UNL     1      -5.340   2.194  -4.544  0.00  0.00    +0.002 A 
ATOM     26  C   UNL     1      -7.745   1.548  -7.382  0.00  0.00    +0.044 C 
ENDBRANCH  19  20
ENDBRANCH   1  19
BRANCH   1  27
ATOM     27  C   UNL     1      -4.694   4.286  -0.695  0.00  0.00    -0.036 C 
BRANCH  27  28
ATOM     28  C   UNL     1      -3.260   3.893  -0.940  0.00  0.00    +0.001 A 
ATOM     29  C   UNL     1      -2.363   4.825  -1.347  0.00  0.00    +0.017 A 
ATOM     30  C   UNL     1      -0.980   4.409  -1.582  0.00  0.00    -0.001 A 
ATOM     31  C   UNL     1      -0.014   5.322  -2.020  0.00  0.00    +0.013 A 
ATOM     32  C   UNL     1       1.268   4.902  -2.231  0.00  0.00    -0.047 A 
ATOM     33  C   UNL     1       1.623   3.577  -2.014  0.00  0.00    -0.046 A 
ATOM     34  C   UNL     1       0.688   2.661  -1.583  0.00  0.00    +0.030 A 
ATOM     35  C   UNL     1      -0.625   3.064  -1.367  0.00  0.00    +0.049 A 
ATOM     36  N   UNL     1      -1.582   2.168  -0.941  0.00  0.00    -0.322 N 
ATOM     37  H   UNL     1      -1.335   1.242  -0.789  0.00  0.00    +0.169 HD
ATOM     38  C   UNL     1      -2.852   2.558  -0.733  0.00  0.00    +0.251 A 
ATOM     39  O   UNL     1      -3.671   1.738  -0.357  0.00  0.00    -0.268 OA
ATOM     40  C   UNL     1       3.044   3.137  -2.254  0.00  0.00    +0.044 C 
ATOM     41  C   UNL     1       2.308   5.886  -2.703  0.00  0.00    +0.044 C 
ENDBRANCH  27  28
ENDBRANCH   1  27
TORSDOF 9
