REMARK  Name = ZINC08965443
REMARK  12 active torsions:
REMARK  status: ('A' for Active; 'I' for Inactive)
REMARK    1  A    between atoms: C_1  and  C_2
REMARK    2  A    between atoms: C_2  and  C_35
REMARK    3  A    between atoms: N_4  and  C_5
REMARK    4  A    between atoms: C_5  and  C_6
REMARK    5  A    between atoms: C_15  and  C_22
REMARK    6  A    between atoms: C_16  and  C_18
REMARK    7  A    between atoms: C_18  and  O_20
REMARK    8  A    between atoms: O_20  and  C_21
REMARK    9  A    between atoms: C_22  and  O_24
REMARK   10  A    between atoms: O_24  and  C_25
REMARK   11  A    between atoms: C_28  and  O_33
REMARK   12  A    between atoms: O_33  and  C_34
REMARK                            x       y       z     vdW  Elec       q    Type
REMARK                         _______ _______ _______ _____ _____    ______ ____
ROOT
ATOM      1  C   UNL     1      -0.012   1.257   0.556  0.00  0.00    +0.038 C 
ATOM      2  C   UNL     1      -0.005  -0.229   0.191  0.00  0.00    +0.069 C 
ATOM      3  C   UNL     1       0.711  -0.419  -1.122  0.00  0.00    +0.068 C 
ATOM      4  N   UNL     1       0.041  -0.396  -2.243  0.00  0.00    -0.281 NA
ATOM      5  C   UNL     1       2.109  -0.622  -1.138  0.00  0.00    +0.027 C 
ATOM      6  C   UNL     1       2.805  -0.662  -2.344  0.00  0.00    +0.060 C 
ATOM      7  S   UNL     1       2.419   0.131  -3.887  0.00  0.00    -0.073 S 
ATOM      8  C   UNL     1       3.709  -0.338  -4.990  0.00  0.00    +0.118 C 
ATOM      9  C   UNL     1       4.633  -1.144  -4.431  0.00  0.00    +0.118 C 
ATOM     10  S   UNL     1       4.315  -1.513  -2.738  0.00  0.00    -0.073 S 
ATOM     11  C   UNL     1       2.823  -0.790   0.149  0.00  0.00    +0.010 A 
ATOM     12  C   UNL     1       4.213  -0.789   0.203  0.00  0.00    +0.056 A 
ATOM     13  C   UNL     1       4.851  -0.936   1.425  0.00  0.00    +0.121 A 
ATOM     14  C   UNL     1       4.107  -1.083   2.588  0.00  0.00    +0.047 A 
ATOM     15  C   UNL     1       2.723  -1.090   2.539  0.00  0.00    +0.027 A 
ATOM     16  C   UNL     1       2.077  -0.950   1.325  0.00  0.00    +0.036 A 
ATOM     17  N   UNL     1       0.678  -0.987   1.244  0.00  0.00    -0.333 N 
ATOM     18  C   UNL     1      -1.446  -0.727   0.059  0.00  0.00    +0.038 C 
ATOM     19  H   UNL     1       0.165  -1.509   1.881  0.00  0.00    +0.147 HD
ENDROOT
BRANCH   9  20
ATOM     20  C   UNL     1       5.801  -1.662  -5.163  0.00  0.00    +0.347 C 
ATOM     21  O   UNL     1       6.865  -1.078  -5.101  0.00  0.00    -0.244 OA
BRANCH  20  22
ATOM     22  O   UNL     1       5.689  -2.783  -5.904  0.00  0.00    -0.464 OA
ATOM     23  C   UNL     1       6.863  -3.228  -6.587  0.00  0.00    +0.280 C 
ENDBRANCH  20  22
ENDBRANCH   9  20
BRANCH   8  24
ATOM     24  C   UNL     1       3.773   0.108  -6.393  0.00  0.00    +0.347 C 
ATOM     25  O   UNL     1       4.738  -0.169  -7.076  0.00  0.00    -0.244 OA
BRANCH  24  26
ATOM     26  O   UNL     1       2.759   0.826  -6.918  0.00  0.00    -0.464 OA
ATOM     27  C   UNL     1       2.888   1.225  -8.284  0.00  0.00    +0.280 C 
ENDBRANCH  24  26
ENDBRANCH   8  24
BRANCH  13  28
ATOM     28  O   UNL     1       6.209  -0.937   1.485  0.00  0.00    -0.495 OA
ATOM     29  C   UNL     1       6.801  -1.093   2.776  0.00  0.00    +0.277 C 
ENDBRANCH  13  28
BRANCH   4  30
ATOM     30  C   UNL     1       0.431  -1.274  -3.348  0.00  0.00    +0.177 C 
BRANCH  30  31
ATOM     31  C   UNL     1      -0.659  -2.284  -3.596  0.00  0.00    -0.026 A 
ATOM     32  C   UNL     1      -0.646  -3.494  -2.928  0.00  0.00    +0.005 A 
ATOM     33  C   UNL     1      -1.646  -4.421  -3.155  0.00  0.00    +0.000 A 
ATOM     34  C   UNL     1      -2.660  -4.137  -4.051  0.00  0.00    +0.000 A 
ATOM     35  C   UNL     1      -2.674  -2.926  -4.718  0.00  0.00    +0.000 A 
ATOM     36  C   UNL     1      -1.676  -1.998  -4.488  0.00  0.00    +0.005 A 
ENDBRANCH  30  31
ENDBRANCH   4  30
TORSDOF 7
