REMARK  Name = ZINC54425985
REMARK  4 active torsions:
REMARK  status: ('A' for Active; 'I' for Inactive)
REMARK    1  A    between atoms: C_10  and  C_16
REMARK    2  A    between atoms: C_19  and  O_22
REMARK    3  A    between atoms: O_22  and  C_23
REMARK    4  A    between atoms: C_23  and  C_24
REMARK                            x       y       z     vdW  Elec       q    Type
REMARK                         _______ _______ _______ _____ _____    ______ ____
ROOT
ATOM      1  C   UNL     1      -0.017   1.372   0.010  0.00  0.00    +0.002 A 
ATOM      2  C   UNL     1       1.170   2.091   0.002  0.00  0.00    +0.002 A 
ATOM      3  C   UNL     1       2.384   1.437  -0.015  0.00  0.00    +0.028 A 
ATOM      4  C   UNL     1       2.424   0.050  -0.023  0.00  0.00    +0.072 A 
ATOM      5  C   UNL     1       1.223  -0.683  -0.013  0.00  0.00    +0.091 A 
ATOM      6  C   UNL     1       0.002  -0.004   0.002  0.00  0.00    +0.030 A 
ATOM      7  N   UNL     1       1.555  -2.003  -0.020  0.00  0.00    -0.214 NA
ATOM      8  C   UNL     1       2.850  -2.125  -0.032  0.00  0.00    +0.205 A 
ATOM      9  N   UNL     1       3.436  -0.883  -0.043  0.00  0.00    -0.288 N 
ATOM     10  C   UNL     1       4.886  -0.668  -0.080  0.00  0.00    +0.209 C 
ATOM     11  N   UNL     1       5.538  -1.950   0.247  0.00  0.00    -0.294 N 
ATOM     12  C   UNL     1       4.974  -3.112  -0.261  0.00  0.00    +0.159 C 
ATOM     13  N   UNL     1       3.609  -3.293  -0.032  0.00  0.00    -0.259 N 
ATOM     14  N   UNL     1       5.681  -3.988  -0.917  0.00  0.00    -0.375 N 
ATOM     15  H   UNL     1       6.335  -1.981   0.799  0.00  0.00    +0.151 HD
ATOM     16  H   UNL     1       6.628  -3.836  -1.061  0.00  0.00    +0.158 HD
ATOM     17  H   UNL     1       3.218  -4.169   0.117  0.00  0.00    +0.158 HD
ATOM     18  H   UNL     1       5.261  -4.791  -1.261  0.00  0.00    +0.158 HD
ENDROOT
BRANCH  10  19
ATOM     19  C   UNL     1       5.301  -0.219  -1.457  0.00  0.00    -0.007 A 
ATOM     20  C   UNL     1       5.447  -1.147  -2.471  0.00  0.00    +0.011 A 
ATOM     21  C   UNL     1       5.828  -0.738  -3.734  0.00  0.00    +0.046 A 
ATOM     22  C   UNL     1       6.064   0.606  -3.985  0.00  0.00    +0.121 A 
ATOM     23  C   UNL     1       5.918   1.536  -2.966  0.00  0.00    +0.046 A 
ATOM     24  C   UNL     1       5.531   1.122  -1.705  0.00  0.00    +0.011 A 
BRANCH  22  25
ATOM     25  O   UNL     1       6.440   1.011  -5.226  0.00  0.00    -0.486 OA
BRANCH  25  26
ATOM     26  C   UNL     1       6.666   2.410  -5.412  0.00  0.00    +0.284 C 
BRANCH  26  27
ATOM     27  C   UNL     1       7.072   2.668  -6.840  0.00  0.00    +0.078 A 
ATOM     28  C   UNL     1       7.162   1.611  -7.726  0.00  0.00    +0.027 A 
ATOM     29  C   UNL     1       7.536   1.860  -9.038  0.00  0.00    +0.003 A 
ATOM     30  C   UNL     1       7.806   3.168  -9.411  0.00  0.00    +0.020 A 
ATOM     31  C   UNL     1       7.694   4.173  -8.469  0.00  0.00    +0.111 A 
ATOM     32  N   UNL     1       7.331   3.901  -7.231  0.00  0.00    -0.256 NA
ENDBRANCH  26  27
ENDBRANCH  25  26
ENDBRANCH  22  25
ENDBRANCH  10  19
TORSDOF 4
