REMARK  Name = ZINC63479162
REMARK  11 active torsions:
REMARK  status: ('A' for Active; 'I' for Inactive)
REMARK    1  A    between atoms: C_1  and  C_2
REMARK    2  A    between atoms: C_5  and  N_9
REMARK    3  A    between atoms: C_6  and  C_8
REMARK    4  A    between atoms: N_9  and  C_10
REMARK    5  A    between atoms: C_10  and  N_12
REMARK    6  A    between atoms: N_12  and  C_13
REMARK    7  A    between atoms: N_12  and  C_27
REMARK    8  A    between atoms: C_13  and  C_14
REMARK    9  A    between atoms: C_14  and  C_15
REMARK   10  A    between atoms: C_23  and  C_25
REMARK   11  A    between atoms: C_27  and  C_28
REMARK                            x       y       z     vdW  Elec       q    Type
REMARK                         _______ _______ _______ _____ _____    ______ ____
ROOT
ATOM      1  N   UNL     1      -0.124  -6.183  -1.187  0.00  0.00    -0.306 N 
ENDROOT
BRANCH   1   2
ATOM      2  C   UNL     1      -0.041  -4.838  -1.187  0.00  0.00    +0.137 C 
ATOM      3  S   UNL     1      -0.059  -3.979  -2.668  0.00  0.00    -0.018 S 
BRANCH   2   4
ATOM      4  N   UNL     1       0.058  -4.169  -0.021  0.00  0.00    -0.297 N 
ATOM      5  H   UNL     1       0.128  -4.658   0.814  0.00  0.00    +0.154 HD
BRANCH   4  10
ATOM      6  C   UNL     1       0.063   1.503   0.002  0.00  0.00    +0.044 C 
ATOM      7  C   UNL     1       0.061  -0.004  -0.004  0.00  0.00    -0.050 A 
ATOM      8  C   UNL     1       0.866  -0.691  -0.894  0.00  0.00    +0.005 A 
ATOM      9  C   UNL     1       0.867  -2.071  -0.903  0.00  0.00    +0.024 A 
ATOM     10  C   UNL     1       0.059  -2.771  -0.015  0.00  0.00    +0.036 A 
ATOM     11  C   UNL     1      -0.747  -2.078   0.878  0.00  0.00    -0.029 A 
ATOM     12  C   UNL     1      -0.740  -0.697   0.885  0.00  0.00    +0.008 A 
ATOM     13  C   UNL     1      -1.626  -2.832   1.843  0.00  0.00    +0.045 C 
ENDBRANCH   4  10
ENDBRANCH   2   4
ENDBRANCH   1   2
BRANCH   1  14
ATOM     14  C   UNL     1      -0.231  -6.910  -2.454  0.00  0.00    +0.111 C 
BRANCH  14  15
ATOM     15  C   UNL     1       1.169  -7.253  -2.966  0.00  0.00    +0.052 C 
BRANCH  15  16
ATOM     16  C   UNL     1       1.059  -8.001  -4.270  0.00  0.00    -0.037 C 
ATOM     17  C   UNL     1      -0.078  -8.332  -4.923  0.00  0.00    +0.001 A 
ATOM     18  C   UNL     1      -1.497  -8.105  -4.627  0.00  0.00    +0.030 A 
ATOM     19  C   UNL     1      -2.430  -8.567  -5.492  0.00  0.00    +0.042 A 
ATOM     20  C   UNL     1      -2.075  -9.256  -6.661  0.00  0.00    +0.022 A 
ATOM     21  C   UNL     1      -0.792  -9.503  -7.000  0.00  0.00    +0.027 A 
ATOM     22  C   UNL     1       0.271  -9.062  -6.163  0.00  0.00    +0.043 A 
ATOM     23  N   UNL     1       1.572  -9.177  -6.272  0.00  0.00    -0.378 N 
ATOM     24  C   UNL     1       2.197  -8.527  -5.115  0.00  0.00    +0.103 C 
ATOM     25  C   UNL     1       3.017  -9.546  -4.321  0.00  0.00    +0.035 C 
ATOM     26 CL   UNL     1      -4.110  -8.300  -5.145  0.00  0.00    -0.084 Cl
ATOM     27  H   UNL     1       2.043  -9.616  -6.998  0.00  0.00    +0.160 HD
ENDBRANCH  15  16
ENDBRANCH  14  15
ENDBRANCH   1  14
BRANCH   1  28
ATOM     28  C   UNL     1      -0.108  -6.919   0.080  0.00  0.00    +0.162 C 
BRANCH  28  29
ATOM     29  C   UNL     1      -1.519  -7.082   0.584  0.00  0.00    +0.058 A 
ATOM     30  C   UNL     1      -2.214  -8.244   0.302  0.00  0.00    +0.025 A 
ATOM     31  C   UNL     1      -3.511  -8.384   0.770  0.00  0.00    +0.003 A 
ATOM     32  C   UNL     1      -4.063  -7.348   1.507  0.00  0.00    +0.020 A 
ATOM     33  C   UNL     1      -3.308  -6.216   1.749  0.00  0.00    +0.111 A 
ATOM     34  N   UNL     1      -2.074  -6.119   1.292  0.00  0.00    -0.258 NA
ENDBRANCH  28  29
ENDBRANCH   1  28
TORSDOF 8
