REMARK  Name = ZINC08929193
REMARK  6 active torsions:
REMARK  status: ('A' for Active; 'I' for Inactive)
REMARK    1  A    between atoms: N_9  and  C_12
REMARK    2  A    between atoms: C_15  and  C_18
REMARK    3  A    between atoms: C_18  and  O_20
REMARK    4  A    between atoms: O_20  and  C_21
REMARK    5  A    between atoms: C_21  and  C_22
REMARK    6  A    between atoms: N_24  and  C_25
REMARK                            x       y       z     vdW  Elec       q    Type
REMARK                         _______ _______ _______ _____ _____    ______ ____
ROOT
ATOM      1  C   UNL     1      -0.014   1.211   0.009  0.00  0.00    +0.340 C 
ATOM      2  O   UNL     1       0.002  -0.004   0.002  0.00  0.00    -0.245 OA
ENDROOT
BRANCH   1   6
ATOM      3  C   UNL     1      -3.720   3.284   0.038  0.00  0.00    +0.045 A 
ATOM      4  C   UNL     1      -3.703   1.893   0.030  0.00  0.00    +0.025 A 
ATOM      5  C   UNL     1      -2.504   1.217   0.021  0.00  0.00    +0.017 A 
ATOM      6  C   UNL     1      -1.302   1.931   0.019  0.00  0.00    +0.059 A 
ATOM      7  C   UNL     1      -1.323   3.329   0.032  0.00  0.00    +0.017 A 
ATOM      8  C   UNL     1      -2.526   3.997   0.036  0.00  0.00    +0.025 A 
BRANCH   3  17
ATOM      9  C   UNL     1      -8.598   6.804   0.084  0.00  0.00    +0.001 A 
ATOM     10  C   UNL     1      -9.273   5.598   0.080  0.00  0.00    +0.001 A 
ATOM     11  C   UNL     1      -8.574   4.401   0.070  0.00  0.00    +0.014 A 
ATOM     12  C   UNL     1      -7.188   4.416   0.063  0.00  0.00    +0.050 A 
ATOM     13  C   UNL     1      -6.500   5.646   0.066  0.00  0.00    +0.050 A 
ATOM     14  C   UNL     1      -7.213   6.834   0.077  0.00  0.00    +0.014 A 
ATOM     15  C   UNL     1      -5.062   5.305   0.057  0.00  0.00    +0.258 C 
ATOM     16  O   UNL     1      -4.144   6.101   0.056  0.00  0.00    -0.269 OA
ATOM     17  N   UNL     1      -4.939   3.966   0.048  0.00  0.00    -0.202 N 
ATOM     18  C   UNL     1      -6.145   3.369   0.045  0.00  0.00    +0.258 C 
ATOM     19  O   UNL     1      -6.343   2.171   0.033  0.00  0.00    -0.269 OA
ENDBRANCH   3  17
ENDBRANCH   1   6
BRANCH   1  20
ATOM     20  O   UNL     1       1.143   1.900   0.001  0.00  0.00    -0.452 OA
BRANCH  20  21
ATOM     21  C   UNL     1       2.372   1.126  -0.015  0.00  0.00    +0.328 C 
BRANCH  21  22
ATOM     22  C   UNL     1       3.554   2.060  -0.021  0.00  0.00    +0.251 C 
ATOM     23  O   UNL     1       3.379   3.260  -0.013  0.00  0.00    -0.272 OA
ATOM     24  N   UNL     1       4.806   1.562  -0.035  0.00  0.00    -0.307 N 
ATOM     25  H   UNL     1       4.946   0.603  -0.042  0.00  0.00    +0.149 HD
BRANCH  24  26
ATOM     26  C   UNL     1       5.956   2.470  -0.042  0.00  0.00    +0.035 C 
ATOM     27  C   UNL     1       5.897   3.359  -1.286  0.00  0.00    +0.029 C 
ATOM     28  C   UNL     1       7.098   4.308  -1.292  0.00  0.00    -0.008 C 
ATOM     29  C   UNL     1       8.392   3.492  -1.309  0.00  0.00    +0.007 C 
ATOM     30  C   UNL     1       8.451   2.603  -0.065  0.00  0.00    -0.008 C 
ATOM     31  C   UNL     1       7.250   1.655  -0.058  0.00  0.00    +0.029 C 
ATOM     32  C   UNL     1       8.416   3.478   1.190  0.00  0.00    +0.007 C 
ATOM     33  C   UNL     1       7.122   4.294   1.206  0.00  0.00    -0.008 C 
ATOM     34  C   UNL     1       7.063   5.183  -0.037  0.00  0.00    +0.007 C 
ATOM     35  C   UNL     1       5.921   3.346   1.213  0.00  0.00    +0.029 C 
ENDBRANCH  24  26
ENDBRANCH  21  22
ENDBRANCH  20  21
ENDBRANCH   1  20
TORSDOF 6
