REMARK  Name = ZINC09569477
REMARK  8 active torsions:
REMARK  status: ('A' for Active; 'I' for Inactive)
REMARK    1  A    between atoms: C_1  and  C_2
REMARK    2  A    between atoms: C_5  and  O_31
REMARK    3  A    between atoms: C_6  and  S_8
REMARK    4  A    between atoms: S_8  and  N_11
REMARK    5  A    between atoms: N_11  and  C_12
REMARK    6  A    between atoms: N_18  and  S_22
REMARK    7  A    between atoms: S_22  and  C_25
REMARK    8  A    between atoms: O_31  and  C_32
REMARK                            x       y       z     vdW  Elec       q    Type
REMARK                         _______ _______ _______ _____ _____    ______ ____
ROOT
ATOM      1  C   UNL     1      -0.009   1.002  -0.675  0.00  0.00    +0.050 A 
ATOM      2  C   UNL     1       1.243   1.590  -0.548  0.00  0.00    +0.025 A 
ATOM      3  C   UNL     1       2.357   0.805  -0.329  0.00  0.00    +0.007 A 
ATOM      4  C   UNL     1       2.237  -0.572  -0.235  0.00  0.00    -0.025 A 
ATOM      5  C   UNL     1       0.988  -1.163  -0.359  0.00  0.00    +0.056 A 
ATOM      6  C   UNL     1      -0.136  -0.376  -0.580  0.00  0.00    +0.049 A 
ATOM      7  N   UNL     1       0.838  -2.550  -0.260  0.00  0.00    -0.203 N 
ATOM      8  C   UNL     1       2.034  -3.401  -0.324  0.00  0.00    +0.132 C 
ATOM      9  C   UNL     1       3.109  -2.766   0.567  0.00  0.00    +0.025 C 
ATOM     10  C   UNL     1       3.476  -1.396  -0.001  0.00  0.00    +0.038 C 
ENDROOT
BRANCH   7  11
ATOM     11  S   UNL     1      -0.664  -3.223  -0.071  0.00  0.00    +0.075 S 
ATOM     12  O   UNL     1      -0.460  -4.538   0.427  0.00  0.00    -0.150 OA
ATOM     13  O   UNL     1      -1.456  -2.262   0.614  0.00  0.00    -0.150 OA
BRANCH  11  14
ATOM     14  C   UNL     1      -1.362  -3.396  -1.680  0.00  0.00    +0.109 A 
ATOM     15  C   UNL     1      -2.119  -2.373  -2.219  0.00  0.00    +0.029 A 
ATOM     16  C   UNL     1      -2.663  -2.507  -3.483  0.00  0.00    +0.002 A 
ATOM     17  C   UNL     1      -2.458  -3.669  -4.203  0.00  0.00    +0.000 A 
ATOM     18  C   UNL     1      -1.706  -4.694  -3.662  0.00  0.00    +0.002 A 
ATOM     19  C   UNL     1      -1.157  -4.558  -2.401  0.00  0.00    +0.029 A 
ENDBRANCH  11  14
ENDBRANCH   7  11
BRANCH   1  20
ATOM     20  N   UNL     1      -1.136   1.795  -0.904  0.00  0.00    -0.216 N 
ATOM     21  H   UNL     1      -1.775   1.543  -1.589  0.00  0.00    +0.174 HD
BRANCH  20  22
ATOM     22  S   UNL     1      -1.381   3.164  -0.005  0.00  0.00    +0.076 S 
ATOM     23  O   UNL     1      -0.184   3.925  -0.089  0.00  0.00    -0.150 OA
ATOM     24  O   UNL     1      -2.644   3.685  -0.396  0.00  0.00    -0.150 OA
BRANCH  22  30
ATOM     25  C   UNL     1       0.291   3.108   4.945  0.00  0.00    +0.044 C 
ATOM     26  C   UNL     1      -0.731   2.669   3.929  0.00  0.00    -0.048 A 
ATOM     27  C   UNL     1      -1.794   1.874   4.318  0.00  0.00    +0.007 A 
ATOM     28  C   UNL     1      -2.732   1.470   3.388  0.00  0.00    +0.048 A 
ATOM     29  C   UNL     1      -2.611   1.868   2.065  0.00  0.00    +0.147 A 
ATOM     30  C   UNL     1      -1.542   2.661   1.676  0.00  0.00    +0.150 A 
ATOM     31  C   UNL     1      -0.605   3.062   2.610  0.00  0.00    +0.036 A 
BRANCH  29  32
ATOM     32  O   UNL     1      -3.537   1.478   1.149  0.00  0.00    -0.493 OA
ATOM     33  C   UNL     1      -4.667   0.752   1.638  0.00  0.00    +0.277 C 
ENDBRANCH  29  32
ENDBRANCH  22  30
ENDBRANCH  20  22
ENDBRANCH   1  20
TORSDOF 6
