REMARK  Name = ZINC12783426
REMARK  7 active torsions:
REMARK  status: ('A' for Active; 'I' for Inactive)
REMARK    1  A    between atoms: C_1  and  C_2
REMARK    2  A    between atoms: C_5  and  N_8
REMARK    3  A    between atoms: C_9  and  C_11
REMARK    4  A    between atoms: C_11  and  C_12
REMARK    5  A    between atoms: C_14  and  C_17
REMARK    6  A    between atoms: C_17  and  N_59
REMARK    7  A    between atoms: C_21  and  C_23
REMARK                            x       y       z     vdW  Elec       q    Type
REMARK                         _______ _______ _______ _____ _____    ______ ____
ROOT
ATOM      1  C   UNL     1       7.551   3.498  -7.575  0.00  0.00    +0.087 A 
ATOM      2  N   UNL     1       7.082   3.558  -6.350  0.00  0.00    -0.250 NA
ATOM      3  C   UNL     1       5.887   3.095  -6.049  0.00  0.00    +0.032 A 
ATOM      4  C   UNL     1       5.134   2.558  -7.043  0.00  0.00    +0.068 A 
ATOM      5  S   UNL     1       6.241   2.748  -8.433  0.00  0.00    -0.080 S 
ENDROOT
BRANCH   1   6
ATOM      6  C   UNL     1       8.883   3.967  -8.102  0.00  0.00    +0.159 C 
BRANCH   6   8
ATOM      7  N   UNL     1      11.151   3.034  -8.426  0.00  0.00    -0.285 N 
ATOM      8  C   UNL     1       9.884   2.844  -8.009  0.00  0.00    +0.224 C 
ATOM      9  O   UNL     1       9.549   1.769  -7.558  0.00  0.00    -0.275 OA
ATOM     10  H   UNL     1      11.402   3.871  -8.848  0.00  0.00    +0.155 HD
BRANCH   7  15
ATOM     11  C   UNL     1      15.016  -1.057  -7.714  0.00  0.00    +0.044 C 
ATOM     12  C   UNL     1      13.989   0.030  -7.903  0.00  0.00    -0.050 A 
ATOM     13  C   UNL     1      12.677  -0.302  -8.184  0.00  0.00    +0.005 A 
ATOM     14  C   UNL     1      11.734   0.692  -8.358  0.00  0.00    +0.023 A 
ATOM     15  C   UNL     1      12.104   2.026  -8.250  0.00  0.00    +0.033 A 
ATOM     16  C   UNL     1      13.425   2.356  -7.974  0.00  0.00    +0.023 A 
ATOM     17  C   UNL     1      14.362   1.357  -7.796  0.00  0.00    +0.005 A 
ENDBRANCH   7  15
ENDBRANCH   6   8
ENDBRANCH   1   6
BRANCH   3  18
ATOM     18  C   UNL     1       5.365   3.165  -4.637  0.00  0.00    -0.021 C 
BRANCH  18  23
ATOM     19  C   UNL     1       7.292   1.811  -4.053  0.00  0.00    -0.077 C 
ATOM     20  C   UNL     1       7.924   1.823  -2.646  0.00  0.00    -0.020 C 
ATOM     21  C   UNL     1       6.734   1.446  -1.725  0.00  0.00    -0.013 C 
ATOM     22  C   UNL     1       5.551   2.147  -2.439  0.00  0.00    -0.037 C 
ATOM     23  N   UNL     1       5.840   1.979  -3.877  0.00  0.00    +0.388 N 
ATOM     24  H   UNL     1       5.357   1.142  -4.225  0.00  0.00    -0.080 HD
BRANCH  22  25
ATOM     25  C   UNL     1       4.252   1.469  -2.090  0.00  0.00    -0.057 A 
ATOM     26  C   UNL     1       3.933   0.252  -2.663  0.00  0.00    +0.006 A 
ATOM     27  C   UNL     1       2.741  -0.372  -2.347  0.00  0.00    +0.049 A 
ATOM     28  C   UNL     1       1.861   0.222  -1.454  0.00  0.00    +0.162 A 
ATOM     29  C   UNL     1       2.183   1.444  -0.876  0.00  0.00    +0.162 A 
ATOM     30  C   UNL     1       3.381   2.065  -1.198  0.00  0.00    +0.051 A 
ATOM     31  O   UNL     1       1.338   2.040   0.009  0.00  0.00    -0.485 OA
ATOM     32  C   UNL     1      -0.015   1.571   0.023  0.00  0.00    +0.270 C 
ATOM     33  C   UNL     1       0.009   0.036   0.025  0.00  0.00    +0.270 C 
ATOM     34  O   UNL     1       0.690  -0.404  -1.155  0.00  0.00    -0.485 OA
ENDBRANCH  22  25
ENDBRANCH  18  23
ENDBRANCH   3  18
TORSDOF 6
