REMARK  Name = ZINC20493141
REMARK  10 active torsions:
REMARK  status: ('A' for Active; 'I' for Inactive)
REMARK    1  A    between atoms: C_1  and  C_2
REMARK    2  A    between atoms: C_2  and  O_3
REMARK    3  A    between atoms: O_3  and  C_4
REMARK    4  A    between atoms: C_9  and  N_10
REMARK    5  A    between atoms: N_10  and  C_11
REMARK    6  A    between atoms: N_10  and  S_26
REMARK    7  A    between atoms: C_11  and  C_12
REMARK    8  A    between atoms: N_14  and  N_15
REMARK    9  A    between atoms: C_16  and  C_17
REMARK   10  A    between atoms: S_26  and  C_29
REMARK                            x       y       z     vdW  Elec       q    Type
REMARK                         _______ _______ _______ _____ _____    ______ ____
ROOT
ATOM      1  N   UNL     1       2.018  -1.505   3.373  0.00  0.00    -0.191 N 
ENDROOT
BRANCH   1   7
ATOM      2  C   UNL     1       0.802  -1.825   1.306  0.00  0.00    +0.143 A 
ATOM      3  C   UNL     1       0.261  -2.673   0.353  0.00  0.00    +0.047 A 
ATOM      4  C   UNL     1       0.372  -4.043   0.503  0.00  0.00    +0.004 A 
ATOM      5  C   UNL     1       1.023  -4.571   1.603  0.00  0.00    +0.002 A 
ATOM      6  C   UNL     1       1.566  -3.732   2.558  0.00  0.00    +0.028 A 
ATOM      7  C   UNL     1       1.463  -2.357   2.411  0.00  0.00    +0.093 A 
BRANCH   2   8
ATOM      8  O   UNL     1       0.693  -0.477   1.160  0.00  0.00    -0.490 OA
BRANCH   8  10
ATOM      9  C   UNL     1      -0.019   1.526   0.010  0.00  0.00    +0.048 C 
ATOM     10  C   UNL     1       0.002  -0.004   0.002  0.00  0.00    +0.226 C 
ENDBRANCH   8  10
ENDBRANCH   2   8
ENDBRANCH   1   7
BRANCH   1  11
ATOM     11  S   UNL     1       1.075  -0.922   4.604  0.00  0.00    +0.075 S 
ATOM     12  O   UNL     1       1.689   0.279   5.052  0.00  0.00    -0.150 OA
ATOM     13  O   UNL     1      -0.268  -0.965   4.143  0.00  0.00    -0.150 OA
BRANCH  11  14
ATOM     14  C   UNL     1       1.188  -2.071   5.935  0.00  0.00    +0.109 A 
ATOM     15  C   UNL     1       0.294  -3.123   6.017  0.00  0.00    +0.029 A 
ATOM     16  C   UNL     1       0.382  -4.025   7.061  0.00  0.00    +0.002 A 
ATOM     17  C   UNL     1       1.364  -3.875   8.023  0.00  0.00    +0.000 A 
ATOM     18  C   UNL     1       2.257  -2.824   7.941  0.00  0.00    +0.002 A 
ATOM     19  C   UNL     1       2.172  -1.924   6.894  0.00  0.00    +0.029 A 
ENDBRANCH  11  14
ENDBRANCH   1  11
BRANCH   1  20
ATOM     20  C   UNL     1       3.431  -1.129   3.292  0.00  0.00    +0.229 C 
BRANCH  20  21
ATOM     21  C   UNL     1       3.585   0.051   2.368  0.00  0.00    +0.251 C 
ATOM     22  O   UNL     1       2.609   0.532   1.831  0.00  0.00    -0.272 OA
ATOM     23  N   UNL     1       4.806   0.574   2.139  0.00  0.00    -0.206 N 
ATOM     24  H   UNL     1       5.586   0.189   2.569  0.00  0.00    +0.177 HD
BRANCH  23  25
ATOM     25  N   UNL     1       4.949   1.671   1.280  0.00  0.00    -0.188 NA
ATOM     26  C   UNL     1       6.125   2.174   1.060  0.00  0.00    +0.138 C 
BRANCH  26  27
ATOM     27  C   UNL     1       6.275   3.329   0.156  0.00  0.00    -0.002 A 
ATOM     28  C   UNL     1       5.152   3.888  -0.459  0.00  0.00    +0.013 A 
ATOM     29  C   UNL     1       5.295   4.968  -1.304  0.00  0.00    +0.050 A 
ATOM     30  C   UNL     1       6.551   5.504  -1.545  0.00  0.00    +0.166 A 
ATOM     31  C   UNL     1       7.677   4.952  -0.934  0.00  0.00    +0.167 A 
ATOM     32  C   UNL     1       7.540   3.872  -0.082  0.00  0.00    +0.059 A 
ATOM     33  O   UNL     1       8.778   5.654  -1.332  0.00  0.00    -0.453 OA
ATOM     34  C   UNL     1       8.368   6.378  -2.507  0.00  0.00    +0.466 C 
ATOM     35  O   UNL     1       6.950   6.552  -2.325  0.00  0.00    -0.453 OA
ENDBRANCH  26  27
ENDBRANCH  23  25
ENDBRANCH  20  21
ENDBRANCH   1  20
TORSDOF 9
