REMARK  Name = ZINC00803812
REMARK  7 active torsions:
REMARK  status: ('A' for Active; 'I' for Inactive)
REMARK    1  A    between atoms: C_1  and  C_2
REMARK    2  A    between atoms: C_7  and  C_8
REMARK    3  A    between atoms: C_11  and  C_22
REMARK    4  A    between atoms: C_17  and  N_21
REMARK    5  A    between atoms: C_18  and  C_19
REMARK    6  A    between atoms: C_22  and  O_23
REMARK    7  A    between atoms: O_23  and  C_24
REMARK                            x       y       z     vdW  Elec       q    Type
REMARK                         _______ _______ _______ _____ _____    ______ ____
ROOT
ATOM      1  C   UNL     1      -0.018   1.504   0.010  0.00  0.00    +0.102 C 
ATOM      2  C   UNL     1       1.407   1.994  -0.001  0.00  0.00    +0.052 A 
ATOM      3  C   UNL     1       1.898   3.273   0.225  0.00  0.00    +0.096 A 
ATOM      4  N   UNL     1       3.205   3.232   0.113  0.00  0.00    -0.173 NA
ATOM      5  N   UNL     1       3.583   1.915  -0.190  0.00  0.00    -0.246 N 
ATOM      6  H   UNL     1       4.518   1.589  -0.333  0.00  0.00    +0.192 HD
ATOM      7  C   UNL     1       2.468   1.171  -0.255  0.00  0.00    +0.223 A 
ATOM      8  O   UNL     1       2.322  -0.152  -0.516  0.00  0.00    -0.423 OA
ATOM      9  C   UNL     1       1.125  -0.713  -0.252  0.00  0.00    +0.200 C 
ATOM     10  C   UNL     1       0.002  -0.004   0.002  0.00  0.00    +0.098 C 
ENDROOT
BRANCH   1  17
ATOM     11  C   UNL     1      -2.392   3.126   0.300  0.00  0.00    +0.044 C 
ATOM     12  C   UNL     1      -1.875   2.785  -1.074  0.00  0.00    -0.046 A 
ATOM     13  C   UNL     1      -2.534   3.252  -2.196  0.00  0.00    +0.003 A 
ATOM     14  C   UNL     1      -2.062   2.936  -3.457  0.00  0.00    +0.000 A 
ATOM     15  C   UNL     1      -0.929   2.156  -3.595  0.00  0.00    +0.000 A 
ATOM     16  C   UNL     1      -0.268   1.692  -2.473  0.00  0.00    +0.005 A 
ATOM     17  C   UNL     1      -0.739   2.010  -1.213  0.00  0.00    -0.032 A 
ENDBRANCH   1  17
BRANCH   9  18
ATOM     18  N   UNL     1       1.040  -2.083  -0.241  0.00  0.00    -0.328 N 
ATOM     19  H   UNL     1       0.193  -2.515  -0.054  0.00  0.00    +0.145 HD
ATOM     20  H   UNL     1       1.829  -2.618  -0.419  0.00  0.00    +0.145 HD
ENDBRANCH   9  18
BRANCH  10  21
ATOM     21  C   UNL     1      -1.213  -0.712   0.274  0.00  0.00    +0.101 C 
ATOM     22  N   UNL     1      -2.177  -1.273   0.490  0.00  0.00    -0.191 NA
ENDBRANCH  10  21
BRANCH   3  23
ATOM     23  C   UNL     1       1.075   4.494   0.544  0.00  0.00    +0.217 C 
BRANCH  23  24
ATOM     24  O   UNL     1       0.711   5.153  -0.671  0.00  0.00    -0.377 OA
ATOM     25  C   UNL     1      -0.077   6.330  -0.480  0.00  0.00    +0.194 C 
ENDBRANCH  23  24
ENDBRANCH   3  23
TORSDOF 5
