REMARK  Name = ZINC20150611
REMARK  6 active torsions:
REMARK  status: ('A' for Active; 'I' for Inactive)
REMARK    1  A    between atoms: C_1  and  O_2
REMARK    2  A    between atoms: O_2  and  C_3
REMARK    3  A    between atoms: C_3  and  C_5
REMARK    4  A    between atoms: C_5  and  C_29
REMARK    5  A    between atoms: C_10  and  C_13
REMARK    6  A    between atoms: N_20  and  C_23
REMARK                            x       y       z     vdW  Elec       q    Type
REMARK                         _______ _______ _______ _____ _____    ______ ____
ROOT
ATOM      1  C   UNL     1      -1.607  -2.199   0.114  0.00  0.00    +0.155 C 
ATOM      2  C   UNL     1      -2.573  -2.850  -0.899  0.00  0.00    +0.125 C 
ATOM      3  C   UNL     1      -1.761  -2.944  -2.219  0.00  0.00    +0.112 C 
ATOM      4  C   UNL     1      -0.388  -2.326  -1.884  0.00  0.00    +0.104 C 
ATOM      5  N   UNL     1      -0.251  -2.504  -0.409  0.00  0.00    -0.289 NA
ATOM      6  C   UNL     1      -1.615  -4.433  -2.433  0.00  0.00    +0.232 C 
ATOM      7  O   UNL     1      -1.037  -4.954  -3.364  0.00  0.00    -0.274 OA
ATOM      8  N   UNL     1      -2.220  -5.087  -1.436  0.00  0.00    -0.210 N 
ATOM      9  C   UNL     1      -2.804  -4.292  -0.509  0.00  0.00    +0.233 C 
ATOM     10  O   UNL     1      -3.411  -4.664   0.472  0.00  0.00    -0.274 OA
ATOM     11  H   UNL     1       0.433  -1.864  -0.034  0.00  0.00    +0.124 HD
ENDROOT
BRANCH   8  12
ATOM     12  C   UNL     1      -2.255  -6.487  -1.357  0.00  0.00    +0.044 A 
ATOM     13  C   UNL     1      -1.570  -7.144  -0.344  0.00  0.00    +0.024 A 
ATOM     14  C   UNL     1      -1.606  -8.522  -0.269  0.00  0.00    +0.002 A 
ATOM     15  C   UNL     1      -2.323  -9.248  -1.202  0.00  0.00    +0.000 A 
ATOM     16  C   UNL     1      -3.006  -8.597  -2.213  0.00  0.00    +0.002 A 
ATOM     17  C   UNL     1      -2.978  -7.218  -2.289  0.00  0.00    +0.024 A 
ENDBRANCH   8  12
BRANCH   1  18
ATOM     18  C   UNL     1      -1.791  -2.804   1.482  0.00  0.00    -0.016 A 
ATOM     19  C   UNL     1      -0.869  -3.713   1.965  0.00  0.00    +0.006 A 
ATOM     20  C   UNL     1      -1.037  -4.268   3.220  0.00  0.00    +0.000 A 
ATOM     21  C   UNL     1      -2.128  -3.914   3.991  0.00  0.00    +0.000 A 
ATOM     22  C   UNL     1      -3.051  -3.005   3.508  0.00  0.00    +0.000 A 
ATOM     23  C   UNL     1      -2.880  -2.446   2.255  0.00  0.00    +0.006 A 
ENDBRANCH   1  18
BRANCH   4  24
ATOM     24  C   UNL     1       0.711  -3.074  -2.594  0.00  0.00    +0.007 A 
ATOM     25  C   UNL     1       1.373  -2.744  -3.730  0.00  0.00    +0.013 A 
ATOM     26  C   UNL     1       2.357  -3.592  -4.203  0.00  0.00    +0.008 A 
ATOM     27  C   UNL     1       2.632  -4.728  -3.516  0.00  0.00    +0.045 A 
ATOM     28  S   UNL     1       1.486  -4.621  -2.152  0.00  0.00    -0.100 S 
ENDBRANCH   4  24
BRANCH   1  29
ATOM     29  C   UNL     1      -1.827  -0.709   0.166  0.00  0.00    +0.333 C 
ATOM     30  O   UNL     1      -2.916  -0.250  -0.087  0.00  0.00    -0.248 OA
BRANCH  29  32
ATOM     31  C   UNL     1      -1.094   1.509   0.524  0.00  0.00    +0.280 C 
ATOM     32  O   UNL     1      -0.814   0.108   0.494  0.00  0.00    -0.466 OA
ENDBRANCH  29  32
ENDBRANCH   1  29
TORSDOF 5
