REMARK  Name = ZINC49411541
REMARK  7 active torsions:
REMARK  status: ('A' for Active; 'I' for Inactive)
REMARK    1  A    between atoms: C_1  and  C_2
REMARK    2  A    between atoms: C_5  and  C_7
REMARK    3  A    between atoms: C_7  and  C_9
REMARK    4  A    between atoms: C_7  and  O_25
REMARK    5  A    between atoms: C_9  and  N_10
REMARK    6  A    between atoms: N_13  and  C_14
REMARK    7  A    between atoms: C_14  and  C_15
REMARK                            x       y       z     vdW  Elec       q    Type
REMARK                         _______ _______ _______ _____ _____    ______ ____
ROOT
ATOM      1  N   UNL     1       3.023  -4.715   1.401  0.00  0.00    -0.297 N 
ATOM      2  C   UNL     1       3.529  -5.183   2.559  0.00  0.00    +0.300 C 
ATOM      3  O   UNL     1       3.225  -4.657   3.612  0.00  0.00    -0.253 OA
ATOM      4  N   UNL     1       4.371  -6.236   2.550  0.00  0.00    -0.295 N 
ATOM      5  H   UNL     1       3.265  -5.136   0.561  0.00  0.00    +0.150 HD
ATOM      6  H   UNL     1       4.613  -6.656   1.710  0.00  0.00    +0.151 HD
ENDROOT
BRANCH   1   7
ATOM      7  C   UNL     1       2.107  -3.572   1.411  0.00  0.00    +0.145 C 
BRANCH   7   8
ATOM      8  C   UNL     1       1.684  -3.245  -0.023  0.00  0.00    +0.197 C 
BRANCH   8  13
ATOM      9  C   UNL     1      -0.018   1.503   0.010  0.00  0.00    +0.086 C 
ATOM     10  C   UNL     1       0.002  -0.004   0.002  0.00  0.00    +0.102 A 
ATOM     11  C   UNL     1      -1.078  -0.805   0.003  0.00  0.00    +0.045 A 
ATOM     12  C   UNL     1      -0.601  -2.136  -0.007  0.00  0.00    +0.047 A 
ATOM     13  C   UNL     1       0.742  -2.069  -0.013  0.00  0.00    +0.135 A 
ATOM     14  O   UNL     1       1.102  -0.775  -0.013  0.00  0.00    -0.462 OA
ENDBRANCH   8  13
BRANCH   8  15
ATOM     15  O   UNL     1       2.840  -2.924  -0.799  0.00  0.00    -0.383 OA
ATOM     16  H   UNL     1       3.337  -2.163  -0.468  0.00  0.00    +0.210 HD
ENDBRANCH   8  15
ENDBRANCH   7   8
ENDBRANCH   1   7
BRANCH   4  17
ATOM     17  C   UNL     1       4.921  -6.745   3.809  0.00  0.00    +0.141 C 
BRANCH  17  18
ATOM     18  C   UNL     1       5.827  -7.915   3.525  0.00  0.00    -0.023 A 
ATOM     19  C   UNL     1       5.373  -9.187   3.692  0.00  0.00    +0.006 A 
ATOM     20  C   UNL     1       6.196 -10.282   3.435  0.00  0.00    +0.001 A 
ATOM     21  C   UNL     1       7.478 -10.110   3.009  0.00  0.00    +0.008 A 
ATOM     22  C   UNL     1       7.981  -8.812   2.825  0.00  0.00    -0.018 A 
ATOM     23  C   UNL     1       7.142  -7.698   3.081  0.00  0.00    -0.013 A 
ATOM     24  C   UNL     1       7.644  -6.399   2.891  0.00  0.00    +0.009 A 
ATOM     25  C   UNL     1       8.923  -6.228   2.459  0.00  0.00    +0.001 A 
ATOM     26  C   UNL     1       9.746  -7.323   2.201  0.00  0.00    +0.001 A 
ATOM     27  C   UNL     1       9.299  -8.595   2.387  0.00  0.00    +0.008 A 
ENDBRANCH  17  18
ENDBRANCH   4  17
TORSDOF 6
