REMARK  Name = ZINC09597202
REMARK  16 active torsions:
REMARK  status: ('A' for Active; 'I' for Inactive)
REMARK    1  A    between atoms: C_1  and  C_2
REMARK    2  A    between atoms: C_2  and  N_3
REMARK    3  A    between atoms: N_3  and  C_4
REMARK    4  A    between atoms: N_3  and  S_6
REMARK    5  A    between atoms: C_4  and  C_5
REMARK    6  A    between atoms: S_6  and  C_9
REMARK    7  A    between atoms: N_15  and  C_19
REMARK    8  A    between atoms: C_19  and  N_64
REMARK    9  A    between atoms: C_20  and  N_64
REMARK   10  A    between atoms: C_21  and  C_22
REMARK   11  A    between atoms: C_21  and  N_64
REMARK   12  A    between atoms: C_22  and  C_23
REMARK   13  A    between atoms: C_26  and  O_31
REMARK   14  A    between atoms: C_27  and  O_29
REMARK   15  A    between atoms: O_29  and  C_30
REMARK   16  A    between atoms: O_31  and  C_32
REMARK                            x       y       z     vdW  Elec       q    Type
REMARK                         _______ _______ _______ _____ _____    ______ ____
ROOT
ATOM      1  C   UNL     1      -3.419   3.043   0.050  0.00  0.00    +0.108 A 
ATOM      2  C   UNL     1      -2.973   4.353   0.053  0.00  0.00    +0.032 A 
ATOM      3  C   UNL     1      -1.620   4.629   0.042  0.00  0.00    +0.050 A 
ATOM      4  C   UNL     1      -0.703   3.590   0.028  0.00  0.00    +0.154 A 
ATOM      5  C   UNL     1      -1.153   2.270   0.019  0.00  0.00    +0.088 A 
ATOM      6  C   UNL     1      -2.513   2.001   0.036  0.00  0.00    +0.058 A 
ATOM      7  N   UNL     1      -0.018   1.461   0.010  0.00  0.00    -0.319 N 
ATOM      8  C   UNL     1       1.058   2.272   0.004  0.00  0.00    +0.248 A 
ATOM      9  S   UNL     1       2.689   1.752  -0.014  0.00  0.00    +0.009 S 
ATOM     10  O   UNL     1       0.652   3.553   0.015  0.00  0.00    -0.431 OA
ENDROOT
BRANCH   1  11
ATOM     11  S   UNL     1      -5.148   2.704   0.064  0.00  0.00    +0.061 S 
ATOM     12  O   UNL     1      -5.302   1.401   0.609  0.00  0.00    -0.153 OA
ATOM     13  O   UNL     1      -5.782   3.845   0.626  0.00  0.00    -0.153 OA
BRANCH  11  14
ATOM     14  N   UNL     1      -5.643   2.617  -1.514  0.00  0.00    -0.177 NA
BRANCH  14  16
ATOM     15  C   UNL     1      -6.996   0.677  -2.135  0.00  0.00    +0.022 C 
ATOM     16  C   UNL     1      -5.617   1.334  -2.221  0.00  0.00    +0.106 C 
ENDBRANCH  14  16
BRANCH  14  17
ATOM     17  C   UNL     1      -6.106   3.824  -2.204  0.00  0.00    +0.106 C 
ATOM     18  C   UNL     1      -4.944   4.444  -2.983  0.00  0.00    +0.022 C 
ENDBRANCH  14  17
ENDBRANCH  11  14
ENDBRANCH   1  11
BRANCH   7  19
ATOM     19  C   UNL     1       0.002  -0.004   0.002  0.00  0.00    +0.050 C 
BRANCH  19  21
ATOM     20  C   UNL     1      -1.230  -0.172   2.079  0.00  0.00    -0.094 C 
ATOM     21  N   UNL     1       0.043  -0.488   1.398  0.00  0.00    +0.390 N 
ATOM     22  H   UNL     1       0.811  -0.018   1.892  0.00  0.00    -0.080 HD
BRANCH  21  23
ATOM     23  C   UNL     1       0.280  -1.947   1.420  0.00  0.00    -0.072 C 
BRANCH  23  24
ATOM     24  C   UNL     1       0.539  -2.383   2.864  0.00  0.00    +0.017 C 
BRANCH  24  25
ATOM     25  C   UNL     1       0.804  -3.866   2.901  0.00  0.00    -0.045 A 
ATOM     26  C   UNL     1      -0.245  -4.750   3.072  0.00  0.00    +0.007 A 
ATOM     27  C   UNL     1      -0.008  -6.111   3.101  0.00  0.00    +0.049 A 
ATOM     28  C   UNL     1       1.285  -6.592   2.969  0.00  0.00    +0.161 A 
ATOM     29  C   UNL     1       2.342  -5.702   2.802  0.00  0.00    +0.162 A 
ATOM     30  C   UNL     1       2.096  -4.339   2.769  0.00  0.00    +0.053 A 
BRANCH  29  31
ATOM     31  O   UNL     1       3.612  -6.170   2.672  0.00  0.00    -0.491 OA
ATOM     32  C   UNL     1       4.647  -5.198   2.504  0.00  0.00    +0.277 C 
ENDBRANCH  29  31
BRANCH  28  33
ATOM     33  O   UNL     1       1.521  -7.931   3.003  0.00  0.00    -0.491 OA
ATOM     34  C   UNL     1       0.388  -8.785   3.177  0.00  0.00    +0.277 C 
ENDBRANCH  28  33
ENDBRANCH  24  25
ENDBRANCH  23  24
ENDBRANCH  21  23
ENDBRANCH  19  21
ENDBRANCH   7  19
TORSDOF 11
