REMARK  Name = ZINC08783604
REMARK  4 active torsions:
REMARK  status: ('A' for Active; 'I' for Inactive)
REMARK    1  A    between atoms: C_6  and  N_7
REMARK    2  A    between atoms: C_9  and  N_21
REMARK    3  A    between atoms: C_10  and  C_19
REMARK    4  A    between atoms: C_11  and  C_13
REMARK                            x       y       z     vdW  Elec       q    Type
REMARK                         _______ _______ _______ _____ _____    ______ ____
ROOT
ATOM      1  C   UNL     1       1.204  -0.684  -0.014  0.00  0.00    +0.023 A 
ATOM      2  C   UNL     1       0.002  -0.004   0.002  0.00  0.00    +0.010 A 
ATOM      3  C   UNL     1      -0.017   1.379   0.010  0.00  0.00    +0.008 A 
ATOM      4  C   UNL     1       1.174   2.090   0.002  0.00  0.00    +0.136 A 
ATOM      5  C   UNL     1       2.384   1.409  -0.014  0.00  0.00    +0.069 A 
ATOM      6  C   UNL     1       2.400   0.022  -0.022  0.00  0.00    +0.028 A 
ATOM      7  O   UNL     1       1.176   3.445   0.010  0.00  0.00    -0.441 OA
ATOM      8  C   UNL     1       0.073   4.119  -0.360  0.00  0.00    +0.199 C 
ATOM      9  C   UNL     1      -1.150   3.538  -0.374  0.00  0.00    +0.098 C 
ATOM     10  C   UNL     1      -1.338   2.102   0.032  0.00  0.00    +0.105 C 
ENDROOT
BRANCH  10  11
ATOM     11  C   UNL     1      -1.915   2.043   1.423  0.00  0.00    +0.004 A 
ATOM     12  C   UNL     1      -3.091   1.512   1.837  0.00  0.00    +0.013 A 
ATOM     13  C   UNL     1      -3.417   1.568   3.180  0.00  0.00    +0.028 A 
ATOM     14  C   UNL     1      -2.554   2.163   4.041  0.00  0.00    +0.078 A 
ATOM     15  S   UNL     1      -1.230   2.661   2.952  0.00  0.00    -0.081 S 
ATOM     16 CL   UNL     1      -2.700   2.384   5.756  0.00  0.00    -0.076 Cl
ENDBRANCH  10  11
BRANCH   6  17
ATOM     17  N   UNL     1       3.617  -0.664  -0.038  0.00  0.00    -0.358 N 
ATOM     18  H   UNL     1       3.627  -1.634  -0.043  0.00  0.00    +0.142 HD
ATOM     19  H   UNL     1       4.452  -0.170  -0.044  0.00  0.00    +0.142 HD
ENDBRANCH   6  17
BRANCH   8  20
ATOM     20  N   UNL     1       0.190   5.434  -0.733  0.00  0.00    -0.328 N 
ATOM     21  H   UNL     1       1.060   5.864  -0.728  0.00  0.00    +0.145 HD
ATOM     22  H   UNL     1      -0.596   5.934  -1.002  0.00  0.00    +0.145 HD
ENDBRANCH   8  20
BRANCH   9  23
ATOM     23  C   UNL     1      -2.287   4.308  -0.779  0.00  0.00    +0.101 C 
ATOM     24  N   UNL     1      -3.190   4.919  -1.100  0.00  0.00    -0.191 NA
ENDBRANCH   9  23
TORSDOF 4
