REMARK  Name = ZINC36024631
REMARK  11 active torsions:
REMARK  status: ('A' for Active; 'I' for Inactive)
REMARK    1  A    between atoms: C_1  and  C_2
REMARK    2  A    between atoms: C_2  and  S_3
REMARK    3  A    between atoms: S_3  and  N_6
REMARK    4  A    between atoms: C_13  and  C_29
REMARK    5  A    between atoms: N_17  and  C_18
REMARK    6  A    between atoms: C_18  and  C_20
REMARK    7  A    between atoms: C_18  and  C_21
REMARK    8  A    between atoms: C_21  and  C_22
REMARK    9  A    between atoms: C_22  and  C_23
REMARK   10  A    between atoms: C_29  and  C_30
REMARK   11  A    between atoms: C_29  and  C_31
REMARK                            x       y       z     vdW  Elec       q    Type
REMARK                         _______ _______ _______ _____ _____    ______ ____
ROOT
ATOM      1  N   UNL     1       1.965  -2.375   0.661  0.00  0.00    -0.181 NA
ATOM      2  C   UNL     1       0.763  -2.572   1.483  0.00  0.00    +0.109 C 
ATOM      3  C   UNL     1       1.079  -3.595   2.580  0.00  0.00    +0.023 C 
ATOM      4  C   UNL     1       1.629  -4.869   1.941  0.00  0.00    +0.006 C 
ATOM      5  C   UNL     1       2.913  -4.565   1.171  0.00  0.00    +0.023 C 
ATOM      6  C   UNL     1       2.609  -3.550   0.058  0.00  0.00    +0.109 C 
ATOM      7  N   UNL     1       1.901  -5.875   2.990  0.00  0.00    +0.401 N 
ATOM      8  C   UNL     1       0.641  -6.654   3.043  0.00  0.00    +0.022 C 
ATOM      9  C   UNL     1       0.034  -6.502   1.665  0.00  0.00    +0.201 C 
ATOM     10  O   UNL     1      -0.840  -7.199   1.195  0.00  0.00    -0.277 OA
ATOM     11  N   UNL     1       0.629  -5.460   1.048  0.00  0.00    -0.311 N 
ATOM     12  H   UNL     1       2.675  -6.465   2.724  0.00  0.00    -0.082 HD
ATOM     13  H   UNL     1       2.081  -5.426   3.876  0.00  0.00    -0.082 HD
ENDROOT
BRANCH   1  14
ATOM     14  S   UNL     1       2.577  -0.857   0.413  0.00  0.00    +0.032 S 
ATOM     15  O   UNL     1       3.959  -1.062   0.149  0.00  0.00    -0.158 OA
ATOM     16  O   UNL     1       2.159  -0.107   1.545  0.00  0.00    -0.158 OA
BRANCH  14  18
ATOM     17  C   UNL     1       2.233   1.157  -1.407  0.00  0.00    +0.029 C 
ATOM     18  C   UNL     1       1.740  -0.254  -1.079  0.00  0.00    +0.182 C 
ENDBRANCH  14  18
ENDBRANCH   1  14
BRANCH   8  19
ATOM     19  C   UNL     1       0.937  -8.126   3.338  0.00  0.00    -0.023 C 
ATOM     20  C   UNL     1      -0.376  -8.910   3.389  0.00  0.00    +0.006 C 
ATOM     21  C   UNL     1       1.830  -8.697   2.236  0.00  0.00    +0.006 C 
ENDBRANCH   8  19
BRANCH  11  22
ATOM     22  C   UNL     1       0.323  -4.993  -0.306  0.00  0.00    +0.072 C 
ATOM     23  C   UNL     1       1.149  -5.788  -1.319  0.00  0.00    +0.028 C 
BRANCH  22  24
ATOM     24  C   UNL     1      -1.166  -5.196  -0.591  0.00  0.00    +0.027 C 
BRANCH  24  25
ATOM     25  C   UNL     1      -1.992  -4.352   0.382  0.00  0.00    +0.037 C 
BRANCH  25  26
ATOM     26  C   UNL     1      -3.456  -4.648   0.186  0.00  0.00    -0.047 A 
ATOM     27  C   UNL     1      -4.194  -3.913  -0.724  0.00  0.00    +0.003 A 
ATOM     28  C   UNL     1      -5.537  -4.184  -0.904  0.00  0.00    +0.000 A 
ATOM     29  C   UNL     1      -6.143  -5.191  -0.174  0.00  0.00    +0.000 A 
ATOM     30  C   UNL     1      -5.405  -5.926   0.734  0.00  0.00    +0.000 A 
ATOM     31  C   UNL     1      -4.061  -5.657   0.911  0.00  0.00    +0.003 A 
ENDBRANCH  25  26
ENDBRANCH  24  25
ENDBRANCH  22  24
ENDBRANCH  11  22
TORSDOF 7
