REMARK  Name = ZINC11784330
REMARK  9 active torsions:
REMARK  status: ('A' for Active; 'I' for Inactive)
REMARK    1  A    between atoms: C_1  and  O_2
REMARK    2  A    between atoms: O_2  and  C_3
REMARK    3  A    between atoms: C_3  and  C_4
REMARK    4  A    between atoms: C_4  and  N_5
REMARK    5  A    between atoms: C_8  and  C_12
REMARK    6  A    between atoms: C_8  and  C_20
REMARK    7  A    between atoms: C_12  and  C_13
REMARK    8  A    between atoms: C_25  and  C_26
REMARK    9  A    between atoms: C_25  and  N_66
REMARK                            x       y       z     vdW  Elec       q    Type
REMARK                         _______ _______ _______ _____ _____    ______ ____
ROOT
ATOM      1  N   UNL     1      -4.282  10.044   5.997  0.00  0.00    -0.222 N 
ATOM      2  C   UNL     1      -5.252   9.426   5.293  0.00  0.00    +0.247 C 
ATOM      3  O   UNL     1      -6.282   9.915   4.881  0.00  0.00    -0.273 OA
ATOM      4  C   UNL     1      -4.787   7.994   5.124  0.00  0.00    +0.119 C 
ATOM      5  N   UNL     1      -3.487   7.968   5.816  0.00  0.00    -0.284 N 
ATOM      6  C   UNL     1      -3.279   9.209   6.292  0.00  0.00    +0.309 C 
ATOM      7  O   UNL     1      -2.291   9.535   6.920  0.00  0.00    -0.252 OA
ATOM      8  H   UNL     1      -2.895   7.205   5.910  0.00  0.00    +0.151 HD
ENDROOT
BRANCH   4   9
ATOM      9  C   UNL     1      -4.614   7.656   3.642  0.00  0.00    +0.018 C 
ATOM     10  C   UNL     1      -3.670   8.671   2.992  0.00  0.00    -0.013 C 
ATOM     11  C   UNL     1      -3.453   8.293   1.525  0.00  0.00    -0.078 C 
ATOM     12  C   UNL     1      -3.788   5.945   2.021  0.00  0.00    -0.078 C 
ATOM     13  C   UNL     1      -4.015   6.253   3.503  0.00  0.00    -0.013 C 
ATOM     14  N   UNL     1      -2.853   6.944   1.461  0.00  0.00    +0.383 N 
ATOM     15  H   UNL     1      -1.988   6.937   2.015  0.00  0.00    -0.081 HD
BRANCH  14  16
ATOM     16  C   UNL     1      -2.528   6.601   0.061  0.00  0.00    -0.025 C 
BRANCH  16  17
ATOM     17  C   UNL     1      -1.724   5.327   0.047  0.00  0.00    +0.000 A 
ATOM     18  C   UNL     1      -0.384   5.261   0.034  0.00  0.00    +0.029 A 
ATOM     19  C   UNL     1      -0.025   3.840   0.023  0.00  0.00    -0.000 A 
ATOM     20  C   UNL     1       1.186   3.146   0.008  0.00  0.00    +0.010 A 
ATOM     21  C   UNL     1       1.184   1.779   0.000  0.00  0.00    +0.001 A 
ATOM     22  C   UNL     1      -0.013   1.076   0.008  0.00  0.00    +0.002 A 
ATOM     23  C   UNL     1      -1.219   1.741   0.017  0.00  0.00    +0.026 A 
ATOM     24  C   UNL     1      -1.240   3.132   0.031  0.00  0.00    +0.047 A 
ATOM     25  N   UNL     1      -2.253   4.064   0.045  0.00  0.00    -0.360 N 
ATOM     26  H   UNL     1      -3.201   3.858   0.054  0.00  0.00    +0.166 HD
ENDBRANCH  16  17
ENDBRANCH  14  16
ENDBRANCH   4   9
BRANCH   1  27
ATOM     27  C   UNL     1      -4.322  11.455   6.389  0.00  0.00    +0.146 C 
BRANCH  27  28
ATOM     28  C   UNL     1      -3.673  12.306   5.296  0.00  0.00    +0.179 C 
BRANCH  28  30
ATOM     29  C   UNL     1      -3.932  12.987   3.012  0.00  0.00    +0.194 C 
ATOM     30  O   UNL     1      -4.453  12.224   4.102  0.00  0.00    -0.381 OA
ENDBRANCH  28  30
ENDBRANCH  27  28
ENDBRANCH   1  27
BRANCH   4  31
ATOM     31  C   UNL     1      -5.768   7.024   5.784  0.00  0.00    +0.070 C 
BRANCH  31  32
ATOM     32  C   UNL     1      -5.920   7.378   7.241  0.00  0.00    -0.045 A 
ATOM     33  C   UNL     1      -5.086   6.803   8.182  0.00  0.00    +0.006 A 
ATOM     34  C   UNL     1      -5.221   7.131   9.518  0.00  0.00    +0.038 A 
ATOM     35  C   UNL     1      -6.200   8.027   9.915  0.00  0.00    +0.123 A 
ATOM     36  C   UNL     1      -7.038   8.597   8.972  0.00  0.00    +0.038 A 
ATOM     37  C   UNL     1      -6.898   8.272   7.636  0.00  0.00    +0.006 A 
ATOM     38  F   UNL     1      -6.337   8.343  11.221  0.00  0.00    -0.205 F 
ENDBRANCH  31  32
ENDBRANCH   4  31
TORSDOF 8
