REMARK  Name = ZINC36788078
REMARK  9 active torsions:
REMARK  status: ('A' for Active; 'I' for Inactive)
REMARK    1  A    between atoms: C_1  and  C_2
REMARK    2  A    between atoms: C_5  and  N_11
REMARK    3  A    between atoms: C_6  and  N_8
REMARK    4  A    between atoms: C_12  and  C_14
REMARK    5  A    between atoms: C_14  and  S_15
REMARK    6  A    between atoms: S_15  and  C_16
REMARK    7  A    between atoms: C_19  and  C_28
REMARK    8  A    between atoms: N_20  and  C_21
REMARK    9  A    between atoms: C_21  and  C_22
REMARK                            x       y       z     vdW  Elec       q    Type
REMARK                         _______ _______ _______ _____ _____    ______ ____
ROOT
ATOM      1  C   UNL     1      -0.323  -8.791  -2.518  0.00  0.00    +0.193 A 
ATOM      2  N   UNL     1      -0.662  -9.336  -1.371  0.00  0.00    -0.122 NA
ATOM      3  N   UNL     1      -0.829 -10.602  -1.515  0.00  0.00    -0.128 NA
ATOM      4  C   UNL     1      -0.607 -10.943  -2.763  0.00  0.00    +0.167 A 
ATOM      5  N   UNL     1      -0.282  -9.793  -3.445  0.00  0.00    -0.298 N 
ENDROOT
BRANCH   4   6
ATOM      6  C   UNL     1      -0.696 -12.306  -3.331  0.00  0.00    +0.037 A 
ATOM      7  C   UNL     1      -0.323 -13.419  -2.569  0.00  0.00    +0.014 A 
ATOM      8  C   UNL     1      -0.425 -14.673  -3.146  0.00  0.00    +0.020 A 
ATOM      9  C   UNL     1      -0.888 -14.784  -4.445  0.00  0.00    +0.111 A 
ATOM     10  N   UNL     1      -1.232 -13.717  -5.139  0.00  0.00    -0.263 NA
ATOM     11  C   UNL     1      -1.158 -12.504  -4.632  0.00  0.00    +0.122 A 
ENDBRANCH   4   6
BRANCH   1  12
ATOM     12  S   UNL     1       0.009  -7.085  -2.807  0.00  0.00    -0.077 S 
BRANCH  12  13
ATOM     13  C   UNL     1      -0.218  -6.312  -1.182  0.00  0.00    +0.173 C 
BRANCH  13  15
ATOM     14  N   UNL     1      -0.072  -4.046  -0.200  0.00  0.00    -0.283 N 
ATOM     15  C   UNL     1       0.039  -4.831  -1.290  0.00  0.00    +0.228 C 
ATOM     16  O   UNL     1       0.346  -4.345  -2.358  0.00  0.00    -0.275 OA
ATOM     17  H   UNL     1      -0.236  -4.444   0.669  0.00  0.00    +0.155 HD
BRANCH  14  22
ATOM     18  C   UNL     1       0.422   1.583  -0.694  0.00  0.00    +0.044 C 
ATOM     19  C   UNL     1       0.290   0.088  -0.562  0.00  0.00    -0.048 A 
ATOM     20  C   UNL     1      -0.130  -0.665  -1.643  0.00  0.00    +0.005 A 
ATOM     21  C   UNL     1      -0.251  -2.036  -1.527  0.00  0.00    +0.026 A 
ATOM     22  C   UNL     1       0.050  -2.658  -0.322  0.00  0.00    +0.064 A 
ATOM     23  C   UNL     1       0.472  -1.899   0.761  0.00  0.00    +0.148 A 
ATOM     24  C   UNL     1       0.596  -0.529   0.637  0.00  0.00    +0.038 A 
BRANCH  23  25
ATOM     25  N   UNL     1       0.794  -2.558   2.047  0.00  0.00    +0.058 N 
ATOM     26  O   UNL     1       1.056  -1.889   3.020  0.00  0.00    -0.126 OA
ATOM     27  O   UNL     1       0.796  -3.764   2.124  0.00  0.00    -0.126 OA
ENDBRANCH  23  25
ENDBRANCH  14  22
ENDBRANCH  13  15
ENDBRANCH  12  13
ENDBRANCH   1  12
BRANCH   5  28
ATOM     28  C   UNL     1       0.045  -9.670  -4.868  0.00  0.00    +0.161 C 
BRANCH  28  29
ATOM     29  C   UNL     1       1.496 -10.014  -5.082  0.00  0.00    -0.028 A 
ATOM     30  C   UNL     1       2.459  -9.025  -5.007  0.00  0.00    +0.005 A 
ATOM     31  C   UNL     1       3.791  -9.341  -5.204  0.00  0.00    +0.000 A 
ATOM     32  C   UNL     1       4.159 -10.645  -5.475  0.00  0.00    +0.000 A 
ATOM     33  C   UNL     1       3.196 -11.634  -5.548  0.00  0.00    +0.000 A 
ATOM     34  C   UNL     1       1.865 -11.319  -5.348  0.00  0.00    +0.005 A 
ENDBRANCH  28  29
ENDBRANCH   5  28
TORSDOF 8
