REMARK  Name = ZINC00915743
REMARK  11 active torsions:
REMARK  status: ('A' for Active; 'I' for Inactive)
REMARK    1  A    between atoms: C_1  and  C_2
REMARK    2  A    between atoms: C_2  and  C_4
REMARK    3  A    between atoms: C_2  and  S_16
REMARK    4  A    between atoms: N_6  and  C_7
REMARK    5  A    between atoms: C_10  and  C_13
REMARK    6  A    between atoms: C_13  and  C_15
REMARK    7  A    between atoms: S_16  and  C_17
REMARK    8  A    between atoms: C_20  and  C_28
REMARK    9  A    between atoms: N_21  and  C_22
REMARK   10  A    between atoms: C_22  and  C_23
REMARK   11  A    between atoms: C_31  and  O_34
REMARK                            x       y       z     vdW  Elec       q    Type
REMARK                         _______ _______ _______ _____ _____    ______ ____
ROOT
ATOM      1  C   UNL     1      -2.368  -0.122   1.643  0.00  0.00    +0.193 A 
ATOM      2  N   UNL     1      -1.706   0.769   2.346  0.00  0.00    -0.122 NA
ATOM      3  N   UNL     1      -2.425   1.178   3.330  0.00  0.00    -0.128 NA
ATOM      4  C   UNL     1      -3.590   0.573   3.316  0.00  0.00    +0.165 A 
ATOM      5  N   UNL     1      -3.592  -0.274   2.232  0.00  0.00    -0.295 N 
ENDROOT
BRANCH   4   6
ATOM      6  C   UNL     1      -4.693   0.769   4.280  0.00  0.00    +0.020 A 
ATOM      7  C   UNL     1      -5.724  -0.169   4.364  0.00  0.00    +0.015 A 
ATOM      8  C   UNL     1      -6.751   0.018   5.264  0.00  0.00    +0.046 A 
ATOM      9  C   UNL     1      -6.761   1.136   6.087  0.00  0.00    +0.117 A 
ATOM     10  C   UNL     1      -5.738   2.071   6.006  0.00  0.00    +0.046 A 
ATOM     11  C   UNL     1      -4.704   1.890   5.112  0.00  0.00    +0.015 A 
BRANCH   9  12
ATOM     12  O   UNL     1      -7.776   1.317   6.972  0.00  0.00    -0.507 OA
ATOM     13  H   UNL     1      -7.614   0.923   7.841  0.00  0.00    +0.292 HD
ENDBRANCH   9  12
ENDBRANCH   4   6
BRANCH   1  14
ATOM     14  S   UNL     1      -1.789  -0.959   0.204  0.00  0.00    -0.073 S 
BRANCH  14  16
ATOM     15  C   UNL     1      -0.188   1.185  -0.362  0.00  0.00    +0.029 C 
ATOM     16  C   UNL     1      -0.113  -0.308  -0.037  0.00  0.00    +0.137 C 
BRANCH  16  17
ATOM     17  C   UNL     1       0.550  -1.038  -1.177  0.00  0.00    +0.230 C 
ATOM     18  O   UNL     1      -0.126  -1.555  -2.040  0.00  0.00    -0.274 OA
ATOM     19  N   UNL     1       1.894  -1.115  -1.236  0.00  0.00    -0.285 N 
ATOM     20  H   UNL     1       2.436  -0.644  -0.584  0.00  0.00    +0.155 HD
BRANCH  19  21
ATOM     21  C   UNL     1       2.505  -1.872  -2.234  0.00  0.00    +0.033 A 
ATOM     22  C   UNL     1       3.676  -2.572  -1.956  0.00  0.00    +0.024 A 
ATOM     23  C   UNL     1       4.280  -3.318  -2.934  0.00  0.00    +0.013 A 
ATOM     24  C   UNL     1       3.717  -3.376  -4.215  0.00  0.00    +0.017 A 
ATOM     25  C   UNL     1       2.539  -2.670  -4.491  0.00  0.00    +0.013 A 
ATOM     26  C   UNL     1       1.939  -1.931  -3.504  0.00  0.00    +0.024 A 
BRANCH  24  27
ATOM     27  C   UNL     1       4.361  -4.173  -5.267  0.00  0.00    +0.160 C 
ATOM     28  O   UNL     1       5.381  -4.783  -5.027  0.00  0.00    -0.292 OA
ATOM     29  C   UNL     1       3.753  -4.234  -6.645  0.00  0.00    +0.091 C 
ENDBRANCH  24  27
ENDBRANCH  19  21
ENDBRANCH  16  17
ENDBRANCH  14  16
ENDBRANCH   1  14
BRANCH   5  30
ATOM     30  C   UNL     1      -4.678  -1.157   1.800  0.00  0.00    +0.200 C 
BRANCH  30  31
ATOM     31  C   UNL     1      -4.438  -2.546   2.333  0.00  0.00    +0.125 A 
ATOM     32  C   UNL     1      -4.976  -3.064   3.451  0.00  0.00    +0.046 A 
ATOM     33  C   UNL     1      -4.484  -4.384   3.570  0.00  0.00    +0.041 A 
ATOM     34  C   UNL     1      -3.674  -4.594   2.517  0.00  0.00    +0.195 A 
ATOM     35  O   UNL     1      -3.654  -3.479   1.768  0.00  0.00    -0.466 OA
ENDBRANCH  30  31
ENDBRANCH   5  30
TORSDOF 9
