REMARK  Name = ZINC59170668
REMARK  6 active torsions:
REMARK  status: ('A' for Active; 'I' for Inactive)
REMARK    1  A    between atoms: C_1  and  C_2
REMARK    2  A    between atoms: C_9  and  C_23
REMARK    3  A    between atoms: N_11  and  C_12
REMARK    4  A    between atoms: C_15  and  S_18
REMARK    5  A    between atoms: S_18  and  N_21
REMARK    6  A    between atoms: N_25  and  C_26
REMARK                            x       y       z     vdW  Elec       q    Type
REMARK                         _______ _______ _______ _____ _____    ______ ____
ROOT
ATOM      1  C   UNL     1      -1.195   1.315  -0.001  0.00  0.00    +0.044 C 
ATOM      2  C   UNL     1      -0.666  -0.095  -0.061  0.00  0.00    -0.050 A 
ATOM      3  C   UNL     1       0.208  -0.460  -1.074  0.00  0.00    +0.007 A 
ATOM      4  C   UNL     1       0.702  -1.747  -1.148  0.00  0.00    +0.047 A 
ATOM      5  C   UNL     1       0.322  -2.687  -0.201  0.00  0.00    +0.137 A 
ATOM      6  C   UNL     1      -0.562  -2.314   0.829  0.00  0.00    +0.018 A 
ATOM      7  C   UNL     1      -1.049  -1.002   0.887  0.00  0.00    +0.015 A 
ATOM      8  C   UNL     1      -0.954  -3.305   1.833  0.00  0.00    +0.030 A 
ATOM      9  C   UNL     1      -0.227  -4.487   1.881  0.00  0.00    +0.098 A 
ATOM     10  C   UNL     1       0.877  -4.637   0.912  0.00  0.00    +0.212 A 
ATOM     11  N   UNL     1       1.911  -5.407   1.176  0.00  0.00    -0.325 N 
ATOM     12  O   UNL     1       0.793  -3.956  -0.260  0.00  0.00    -0.439 OA
ATOM     13  H   UNL     1       2.048  -5.743   2.075  0.00  0.00    +0.169 HD
ENDROOT
BRANCH  11  14
ATOM     14  C   UNL     1       2.792  -5.732   0.182  0.00  0.00    +0.042 A 
ATOM     15  C   UNL     1       2.321  -6.125  -1.073  0.00  0.00    +0.027 A 
ATOM     16  C   UNL     1       3.216  -6.452  -2.071  0.00  0.00    +0.030 A 
ATOM     17  C   UNL     1       4.577  -6.391  -1.830  0.00  0.00    +0.105 A 
ATOM     18  C   UNL     1       5.051  -6.004  -0.589  0.00  0.00    +0.030 A 
ATOM     19  C   UNL     1       4.168  -5.668   0.416  0.00  0.00    +0.027 A 
BRANCH  17  20
ATOM     20  S   UNL     1       5.713  -6.811  -3.111  0.00  0.00    +0.056 S 
ATOM     21  O   UNL     1       6.921  -7.200  -2.471  0.00  0.00    -0.153 OA
ATOM     22  O   UNL     1       5.017  -7.665  -4.007  0.00  0.00    -0.153 OA
BRANCH  20  23
ATOM     23  N   UNL     1       6.046  -5.419  -3.945  0.00  0.00    -0.204 NA
ATOM     24  H   UNL     1       6.911  -5.304  -4.370  0.00  0.00    +0.144 HD
ATOM     25  H   UNL     1       5.377  -4.720  -4.008  0.00  0.00    +0.144 HD
ENDBRANCH  20  23
ENDBRANCH  17  20
ENDBRANCH  11  14
BRANCH   9  26
ATOM     26  C   UNL     1      -0.542  -5.545   2.856  0.00  0.00    +0.253 C 
ATOM     27  O   UNL     1      -1.378  -5.348   3.717  0.00  0.00    -0.270 OA
ATOM     28  N   UNL     1       0.095  -6.731   2.793  0.00  0.00    -0.281 N 
ATOM     29  H   UNL     1       0.785  -6.876   2.127  0.00  0.00    +0.155 HD
BRANCH  28  30
ATOM     30  C   UNL     1      -0.238  -7.752   3.690  0.00  0.00    +0.034 A 
ATOM     31  C   UNL     1      -0.690  -7.439   4.965  0.00  0.00    +0.026 A 
ATOM     32  C   UNL     1      -1.020  -8.449   5.847  0.00  0.00    +0.040 A 
ATOM     33  C   UNL     1      -0.899  -9.773   5.462  0.00  0.00    +0.124 A 
ATOM     34  C   UNL     1      -0.448 -10.088   4.191  0.00  0.00    +0.040 A 
ATOM     35  C   UNL     1      -0.124  -9.081   3.303  0.00  0.00    +0.026 A 
ATOM     36  F   UNL     1      -1.221 -10.759   6.327  0.00  0.00    -0.205 F 
ENDBRANCH  28  30
ENDBRANCH   9  26
TORSDOF 5
