REMARK  Name = ZINC63531509
REMARK  8 active torsions:
REMARK  status: ('A' for Active; 'I' for Inactive)
REMARK    1  A    between atoms: C_1  and  C_2
REMARK    2  A    between atoms: C_2  and  C_3
REMARK    3  A    between atoms: C_3  and  C_5
REMARK    4  A    between atoms: C_3  and  N_19
REMARK    5  A    between atoms: N_7  and  C_8
REMARK    6  A    between atoms: C_8  and  C_9
REMARK    7  A    between atoms: C_9  and  C_10
REMARK    8  A    between atoms: C_32  and  C_34
REMARK                            x       y       z     vdW  Elec       q    Type
REMARK                         _______ _______ _______ _____ _____    ______ ____
ROOT
ATOM      1  C   UNL     1       0.742  -0.511   1.242  0.00  0.00    +0.182 C 
ENDROOT
BRANCH   1   2
ATOM      2  N   UNL     1       2.148  -0.104   1.172  0.00  0.00    -0.210 N 
ATOM      3  C   UNL     1       2.689   0.683   2.143  0.00  0.00    +0.245 C 
ATOM      4  O   UNL     1       2.041   1.045   3.102  0.00  0.00    -0.273 OA
ATOM      5  C   UNL     1       4.138   1.082   1.971  0.00  0.00    +0.146 C 
ATOM      6  C   UNL     1       4.782   1.501   3.245  0.00  0.00    -0.017 A 
ATOM      7  C   UNL     1       4.248   2.394   4.181  0.00  0.00    +0.006 A 
ATOM      8  C   UNL     1       5.001   2.681   5.306  0.00  0.00    +0.000 A 
ATOM      9  C   UNL     1       6.244   2.124   5.533  0.00  0.00    +0.001 A 
ATOM     10  C   UNL     1       6.795   1.228   4.625  0.00  0.00    +0.015 A 
ATOM     11  C   UNL     1       6.039   0.936   3.505  0.00  0.00    +0.017 A 
ATOM     12  S   UNL     1       6.382  -0.173   2.170  0.00  0.00    -0.091 S 
ATOM     13  C   UNL     1       4.838  -0.108   1.338  0.00  0.00    +0.025 C 
ATOM     14  C   UNL     1       4.303  -0.880   0.419  0.00  0.00    +0.030 C 
ATOM     15  N   UNL     1       2.964  -0.525   0.099  0.00  0.00    -0.265 N 
ATOM     16  C   UNL     1       5.033  -2.029  -0.227  0.00  0.00    +0.063 C 
ATOM     17  H   UNL     1       2.631  -0.569  -0.811  0.00  0.00    +0.170 HD
ENDBRANCH   1   2
BRANCH   1  18
ATOM     18  C   UNL     1       0.657  -2.014   1.298  0.00  0.00    +0.235 C 
ATOM     19  O   UNL     1       1.670  -2.680   1.281  0.00  0.00    -0.274 OA
ATOM     20  N   UNL     1      -0.546  -2.619   1.367  0.00  0.00    -0.313 N 
ATOM     21  H   UNL     1      -1.356  -2.086   1.380  0.00  0.00    +0.149 HD
BRANCH  20  22
ATOM     22  C   UNL     1      -0.629  -4.081   1.421  0.00  0.00    +0.108 C 
BRANCH  22  23
ATOM     23  C   UNL     1      -2.097  -4.506   1.494  0.00  0.00    +0.052 C 
BRANCH  23  24
ATOM     24  C   UNL     1      -2.182  -6.009   1.550  0.00  0.00    -0.040 C 
ATOM     25  C   UNL     1      -2.285  -6.777   2.659  0.00  0.00    -0.001 A 
ATOM     26  C   UNL     1      -2.345  -6.455   4.090  0.00  0.00    +0.010 A 
ATOM     27  C   UNL     1      -2.449  -7.462   4.986  0.00  0.00    +0.001 A 
ATOM     28  C   UNL     1      -2.500  -8.804   4.583  0.00  0.00    +0.002 A 
ATOM     29  C   UNL     1      -2.450  -9.179   3.287  0.00  0.00    +0.026 A 
ATOM     30  C   UNL     1      -2.342  -8.201   2.260  0.00  0.00    +0.043 A 
ATOM     31  N   UNL     1      -2.276  -8.310   0.955  0.00  0.00    -0.380 N 
ATOM     32  C   UNL     1      -2.177  -6.965   0.378  0.00  0.00    +0.144 C 
ATOM     33  H   UNL     1      -2.294  -9.141   0.455  0.00  0.00    +0.160 HD
ENDBRANCH  23  24
ENDBRANCH  22  23
ENDBRANCH  20  22
ENDBRANCH   1  18
BRANCH   1  35
ATOM     34  C   UNL     1      -0.019   1.526   0.010  0.00  0.00    +0.006 C 
ATOM     35  C   UNL     1       0.002  -0.004   0.002  0.00  0.00    +0.030 C 
ENDBRANCH   1  35
TORSDOF 6
