REMARK  Name = ZINC35212368
REMARK  10 active torsions:
REMARK  status: ('A' for Active; 'I' for Inactive)
REMARK    1  A    between atoms: C_1  and  C_2
REMARK    2  A    between atoms: C_2  and  C_3
REMARK    3  A    between atoms: C_2  and  C_4
REMARK    4  A    between atoms: C_2  and  C_5
REMARK    5  A    between atoms: C_8  and  C_11
REMARK    6  A    between atoms: C_14  and  C_27
REMARK    7  A    between atoms: C_18  and  C_20
REMARK    8  A    between atoms: N_29  and  C_30
REMARK    9  A    between atoms: C_30  and  C_31
REMARK   10  A    between atoms: C_31  and  N_32
REMARK                            x       y       z     vdW  Elec       q    Type
REMARK                         _______ _______ _______ _____ _____    ______ ____
ROOT
ATOM      1  C   UNL     1       2.356  -1.025  -6.321  0.00  0.00    +0.248 C 
ATOM      2  O   UNL     1       2.068  -1.913  -7.100  0.00  0.00    -0.270 OA
ATOM      3  N   UNL     1       3.608  -0.940  -5.830  0.00  0.00    -0.269 N 
ATOM      4  C   UNL     1       4.709  -1.727  -6.378  0.00  0.00    +0.173 C 
ATOM      5  C   UNL     1       5.747  -2.074  -5.270  0.00  0.00    +0.103 C 
ATOM      6  S   UNL     1       5.705  -0.471  -4.349  0.00  0.00    -0.131 S 
ATOM      7  C   UNL     1       3.949  -0.040  -4.711  0.00  0.00    +0.166 C 
ENDROOT
BRANCH   7   8
ATOM      8  C   UNL     1       3.828   1.402  -5.131  0.00  0.00    -0.014 A 
ATOM      9  C   UNL     1       4.130   1.771  -6.429  0.00  0.00    +0.006 A 
ATOM     10  C   UNL     1       4.019   3.094  -6.816  0.00  0.00    +0.003 A 
ATOM     11  C   UNL     1       3.608   4.048  -5.905  0.00  0.00    +0.038 A 
ATOM     12  C   UNL     1       3.305   3.680  -4.606  0.00  0.00    +0.124 A 
ATOM     13  C   UNL     1       3.410   2.354  -4.221  0.00  0.00    +0.044 A 
ATOM     14  F   UNL     1       2.903   4.612  -3.715  0.00  0.00    -0.205 F 
ENDBRANCH   7   8
BRANCH   1  18
ATOM     15  C   UNL     1      -0.583   1.809  -5.149  0.00  0.00    -0.042 A 
ATOM     16  C   UNL     1      -0.777   1.046  -6.287  0.00  0.00    +0.005 A 
ATOM     17  C   UNL     1       0.174   0.124  -6.673  0.00  0.00    +0.013 A 
ATOM     18  C   UNL     1       1.333  -0.038  -5.913  0.00  0.00    +0.037 A 
ATOM     19  C   UNL     1       1.523   0.734  -4.766  0.00  0.00    +0.013 A 
ATOM     20  C   UNL     1       0.567   1.657  -4.394  0.00  0.00    +0.005 A 
BRANCH  15  22
ATOM     21  C   UNL     1      -1.006   4.213  -4.712  0.00  0.00    +0.015 C 
ATOM     22  C   UNL     1      -1.626   2.814  -4.732  0.00  0.00    -0.013 C 
ATOM     23  C   UNL     1      -2.142   2.465  -3.335  0.00  0.00    +0.015 C 
ATOM     24  C   UNL     1      -2.788   2.785  -5.727  0.00  0.00    +0.015 C 
ENDBRANCH  15  22
ENDBRANCH   1  18
BRANCH   4  25
ATOM     25  C   UNL     1       4.163  -3.005  -6.960  0.00  0.00    +0.234 C 
ATOM     26  O   UNL     1       3.215  -3.553  -6.439  0.00  0.00    -0.274 OA
ATOM     27  N   UNL     1       4.727  -3.539  -8.062  0.00  0.00    -0.316 N 
ATOM     28  H   UNL     1       5.485  -3.101  -8.479  0.00  0.00    +0.149 HD
BRANCH  27  29
ATOM     29  C   UNL     1       4.196  -4.781  -8.628  0.00  0.00    +0.086 C 
BRANCH  29  30
ATOM     30  C   UNL     1       5.011  -5.168  -9.864  0.00  0.00    -0.060 C 
BRANCH  30  31
ATOM     31  N   UNL     1       4.478  -6.413 -10.432  0.00  0.00    +0.381 N 
ATOM     32  C   UNL     1       4.669  -7.508  -9.473  0.00  0.00    -0.079 C 
ATOM     33  C   UNL     1       4.044  -8.790 -10.025  0.00  0.00    -0.019 C 
ATOM     34  C   UNL     1       4.717  -9.149 -11.353  0.00  0.00    -0.004 C 
ATOM     35  C   UNL     1       4.576  -7.971 -12.321  0.00  0.00    -0.019 C 
ATOM     36  C   UNL     1       5.182  -6.719 -11.683  0.00  0.00    -0.079 C 
ATOM     37  H   UNL     1       3.493  -6.302 -10.620  0.00  0.00    -0.082 HD
ENDBRANCH  30  31
ENDBRANCH  29  30
ENDBRANCH  27  29
ENDBRANCH   4  25
TORSDOF 7
