REMARK  Name = ZINC41349348
REMARK  8 active torsions:
REMARK  status: ('A' for Active; 'I' for Inactive)
REMARK    1  A    between atoms: C_1  and  C_2
REMARK    2  A    between atoms: C_2  and  O_3
REMARK    3  A    between atoms: O_3  and  C_4
REMARK    4  A    between atoms: C_7  and  C_10
REMARK    5  A    between atoms: C_12  and  O_13
REMARK    6  A    between atoms: C_22  and  C_24
REMARK    7  A    between atoms: C_24  and  O_25
REMARK    8  A    between atoms: O_25  and  C_26
REMARK                            x       y       z     vdW  Elec       q    Type
REMARK                         _______ _______ _______ _____ _____    ______ ____
ROOT
ATOM      1  C   UNL     1      -2.057  -6.121   0.448  0.00  0.00    +0.139 A 
ATOM      2  C   UNL     1      -3.324  -6.652   0.301  0.00  0.00    +0.093 A 
ATOM      3  C   UNL     1      -3.482  -8.023   0.107  0.00  0.00    +0.131 A 
ATOM      4  C   UNL     1      -2.320  -8.836   0.068  0.00  0.00    +0.059 A 
ATOM      5  C   UNL     1      -2.420 -10.223  -0.124  0.00  0.00    +0.017 A 
ATOM      6  C   UNL     1      -1.296 -10.986  -0.160  0.00  0.00    +0.024 A 
ATOM      7  C   UNL     1      -0.030 -10.395  -0.004  0.00  0.00    +0.037 A 
ATOM      8  C   UNL     1       0.084  -9.017   0.189  0.00  0.00    +0.070 A 
ATOM      9  C   UNL     1      -1.055  -8.232   0.225  0.00  0.00    +0.141 A 
ATOM     10  O   UNL     1      -0.963  -6.898   0.405  0.00  0.00    -0.455 OA
ATOM     11  N   UNL     1       1.089 -11.169  -0.041  0.00  0.00    -0.283 N 
ATOM     12  C   UNL     1       1.029 -12.392  -0.530  0.00  0.00    +0.255 C 
ATOM     13  O   UNL     1       0.005 -12.786  -1.060  0.00  0.00    -0.272 OA
ATOM     14  H   UNL     1       1.931 -10.821   0.293  0.00  0.00    +0.155 HD
ENDROOT
BRANCH   1  18
ATOM     15  C   UNL     1      -1.612  -1.941   1.032  0.00  0.00    +0.121 A 
ATOM     16  C   UNL     1      -0.488  -2.757   0.986  0.00  0.00    +0.046 A 
ATOM     17  C   UNL     1      -0.627  -4.114   0.797  0.00  0.00    +0.015 A 
ATOM     18  C   UNL     1      -1.902  -4.670   0.651  0.00  0.00    +0.018 A 
ATOM     19  C   UNL     1      -3.031  -3.845   0.699  0.00  0.00    +0.015 A 
ATOM     20  C   UNL     1      -2.882  -2.490   0.893  0.00  0.00    +0.046 A 
BRANCH  15  21
ATOM     21  O   UNL     1      -1.470  -0.604   1.219  0.00  0.00    -0.492 OA
BRANCH  21  23
ATOM     22  C   UNL     1      -0.178   1.410   1.556  0.00  0.00    +0.048 C 
ATOM     23  C   UNL     1      -0.137  -0.106   1.354  0.00  0.00    +0.225 C 
ENDBRANCH  21  23
ENDBRANCH  15  21
ENDBRANCH   1  18
BRANCH   3  24
ATOM     24  O   UNL     1      -4.711  -8.565  -0.040  0.00  0.00    -0.506 OA
ATOM     25  H   UNL     1      -5.431  -7.921   0.003  0.00  0.00    +0.292 HD
ENDBRANCH   3  24
BRANCH  12  26
ATOM     26  C   UNL     1       2.227 -13.301  -0.434  0.00  0.00    +0.325 C 
BRANCH  26  27
ATOM     27  O   UNL     1       1.916 -14.562  -1.030  0.00  0.00    -0.477 OA
BRANCH  27  28
ATOM     28  C   UNL     1       2.897 -15.505  -1.027  0.00  0.00    +0.197 A 
ATOM     29  C   UNL     1       3.794 -15.578  -2.083  0.00  0.00    +0.206 A 
ATOM     30  C   UNL     1       4.792 -16.538  -2.079  0.00  0.00    +0.200 A 
ATOM     31  C   UNL     1       4.896 -17.426  -1.020  0.00  0.00    +0.199 A 
ATOM     32  C   UNL     1       4.000 -17.355   0.035  0.00  0.00    +0.200 A 
ATOM     33  C   UNL     1       3.005 -16.392   0.036  0.00  0.00    +0.206 A 
ATOM     34  F   UNL     1       2.135 -16.319   1.067  0.00  0.00    -0.198 F 
ATOM     35  F   UNL     1       4.102 -18.222   1.067  0.00  0.00    -0.199 F 
ATOM     36  F   UNL     1       5.870 -18.362  -1.017  0.00  0.00    -0.199 F 
ATOM     37  F   UNL     1       5.665 -16.609  -3.108  0.00  0.00    -0.199 F 
ATOM     38  F   UNL     1       3.693 -14.713  -3.116  0.00  0.00    -0.198 F 
ENDBRANCH  27  28
ENDBRANCH  26  27
ENDBRANCH  12  26
TORSDOF 7
