REMARK  Name = ZINC22108130
REMARK  8 active torsions:
REMARK  status: ('A' for Active; 'I' for Inactive)
REMARK    1  A    between atoms: C_4  and  N_7
REMARK    2  A    between atoms: C_8  and  S_12
REMARK    3  A    between atoms: S_12  and  C_13
REMARK    4  A    between atoms: C_13  and  C_14
REMARK    5  A    between atoms: C_14  and  N_15
REMARK    6  A    between atoms: N_15  and  C_16
REMARK    7  A    between atoms: C_16  and  C_17
REMARK    8  A    between atoms: C_20  and  C_22
REMARK                            x       y       z     vdW  Elec       q    Type
REMARK                         _______ _______ _______ _____ _____    ______ ____
ROOT
ATOM      1  N   UNL     1      -4.590   3.765  -2.328  0.00  0.00    +0.384 N 
ATOM      2  H   UNL     1      -3.810   3.425  -3.025  0.00  0.00    -0.085 HD
ATOM      3  H   UNL     1      -4.318   4.753  -1.928  0.00  0.00    -0.085 HD
ENDROOT
BRANCH   1   4
ATOM      4  C   UNL     1      -5.873   3.860  -3.037  0.00  0.00    -0.071 C 
BRANCH   4   5
ATOM      5  C   UNL     1      -5.747   4.859  -4.189  0.00  0.00    +0.058 C 
BRANCH   5   6
ATOM      6  S   UNL     1      -7.328   4.976  -5.062  0.00  0.00    -0.086 S 
BRANCH   6   8
ATOM      7  N   UNL     1      -7.728   6.637  -7.268  0.00  0.00    -0.187 N 
ATOM      8  C   UNL     1      -6.908   6.158  -6.299  0.00  0.00    +0.214 A 
ATOM      9  N   UNL     1      -5.738   6.738  -6.462  0.00  0.00    -0.101 NA
ATOM     10  N   UNL     1      -5.772   7.547  -7.458  0.00  0.00    -0.022 NA
ATOM     11  N   UNL     1      -6.942   7.546  -7.999  0.00  0.00    -0.038 NA
BRANCH   7  15
ATOM     12  C   UNL     1     -11.719   5.634  -7.935  0.00  0.00    +0.000 A 
ATOM     13  C   UNL     1     -11.284   6.926  -8.169  0.00  0.00    +0.002 A 
ATOM     14  C   UNL     1      -9.962   7.261  -7.949  0.00  0.00    +0.028 A 
ATOM     15  C   UNL     1      -9.070   6.300  -7.492  0.00  0.00    +0.070 A 
ATOM     16  C   UNL     1      -9.509   5.003  -7.264  0.00  0.00    +0.028 A 
ATOM     17  C   UNL     1     -10.833   4.675  -7.480  0.00  0.00    +0.002 A 
ENDBRANCH   7  15
ENDBRANCH   6   8
ENDBRANCH   5   6
ENDBRANCH   4   5
ENDBRANCH   1   4
BRANCH   1  18
ATOM     18  C   UNL     1      -4.673   2.813  -1.213  0.00  0.00    -0.007 C 
BRANCH  18  19
ATOM     19  C   UNL     1      -3.341   2.743  -0.511  0.00  0.00    +0.089 A 
ATOM     20  C   UNL     1      -2.957   3.516   0.523  0.00  0.00    +0.043 A 
ATOM     21  C   UNL     1      -1.649   3.120   0.870  0.00  0.00    +0.050 A 
ATOM     22  C   UNL     1      -1.305   2.117   0.020  0.00  0.00    +0.136 A 
ATOM     23  O   UNL     1      -2.339   1.902  -0.816  0.00  0.00    -0.462 OA
BRANCH  22  24
ATOM     24  C   UNL     1      -0.017   1.393   0.010  0.00  0.00    +0.036 A 
ATOM     25  C   UNL     1       1.186   2.101   0.002  0.00  0.00    +0.014 A 
ATOM     26  C   UNL     1       2.385   1.419  -0.013  0.00  0.00    +0.021 A 
ATOM     27  C   UNL     1       2.398   0.035  -0.021  0.00  0.00    +0.042 A 
ATOM     28  C   UNL     1       1.209  -0.675  -0.013  0.00  0.00    +0.040 A 
ATOM     29  C   UNL     1       0.002  -0.004   0.002  0.00  0.00    +0.053 A 
ATOM     30 CL   UNL     1      -1.488  -0.894   0.011  0.00  0.00    -0.083 Cl
ATOM     31 CL   UNL     1       3.911  -0.816  -0.039  0.00  0.00    -0.083 Cl
ENDBRANCH  22  24
ENDBRANCH  18  19
ENDBRANCH   1  18
TORSDOF 8
