REMARK  Name = ZINC39527599
REMARK  9 active torsions:
REMARK  status: ('A' for Active; 'I' for Inactive)
REMARK    1  A    between atoms: C_1  and  C_2
REMARK    2  A    between atoms: C_2  and  C_3
REMARK    3  A    between atoms: C_2  and  S_4
REMARK    4  A    between atoms: S_4  and  C_7
REMARK    5  A    between atoms: N_13  and  S_14
REMARK    6  A    between atoms: S_14  and  O_17
REMARK    7  A    between atoms: O_17  and  C_18
REMARK    8  A    between atoms: C_27  and  C_30
REMARK    9  A    between atoms: C_35  and  O_36
REMARK                            x       y       z     vdW  Elec       q    Type
REMARK                         _______ _______ _______ _____ _____    ______ ____
ROOT
ATOM      1  C   UNL     1      -2.772   0.925  -1.294  0.00  0.00    +0.224 C 
ATOM      2  C   UNL     1      -4.274   1.215  -1.362  0.00  0.00    +0.044 C 
ATOM      3  C   UNL     1      -4.545   2.230  -2.475  0.00  0.00    +0.005 C 
ATOM      4  C   UNL     1      -3.815   3.538  -2.163  0.00  0.00    +0.024 C 
ATOM      5  C   UNL     1      -2.308   3.274  -2.102  0.00  0.00    +0.048 C 
ATOM      6  N   UNL     1      -2.049   2.195  -1.141  0.00  0.00    -0.117 NA
ATOM      7  C   UNL     1      -1.805   2.854  -3.484  0.00  0.00    +0.024 C 
ATOM      8  C   UNL     1      -2.075   3.977  -4.487  0.00  0.00    +0.002 C 
ATOM      9  C   UNL     1      -1.345   5.246  -4.040  0.00  0.00    +0.008 C 
ATOM     10  C   UNL     1      -1.851   5.666  -2.659  0.00  0.00    +0.024 C 
ATOM     11  C   UNL     1      -1.582   4.543  -1.654  0.00  0.00    +0.032 C 
ENDROOT
BRANCH  10  12
ATOM     12  C   UNL     1      -1.133   6.916  -2.220  0.00  0.00    -0.003 A 
ATOM     13  C   UNL     1       0.243   6.913  -2.090  0.00  0.00    +0.007 A 
ATOM     14  C   UNL     1       0.902   8.059  -1.686  0.00  0.00    +0.001 A 
ATOM     15  C   UNL     1       0.188   9.211  -1.412  0.00  0.00    +0.004 A 
ATOM     16  C   UNL     1      -1.188   9.219  -1.541  0.00  0.00    +0.046 A 
ATOM     17  C   UNL     1      -1.851   8.071  -1.951  0.00  0.00    +0.120 A 
BRANCH  17  18
ATOM     18  O   UNL     1      -3.204   8.078  -2.084  0.00  0.00    -0.506 OA
ATOM     19  H   UNL     1      -3.679   7.832  -1.279  0.00  0.00    +0.292 HD
ENDBRANCH  17  18
ENDBRANCH  10  12
BRANCH   1  20
ATOM     20  S   UNL     1      -2.424  -0.149   0.126  0.00  0.00    -0.011 S 
ATOM     21  O   UNL     1      -3.125   0.356   1.254  0.00  0.00    -0.173 OA
ATOM     22  O   UNL     1      -1.018  -0.336   0.214  0.00  0.00    -0.173 OA
BRANCH  20  24
ATOM     23  C   UNL     1      -2.497  -2.247  -1.627  0.00  0.00    +0.031 C 
ATOM     24  C   UNL     1      -3.183  -1.722  -0.364  0.00  0.00    +0.126 C 
ATOM     25  C   UNL     1      -3.021  -2.740   0.765  0.00  0.00    +0.031 C 
ENDBRANCH  20  24
ENDBRANCH   1  20
BRANCH   6  26
ATOM     26  S   UNL     1      -0.966   2.406   0.095  0.00  0.00    +0.196 S 
ATOM     27  O   UNL     1      -0.513   3.750   0.013  0.00  0.00    -0.119 OA
ATOM     28  O   UNL     1      -1.576   1.877   1.264  0.00  0.00    -0.119 OA
BRANCH  26  29
ATOM     29  O   UNL     1       0.237   1.523  -0.205  0.00  0.00    -0.333 OA
BRANCH  29  30
ATOM     30  C   UNL     1       1.034   1.994  -1.200  0.00  0.00    +0.158 A 
ATOM     31  C   UNL     1       0.880   1.523  -2.496  0.00  0.00    +0.048 A 
ATOM     32  C   UNL     1       1.691   2.004  -3.505  0.00  0.00    +0.004 A 
ATOM     33  C   UNL     1       2.656   2.953  -3.225  0.00  0.00    +0.000 A 
ATOM     34  C   UNL     1       2.812   3.424  -1.935  0.00  0.00    +0.004 A 
ATOM     35  C   UNL     1       1.999   2.951  -0.923  0.00  0.00    +0.048 A 
ENDBRANCH  29  30
ENDBRANCH  26  29
ENDBRANCH   6  26
TORSDOF 7
