REMARK  Name = ZINC46791900
REMARK  9 active torsions:
REMARK  status: ('A' for Active; 'I' for Inactive)
REMARK    1  A    between atoms: C_1  and  C_2
REMARK    2  A    between atoms: C_7  and  C_10
REMARK    3  A    between atoms: C_14  and  C_17
REMARK    4  A    between atoms: C_17  and  N_18
REMARK    5  A    between atoms: C_19  and  C_21
REMARK    6  A    between atoms: C_21  and  S_22
REMARK    7  A    between atoms: S_22  and  C_23
REMARK    8  A    between atoms: C_26  and  C_32
REMARK    9  A    between atoms: C_28  and  N_29
REMARK                            x       y       z     vdW  Elec       q    Type
REMARK                         _______ _______ _______ _____ _____    ______ ____
ROOT
ATOM      1  N   UNL     1       4.638   3.978  -5.162  0.00  0.00    -0.310 N 
ATOM      2  C   UNL     1       5.221   4.826  -6.033  0.00  0.00    +0.223 C 
ATOM      3  O   UNL     1       5.915   4.392  -6.929  0.00  0.00    -0.275 OA
ATOM      4  H   UNL     1       4.083   4.325  -4.446  0.00  0.00    +0.149 HD
ENDROOT
BRANCH   1   5
ATOM      5  C   UNL     1       4.841   2.534  -5.298  0.00  0.00    +0.141 C 
BRANCH   5  17
ATOM      6  C   UNL     1       0.016   1.546   0.045  0.00  0.00    +0.039 C 
ATOM      7  C   UNL     1       0.015   0.016   0.022  0.00  0.00    +0.133 C 
ATOM      8  C   UNL     1       0.716  -0.478  -1.248  0.00  0.00    +0.137 C 
ATOM      9  N   UNL     1       2.143  -0.135  -1.154  0.00  0.00    -0.312 N 
ATOM     10  C   UNL     1       2.865  -0.509   0.072  0.00  0.00    +0.137 C 
ATOM     11  C   UNL     1       2.060  -0.013   1.279  0.00  0.00    +0.133 C 
ATOM     12  O   UNL     1       0.711  -0.479   1.169  0.00  0.00    -0.371 OA
ATOM     13  C   UNL     1       2.684  -0.553   2.567  0.00  0.00    +0.039 C 
ATOM     14  C   UNL     1       2.791   0.524  -2.193  0.00  0.00    +0.099 A 
ATOM     15  C   UNL     1       2.117   0.757  -3.387  0.00  0.00    +0.042 A 
ATOM     16  C   UNL     1       2.773   1.413  -4.413  0.00  0.00    +0.010 A 
ATOM     17  C   UNL     1       4.087   1.816  -4.208  0.00  0.00    -0.014 A 
ATOM     18  C   UNL     1       4.694   1.552  -2.997  0.00  0.00    +0.089 A 
ATOM     19  N   UNL     1       4.042   0.928  -2.034  0.00  0.00    -0.349 N 
ATOM     20  H   UNL     1       4.491   0.759  -1.192  0.00  0.00    +0.167 HD
ENDBRANCH   5  17
ENDBRANCH   1   5
BRANCH   2  21
ATOM     21  C   UNL     1       5.012   6.311  -5.894  0.00  0.00    +0.170 C 
BRANCH  21  22
ATOM     22  S   UNL     1       5.920   7.176  -7.205  0.00  0.00    -0.114 S 
BRANCH  22  23
ATOM     23  C   UNL     1       5.579   8.879  -6.908  0.00  0.00    +0.039 A 
ATOM     24  C   UNL     1       4.771   9.252  -5.841  0.00  0.00    +0.017 A 
ATOM     25  C   UNL     1       4.506  10.587  -5.612  0.00  0.00    +0.013 A 
ATOM     26  C   UNL     1       5.044  11.553  -6.443  0.00  0.00    +0.057 A 
ATOM     27  C   UNL     1       5.848  11.186  -7.506  0.00  0.00    +0.046 A 
ATOM     28  C   UNL     1       6.123   9.852  -7.737  0.00  0.00    +0.140 A 
BRANCH  26  29
ATOM     29  C   UNL     1       4.752  13.010  -6.190  0.00  0.00    +0.417 C 
ATOM     30  F   UNL     1       3.923  13.131  -5.069  0.00  0.00    -0.166 F 
ATOM     31  F   UNL     1       5.951  13.693  -5.959  0.00  0.00    -0.166 F 
ATOM     32  F   UNL     1       4.111  13.558  -7.306  0.00  0.00    -0.166 F 
ENDBRANCH  26  29
BRANCH  28  33
ATOM     33  N   UNL     1       6.989   9.460  -8.871  0.00  0.00    +0.058 N 
ATOM     34  O   UNL     1       7.462  10.308  -9.592  0.00  0.00    -0.126 OA
ATOM     35  O   UNL     1       7.225   8.292  -9.077  0.00  0.00    -0.126 OA
ENDBRANCH  28  33
ENDBRANCH  22  23
ENDBRANCH  21  22
ENDBRANCH   2  21
TORSDOF 7
