REMARK  Name = ZINC05792713
REMARK  14 active torsions:
REMARK  status: ('A' for Active; 'I' for Inactive)
REMARK    1  A    between atoms: C_1  and  C_2
REMARK    2  A    between atoms: C_2  and  C_3
REMARK    3  A    between atoms: C_3  and  C_4
REMARK    4  A    between atoms: C_4  and  N_5
REMARK    5  A    between atoms: N_5  and  C_6
REMARK    6  A    between atoms: N_5  and  C_10
REMARK    7  A    between atoms: C_6  and  C_7
REMARK    8  A    between atoms: C_7  and  C_8
REMARK    9  A    between atoms: C_8  and  C_9
REMARK   10  A    between atoms: C_10  and  C_11
REMARK   11  A    between atoms: C_12  and  O_30
REMARK   12  A    between atoms: C_19  and  C_22
REMARK   13  A    between atoms: C_27  and  O_28
REMARK   14  A    between atoms: O_28  and  C_29
REMARK                            x       y       z     vdW  Elec       q    Type
REMARK                         _______ _______ _______ _____ _____    ______ ____
ROOT
ATOM      1  C   UNL     1      -2.177  -4.266   1.763  0.00  0.00    +0.020 A 
ATOM      2  C   UNL     1      -0.819  -4.531   1.825  0.00  0.00    +0.122 A 
ATOM      3  C   UNL     1      -0.198  -4.776   3.048  0.00  0.00    +0.046 A 
ATOM      4  C   UNL     1      -0.924  -4.755   4.205  0.00  0.00    +0.019 A 
ATOM      5  C   UNL     1      -2.292  -4.487   4.158  0.00  0.00    +0.065 A 
ATOM      6  C   UNL     1      -2.929  -4.239   2.929  0.00  0.00    +0.143 A 
ATOM      7  O   UNL     1      -4.252  -3.990   2.887  0.00  0.00    -0.462 OA
ATOM      8  C   UNL     1      -4.942  -3.667   3.983  0.00  0.00    +0.208 A 
ATOM      9  C   UNL     1      -4.460  -3.859   5.239  0.00  0.00    +0.068 A 
ATOM     10  C   UNL     1      -3.111  -4.447   5.384  0.00  0.00    +0.200 A 
ATOM     11  O   UNL     1      -2.696  -4.859   6.453  0.00  0.00    -0.286 OA
ENDROOT
BRANCH   9  12
ATOM     12  C   UNL     1      -5.269  -3.501   6.429  0.00  0.00    +0.030 A 
ATOM     13  C   UNL     1      -5.871  -4.498   7.192  0.00  0.00    +0.012 A 
ATOM     14  C   UNL     1      -6.623  -4.159   8.299  0.00  0.00    +0.001 A 
ATOM     15  C   UNL     1      -6.781  -2.831   8.653  0.00  0.00    +0.004 A 
ATOM     16  C   UNL     1      -6.187  -1.833   7.903  0.00  0.00    +0.046 A 
ATOM     17  C   UNL     1      -5.425  -2.160   6.794  0.00  0.00    +0.128 A 
BRANCH  17  18
ATOM     18  O   UNL     1      -4.835  -1.180   6.059  0.00  0.00    -0.494 OA
ATOM     19  C   UNL     1      -5.038   0.166   6.492  0.00  0.00    +0.277 C 
ENDBRANCH  17  18
ENDBRANCH   9  12
BRANCH   2  20
ATOM     20  O   UNL     1      -0.085  -4.551   0.683  0.00  0.00    -0.506 OA
ATOM     21  H   UNL     1       0.292  -3.694   0.442  0.00  0.00    +0.292 HD
ENDBRANCH   2  20
BRANCH   1  22
ATOM     22  C   UNL     1      -2.835  -4.003   0.433  0.00  0.00    -0.036 C 
BRANCH  22  23
ATOM     23  N   UNL     1      -2.785  -2.565   0.138  0.00  0.00    +0.383 N 
ATOM     24  H   UNL     1      -3.200  -2.051   0.901  0.00  0.00    -0.081 HD
BRANCH  23  25
ATOM     25  C   UNL     1      -1.387  -2.147  -0.031  0.00  0.00    -0.078 C 
BRANCH  25  26
ATOM     26  C   UNL     1      -1.329  -0.632  -0.237  0.00  0.00    -0.019 C 
BRANCH  26  28
ATOM     27  C   UNL     1       0.190   1.336  -0.486  0.00  0.00    +0.004 C 
ATOM     28  C   UNL     1       0.132  -0.179  -0.279  0.00  0.00    -0.005 C 
ENDBRANCH  26  28
ENDBRANCH  25  26
ENDBRANCH  23  25
BRANCH  23  29
ATOM     29  C   UNL     1      -3.530  -2.292  -1.098  0.00  0.00    -0.078 C 
BRANCH  29  30
ATOM     30  C   UNL     1      -5.014  -2.593  -0.876  0.00  0.00    -0.019 C 
BRANCH  30  31
ATOM     31  C   UNL     1      -5.809  -2.184  -2.119  0.00  0.00    -0.005 C 
ATOM     32  C   UNL     1      -7.293  -2.484  -1.897  0.00  0.00    +0.004 C 
ENDBRANCH  30  31
ENDBRANCH  29  30
ENDBRANCH  23  29
ENDBRANCH  22  23
ENDBRANCH   1  22
TORSDOF 11
