REMARK  Name = ZINC39933486
REMARK  7 active torsions:
REMARK  status: ('A' for Active; 'I' for Inactive)
REMARK    1  A    between atoms: C_4  and  N_7
REMARK    2  A    between atoms: C_8  and  S_22
REMARK    3  A    between atoms: C_12  and  C_13
REMARK    4  A    between atoms: S_22  and  C_23
REMARK    5  A    between atoms: C_23  and  C_24
REMARK    6  A    between atoms: N_26  and  C_27
REMARK    7  A    between atoms: C_30  and  N_33
REMARK                            x       y       z     vdW  Elec       q    Type
REMARK                         _______ _______ _______ _____ _____    ______ ____
ROOT
ATOM      1  N   UNL     1       3.523  -0.412   0.061  0.00  0.00    -0.254 N 
ATOM      2  C   UNL     1       3.581  -1.879   0.163  0.00  0.00    +0.241 C 
ATOM      3  N   UNL     1       5.013  -2.196   0.033  0.00  0.00    -0.237 N 
ATOM      4  N   UNL     1       5.678  -0.975  -0.128  0.00  0.00    -0.169 NA
ATOM      5  C   UNL     1       4.838   0.027  -0.118  0.00  0.00    +0.151 C 
ATOM      6  H   UNL     1       5.417  -3.078   0.055  0.00  0.00    +0.171 HD
ENDROOT
BRANCH   5   7
ATOM      7  C   UNL     1       5.210   1.373  -0.265  0.00  0.00    +0.022 C 
ATOM      8  C   UNL     1       6.482   1.870  -0.550  0.00  0.00    +0.006 A 
ATOM      9  C   UNL     1       7.725   1.239  -0.771  0.00  0.00    +0.010 A 
ATOM     10  C   UNL     1       8.824   1.991  -1.035  0.00  0.00    +0.001 A 
ATOM     11  C   UNL     1       8.760   3.384  -1.095  0.00  0.00    +0.002 A 
ATOM     12  C   UNL     1       7.600   4.056  -0.892  0.00  0.00    +0.026 A 
ATOM     13  C   UNL     1       6.409   3.339  -0.612  0.00  0.00    +0.043 A 
ATOM     14  N   UNL     1       5.177   3.749  -0.383  0.00  0.00    -0.380 N 
ATOM     15  C   UNL     1       4.314   2.587  -0.153  0.00  0.00    +0.152 C 
ATOM     16  H   UNL     1       4.886   4.675  -0.372  0.00  0.00    +0.160 HD
ENDBRANCH   5   7
BRANCH   1  20
ATOM     17  C   UNL     1       0.109   1.964   0.252  0.00  0.00    +0.000 A 
ATOM     18  C   UNL     1       0.425   1.304  -0.921  0.00  0.00    +0.002 A 
ATOM     19  C   UNL     1       1.557   0.515  -0.988  0.00  0.00    +0.023 A 
ATOM     20  C   UNL     1       2.378   0.385   0.125  0.00  0.00    +0.038 A 
ATOM     21  C   UNL     1       2.057   1.050   1.302  0.00  0.00    +0.023 A 
ATOM     22  C   UNL     1       0.924   1.836   1.362  0.00  0.00    +0.002 A 
ENDBRANCH   1  20
BRANCH   2  23
ATOM     23  S   UNL     1       2.950  -2.429   1.773  0.00  0.00    -0.108 S 
BRANCH  23  24
ATOM     24  C   UNL     1       4.051  -1.629   2.972  0.00  0.00    +0.168 C 
BRANCH  24  25
ATOM     25  C   UNL     1       3.632  -2.007   4.369  0.00  0.00    +0.227 C 
ATOM     26  O   UNL     1       2.684  -2.744   4.539  0.00  0.00    -0.275 OA
ATOM     27  N   UNL     1       4.311  -1.527   5.430  0.00  0.00    -0.285 N 
ATOM     28  H   UNL     1       5.027  -0.886   5.298  0.00  0.00    +0.155 HD
BRANCH  27  29
ATOM     29  C   UNL     1       3.982  -1.952   6.723  0.00  0.00    +0.034 A 
ATOM     30  C   UNL     1       4.138  -1.088   7.799  0.00  0.00    +0.025 A 
ATOM     31  C   UNL     1       3.814  -1.507   9.074  0.00  0.00    +0.025 A 
ATOM     32  C   UNL     1       3.330  -2.792   9.280  0.00  0.00    +0.036 A 
ATOM     33  C   UNL     1       3.174  -3.656   8.204  0.00  0.00    +0.025 A 
ATOM     34  C   UNL     1       3.493  -3.235   6.929  0.00  0.00    +0.025 A 
BRANCH  32  35
ATOM     35  N   UNL     1       3.001  -3.218  10.574  0.00  0.00    -0.271 N 
ATOM     36  C   UNL     1       2.590  -4.584  10.916  0.00  0.00    +0.114 C 
ATOM     37  C   UNL     1       2.758  -4.693  12.448  0.00  0.00    +0.029 C 
ATOM     38  C   UNL     1       2.621  -3.217  12.886  0.00  0.00    +0.098 C 
ATOM     39  C   UNL     1       3.028  -2.428  11.661  0.00  0.00    +0.220 C 
ATOM     40  O   UNL     1       3.331  -1.254  11.660  0.00  0.00    -0.275 OA
ENDBRANCH  32  35
ENDBRANCH  27  29
ENDBRANCH  24  25
ENDBRANCH  23  24
ENDBRANCH   2  23
TORSDOF 7
