REMARK  Name = ZINC44074987
REMARK  10 active torsions:
REMARK  status: ('A' for Active; 'I' for Inactive)
REMARK    1  A    between atoms: C_1  and  C_2
REMARK    2  A    between atoms: C_6  and  C_32
REMARK    3  A    between atoms: C_9  and  C_31
REMARK    4  A    between atoms: C_14  and  C_20
REMARK    5  A    between atoms: C_15  and  O_19
REMARK    6  A    between atoms: C_21  and  C_26
REMARK    7  A    between atoms: C_22  and  O_25
REMARK    8  A    between atoms: C_26  and  C_28
REMARK    9  A    between atoms: C_26  and  C_29
REMARK   10  A    between atoms: C_29  and  O_30
REMARK                            x       y       z     vdW  Elec       q    Type
REMARK                         _______ _______ _______ _____ _____    ______ ____
ROOT
ATOM      1  C   UNL     1      -0.436   0.594   1.570  0.00  0.00    +0.039 C 
ATOM      2  C   UNL     1      -0.286  -0.864   1.221  0.00  0.00    -0.076 C 
ATOM      3  C   UNL     1      -0.279  -1.242  -0.034  0.00  0.00    -0.028 C 
ATOM      4  C   UNL     1      -0.129  -2.701  -0.379  0.00  0.00    +0.031 C 
ATOM      5  C   UNL     1       1.225  -2.930  -1.053  0.00  0.00    +0.034 C 
ATOM      6  C   UNL     1       1.177  -4.206  -1.853  0.00  0.00    -0.076 C 
ATOM      7  C   UNL     1       2.230  -4.983  -1.918  0.00  0.00    -0.027 C 
ATOM      8  C   UNL     1       3.496  -4.607  -1.193  0.00  0.00    +0.042 C 
ATOM      9  C   UNL     1       3.783  -5.637  -0.100  0.00  0.00    +0.044 C 
ATOM     10  C   UNL     1       4.625  -5.008   1.023  0.00  0.00    +0.036 C 
ATOM     11  C   UNL     1       3.853  -5.055   2.340  0.00  0.00    +0.036 C 
ATOM     12  C   UNL     1       4.230  -3.868   3.188  0.00  0.00    -0.025 C 
ATOM     13  C   UNL     1       3.327  -2.976   3.510  0.00  0.00    -0.048 C 
ATOM     14  C   UNL     1       1.906  -3.132   3.034  0.00  0.00    +0.140 C 
ATOM     15  C   UNL     1       1.236  -1.758   2.966  0.00  0.00    +0.040 C 
ATOM     16  C   UNL     1      -0.138  -1.890   2.315  0.00  0.00    +0.033 C 
ATOM     17  C   UNL     1       3.709  -1.790   4.359  0.00  0.00    +0.041 C 
ATOM     18  C   UNL     1       5.872  -5.845   1.117  0.00  0.00    -0.015 C 
ATOM     19  C   UNL     1       5.866  -6.796   0.188  0.00  0.00    +0.160 C 
ATOM     20  C   UNL     1       4.657  -6.750  -0.634  0.00  0.00    +0.204 C 
ATOM     21  O   UNL     1       4.401  -7.472  -1.575  0.00  0.00    -0.288 OA
ATOM     22  C   UNL     1       2.481  -6.208   0.465  0.00  0.00    +0.020 C 
ATOM     23  C   UNL     1      -0.085  -4.590  -2.583  0.00  0.00    +0.039 C 
ENDROOT
BRANCH  14  24
ATOM     24  O   UNL     1       1.188  -3.967   3.944  0.00  0.00    -0.388 OA
ATOM     25  H   UNL     1       1.557  -4.856   4.037  0.00  0.00    +0.210 HD
ENDBRANCH  14  24
BRANCH  19  26
ATOM     26  O   UNL     1       6.865  -7.704   0.022  0.00  0.00    -0.503 OA
ATOM     27  H   UNL     1       6.711  -8.331  -0.698  0.00  0.00    +0.292 HD
ENDBRANCH  19  26
BRANCH  18  28
ATOM     28  C   UNL     1       6.973  -5.635   2.124  0.00  0.00    +0.041 C 
ATOM     29  C   UNL     1       8.295  -5.397   1.391  0.00  0.00    +0.014 C 
BRANCH  28  30
ATOM     30  C   UNL     1       7.098  -6.876   3.010  0.00  0.00    +0.163 C 
BRANCH  30  31
ATOM     31  O   UNL     1       8.061  -6.633   4.037  0.00  0.00    -0.394 OA
ATOM     32  H   UNL     1       8.192  -7.380   4.638  0.00  0.00    +0.209 HD
ENDBRANCH  30  31
ENDBRANCH  28  30
ENDBRANCH  18  28
TORSDOF 5
