REMARK  Name = ZINC63817117
REMARK  6 active torsions:
REMARK  status: ('A' for Active; 'I' for Inactive)
REMARK    1  A    between atoms: C_7  and  C_10
REMARK    2  A    between atoms: C_10  and  C_11
REMARK    3  A    between atoms: C_11  and  N_12
REMARK    4  A    between atoms: C_13  and  C_15
REMARK    5  A    between atoms: N_18  and  S_21
REMARK    6  A    between atoms: S_21  and  C_24
REMARK                            x       y       z     vdW  Elec       q    Type
REMARK                         _______ _______ _______ _____ _____    ______ ____
ROOT
ATOM      1  C   UNL     1      -1.752  -6.557  -2.622  0.00  0.00    +0.077 C 
ATOM      2  C   UNL     1      -1.140  -7.698  -1.806  0.00  0.00    +0.030 C 
ATOM      3  C   UNL     1      -2.114  -8.880  -1.777  0.00  0.00    +0.110 C 
ATOM      4  N   UNL     1      -2.457  -9.243  -3.159  0.00  0.00    -0.177 NA
ATOM      5  C   UNL     1      -2.969  -8.199  -4.057  0.00  0.00    +0.110 C 
ATOM      6  C   UNL     1      -1.986  -7.025  -4.060  0.00  0.00    +0.030 C 
ENDROOT
BRANCH   1   8
ATOM      7  N   UNL     1      -0.458  -4.798  -1.460  0.00  0.00    -0.315 N 
ATOM      8  C   UNL     1      -0.811  -5.380  -2.623  0.00  0.00    +0.216 C 
ATOM      9  O   UNL     1      -0.371  -4.957  -3.671  0.00  0.00    -0.276 OA
ATOM     10  H   UNL     1      -0.810  -5.136  -0.622  0.00  0.00    +0.149 HD
BRANCH   7  11
ATOM     11  C   UNL     1       0.457  -3.653  -1.462  0.00  0.00    +0.108 C 
BRANCH  11  12
ATOM     12  C   UNL     1       0.691  -3.186  -0.024  0.00  0.00    +0.052 C 
BRANCH  12  19
ATOM     13  C   UNL     1      -0.016   1.348   0.009  0.00  0.00    +0.001 A 
ATOM     14  C   UNL     1       1.166   2.101   0.002  0.00  0.00    +0.002 A 
ATOM     15  C   UNL     1       2.391   1.535  -0.013  0.00  0.00    +0.026 A 
ATOM     16  C   UNL     1       2.529   0.120  -0.022  0.00  0.00    +0.043 A 
ATOM     17  N   UNL     1       3.587  -0.654  -0.037  0.00  0.00    -0.380 N 
ATOM     18  C   UNL     1       3.143  -2.053  -0.041  0.00  0.00    +0.144 C 
ATOM     19  C   UNL     1       1.631  -2.008  -0.025  0.00  0.00    -0.040 C 
ATOM     20  C   UNL     1       1.295  -0.698  -0.014  0.00  0.00    -0.001 A 
ATOM     21  C   UNL     1       0.002  -0.004   0.002  0.00  0.00    +0.010 A 
ATOM     22  H   UNL     1       4.509  -0.353  -0.045  0.00  0.00    +0.160 HD
ENDBRANCH  12  19
ENDBRANCH  11  12
ENDBRANCH   7  11
ENDBRANCH   1   8
BRANCH   4  23
ATOM     23  S   UNL     1      -2.270 -10.799  -3.694  0.00  0.00    +0.061 S 
ATOM     24  O   UNL     1      -2.131 -10.729  -5.106  0.00  0.00    -0.153 OA
ATOM     25  O   UNL     1      -1.288 -11.400  -2.861  0.00  0.00    -0.153 OA
BRANCH  23  26
ATOM     26  C   UNL     1      -3.784 -11.644  -3.378  0.00  0.00    +0.106 A 
ATOM     27  C   UNL     1      -3.977 -12.294  -2.173  0.00  0.00    +0.029 A 
ATOM     28  C   UNL     1      -5.163 -12.956  -1.934  0.00  0.00    +0.006 A 
ATOM     29  C   UNL     1      -6.167 -12.974  -2.894  0.00  0.00    -0.044 A 
ATOM     30  C   UNL     1      -5.976 -12.323  -4.092  0.00  0.00    -0.042 A 
ATOM     31  C   UNL     1      -4.782 -11.655  -4.330  0.00  0.00    +0.032 A 
ATOM     32  C   UNL     1      -7.027 -12.287  -5.171  0.00  0.00    +0.035 C 
ATOM     33  C   UNL     1      -8.065 -13.385  -4.947  0.00  0.00    +0.005 C 
ATOM     34  C   UNL     1      -8.565 -13.290  -3.501  0.00  0.00    +0.005 C 
ATOM     35  C   UNL     1      -7.433 -13.723  -2.571  0.00  0.00    +0.035 C 
ENDBRANCH  23  26
ENDBRANCH   4  23
TORSDOF 6
