REMARK  Name = ZINC11998253
REMARK  11 active torsions:
REMARK  status: ('A' for Active; 'I' for Inactive)
REMARK    1  A    between atoms: C_1  and  C_2
REMARK    2  A    between atoms: C_3  and  C_15
REMARK    3  A    between atoms: N_6  and  C_7
REMARK    4  A    between atoms: C_10  and  O_13
REMARK    5  A    between atoms: O_13  and  C_14
REMARK    6  A    between atoms: C_15  and  C_17
REMARK    7  A    between atoms: C_15  and  N_56
REMARK    8  A    between atoms: C_18  and  C_19
REMARK    9  A    between atoms: C_18  and  N_56
REMARK   10  A    between atoms: C_22  and  O_29
REMARK   11  A    between atoms: O_29  and  C_30
REMARK                            x       y       z     vdW  Elec       q    Type
REMARK                         _______ _______ _______ _____ _____    ______ ____
ROOT
ATOM      1  C   UNL     1       1.331   1.423  -0.129  0.00  0.00    -0.040 C 
ATOM      2  C   UNL     1       1.390   2.853   0.413  0.00  0.00    -0.009 C 
ENDROOT
BRANCH   1   5
ATOM      3  C   UNL     1       4.429   1.218  -0.518  0.00  0.00    +0.066 C 
ATOM      4  C   UNL     1       3.608   0.459   0.493  0.00  0.00    +0.043 A 
ATOM      5  C   UNL     1       2.268   0.547   0.662  0.00  0.00    -0.021 A 
ATOM      6  C   UNL     1       1.906  -0.323   1.696  0.00  0.00    +0.137 A 
ATOM      7  N   UNL     1       2.990  -0.909   2.137  0.00  0.00    -0.174 NA
ATOM      8  N   UNL     1       4.079  -0.430   1.397  0.00  0.00    -0.237 N 
BRANCH   8   9
ATOM      9  C   UNL     1       5.419  -0.810   1.560  0.00  0.00    +0.066 A 
ATOM     10  C   UNL     1       5.741  -2.143   1.776  0.00  0.00    +0.031 A 
ATOM     11  C   UNL     1       7.061  -2.518   1.931  0.00  0.00    +0.048 A 
ATOM     12  C   UNL     1       8.065  -1.561   1.882  0.00  0.00    +0.120 A 
ATOM     13  C   UNL     1       7.743  -0.228   1.671  0.00  0.00    +0.048 A 
ATOM     14  C   UNL     1       6.424   0.147   1.510  0.00  0.00    +0.031 A 
BRANCH  12  15
ATOM     15  O   UNL     1       9.363  -1.930   2.041  0.00  0.00    -0.495 OA
ATOM     16  C   UNL     1       9.622  -3.319   2.254  0.00  0.00    +0.277 C 
ENDBRANCH  12  15
ENDBRANCH   8   9
ENDBRANCH   1   5
BRANCH   1  17
ATOM     17  N   UNL     1      -0.043   0.903   0.001  0.00  0.00    +0.386 N 
ATOM     18  H   UNL     1      -0.466   1.275   0.859  0.00  0.00    -0.085 HD
ATOM     19  H   UNL     1      -0.014  -0.122   0.050  0.00  0.00    -0.085 HD
BRANCH  17  20
ATOM     20  C   UNL     1      -0.857   1.312  -1.159  0.00  0.00    -0.045 C 
BRANCH  20  21
ATOM     21  C   UNL     1      -2.253   0.768  -1.000  0.00  0.00    -0.056 A 
ATOM     22  C   UNL     1      -2.627  -0.360  -1.665  0.00  0.00    +0.006 A 
ATOM     23  C   UNL     1      -3.911  -0.880  -1.532  0.00  0.00    +0.046 A 
ATOM     24  C   UNL     1      -4.835  -0.273  -0.728  0.00  0.00    +0.128 A 
ATOM     25  C   UNL     1      -4.482   0.896  -0.023  0.00  0.00    +0.024 A 
ATOM     26  C   UNL     1      -3.172   1.419  -0.159  0.00  0.00    -0.013 A 
ATOM     27  C   UNL     1      -2.821   2.587   0.539  0.00  0.00    +0.009 A 
ATOM     28  C   UNL     1      -3.739   3.194   1.340  0.00  0.00    +0.001 A 
ATOM     29  C   UNL     1      -5.026   2.677   1.477  0.00  0.00    +0.001 A 
ATOM     30  C   UNL     1      -5.402   1.550   0.812  0.00  0.00    +0.012 A 
BRANCH  24  31
ATOM     31  O   UNL     1      -6.083  -0.793  -0.607  0.00  0.00    -0.495 OA
ATOM     32  C   UNL     1      -6.367  -1.980  -1.351  0.00  0.00    +0.277 C 
ENDBRANCH  24  31
ENDBRANCH  20  21
ENDBRANCH  17  20
ENDBRANCH   1  17
TORSDOF 7
