REMARK  Name = ZINC20491129
REMARK  6 active torsions:
REMARK  status: ('A' for Active; 'I' for Inactive)
REMARK    1  A    between atoms: C_1  and  C_2
REMARK    2  A    between atoms: C_5  and  C_8
REMARK    3  A    between atoms: C_11  and  C_34
REMARK    4  A    between atoms: C_18  and  C_21
REMARK    5  A    between atoms: C_21  and  C_22
REMARK    6  A    between atoms: N_24  and  C_25
REMARK                            x       y       z     vdW  Elec       q    Type
REMARK                         _______ _______ _______ _____ _____    ______ ____
ROOT
ATOM      1  C   UNL     1       4.303  -2.881  -0.130  0.00  0.00    +0.136 C 
ATOM      2  C   UNL     1       5.305  -3.533   0.845  0.00  0.00    +0.087 C 
ATOM      3  C   UNL     1       4.775  -3.163   2.212  0.00  0.00    +0.069 C 
ATOM      4  N   UNL     1       3.708  -2.452   2.083  0.00  0.00    -0.182 NA
ATOM      5  N   UNL     1       3.337  -2.219   0.760  0.00  0.00    -0.195 N 
ATOM      6  C   UNL     1       2.250  -1.498   0.356  0.00  0.00    +0.170 C 
ATOM      7  N   UNL     1       1.849  -1.245  -0.883  0.00  0.00    -0.157 NA
ATOM      8  C   UNL     1       0.791  -0.543  -1.185  0.00  0.00    +0.252 C 
ATOM      9  O   UNL     1       0.457  -0.334  -2.335  0.00  0.00    -0.272 OA
ATOM     10  C   UNL     1       0.004  -0.004   0.003  0.00  0.00    +0.150 C 
ATOM     11  S   UNL     1       1.032  -0.673   1.372  0.00  0.00    -0.078 S 
ENDROOT
BRANCH   1  16
ATOM     12  C   UNL     1       1.680  -6.899  -3.350  0.00  0.00    +0.044 C 
ATOM     13  C   UNL     1       2.364  -5.852  -2.510  0.00  0.00    -0.050 A 
ATOM     14  C   UNL     1       3.360  -5.066  -3.060  0.00  0.00    +0.004 A 
ATOM     15  C   UNL     1       3.987  -4.105  -2.290  0.00  0.00    +0.006 A 
ATOM     16  C   UNL     1       3.619  -3.929  -0.969  0.00  0.00    -0.025 A 
ATOM     17  C   UNL     1       2.628  -4.718  -0.417  0.00  0.00    +0.006 A 
ATOM     18  C   UNL     1       1.997  -5.676  -1.189  0.00  0.00    +0.004 A 
ENDBRANCH   1  16
BRANCH   3  19
ATOM     19  C   UNL     1       5.385  -3.556   3.496  0.00  0.00    -0.002 A 
ATOM     20  C   UNL     1       6.544  -4.337   3.512  0.00  0.00    +0.010 A 
ATOM     21  C   UNL     1       7.113  -4.695   4.717  0.00  0.00    +0.001 A 
ATOM     22  C   UNL     1       6.532  -4.294   5.907  0.00  0.00    +0.000 A 
ATOM     23  C   UNL     1       5.380  -3.526   5.898  0.00  0.00    +0.001 A 
ATOM     24  C   UNL     1       4.804  -3.155   4.701  0.00  0.00    +0.010 A 
ENDBRANCH   3  19
BRANCH  10  25
ATOM     25  C   UNL     1      -0.013   1.526   0.014  0.00  0.00    +0.120 C 
BRANCH  25  26
ATOM     26  C   UNL     1      -0.726   2.012   1.249  0.00  0.00    +0.219 C 
ATOM     27  O   UNL     1      -1.176   1.213   2.043  0.00  0.00    -0.275 OA
ATOM     28  N   UNL     1      -0.863   3.334   1.472  0.00  0.00    -0.285 N 
ATOM     29  H   UNL     1      -0.390   4.058   0.793  0.00  0.00    +0.155 HD
BRANCH  28  30
ATOM     30  C   UNL     1      -1.609   3.786   2.569  0.00  0.00    +0.037 A 
ATOM     31  C   UNL     1      -2.358   4.950   2.467  0.00  0.00    +0.027 A 
ATOM     32  C   UNL     1      -3.097   5.395   3.546  0.00  0.00    +0.051 A 
ATOM     33  C   UNL     1      -3.086   4.685   4.736  0.00  0.00    +0.166 A 
ATOM     34  C   UNL     1      -2.331   3.519   4.843  0.00  0.00    +0.168 A 
ATOM     35  C   UNL     1      -1.594   3.072   3.759  0.00  0.00    +0.072 A 
ATOM     36  O   UNL     1      -2.486   3.013   6.102  0.00  0.00    -0.453 OA
ATOM     37  C   UNL     1      -3.014   4.097   6.889  0.00  0.00    +0.466 C 
ATOM     38  O   UNL     1      -3.713   4.909   5.928  0.00  0.00    -0.453 OA
ENDBRANCH  28  30
ENDBRANCH  25  26
ENDBRANCH  10  25
TORSDOF 5
