REMARK  Name = ZINC45120714
REMARK  10 active torsions:
REMARK  status: ('A' for Active; 'I' for Inactive)
REMARK    1  A    between atoms: C_1  and  C_2
REMARK    2  A    between atoms: C_5  and  O_24
REMARK    3  A    between atoms: C_6  and  C_8
REMARK    4  A    between atoms: C_8  and  C_10
REMARK    5  A    between atoms: C_8  and  N_11
REMARK    6  A    between atoms: N_14  and  C_15
REMARK    7  A    between atoms: N_14  and  C_16
REMARK    8  A    between atoms: C_16  and  C_17
REMARK    9  A    between atoms: C_22  and  O_23
REMARK   10  A    between atoms: O_24  and  C_25
REMARK                            x       y       z     vdW  Elec       q    Type
REMARK                         _______ _______ _______ _____ _____    ______ ____
ROOT
ATOM      1  N   UNL     1      -0.537  -2.013   3.548  0.00  0.00    -0.293 N 
ATOM      2  C   UNL     1      -1.091  -2.594   4.631  0.00  0.00    +0.303 C 
ATOM      3  O   UNL     1      -1.101  -3.806   4.732  0.00  0.00    -0.253 OA
ATOM      4  N   UNL     1      -1.633  -1.832   5.601  0.00  0.00    -0.284 N 
ATOM      5  C   UNL     1      -1.621  -0.372   5.480  0.00  0.00    +0.134 C 
ATOM      6  H   UNL     1      -0.529  -1.046   3.468  0.00  0.00    +0.151 HD
ENDROOT
BRANCH   1   7
ATOM      7  C   UNL     1       0.052  -2.841   2.493  0.00  0.00    +0.105 C 
ATOM      8  C   UNL     1       1.496  -3.187   2.864  0.00  0.00    +0.033 C 
BRANCH   7  14
ATOM      9  C   UNL     1      -0.018   1.503   0.010  0.00  0.00    +0.044 C 
ATOM     10  C   UNL     1       0.002  -0.004   0.002  0.00  0.00    -0.050 A 
ATOM     11  C   UNL     1       0.006  -0.688  -1.200  0.00  0.00    +0.007 A 
ATOM     12  C   UNL     1       0.024  -2.069  -1.210  0.00  0.00    +0.046 A 
ATOM     13  C   UNL     1       0.039  -2.770  -0.013  0.00  0.00    +0.125 A 
ATOM     14  C   UNL     1       0.036  -2.082   1.191  0.00  0.00    +0.014 A 
ATOM     15  C   UNL     1       0.023  -0.701   1.196  0.00  0.00    +0.012 A 
BRANCH  13  16
ATOM     16  O   UNL     1       0.057  -4.129  -0.021  0.00  0.00    -0.495 OA
ATOM     17  C   UNL     1       0.058  -4.771  -1.298  0.00  0.00    +0.277 C 
ENDBRANCH  13  16
ENDBRANCH   7  14
ENDBRANCH   1   7
BRANCH   4  18
ATOM     18  C   UNL     1      -2.235  -2.464   6.778  0.00  0.00    +0.147 C 
BRANCH  18  19
ATOM     19  C   UNL     1      -1.187  -2.636   7.847  0.00  0.00    +0.011 A 
ATOM     20  C   UNL     1      -0.576  -3.862   8.026  0.00  0.00    +0.009 A 
ATOM     21  C   UNL     1       0.386  -4.020   9.007  0.00  0.00    +0.001 A 
ATOM     22  C   UNL     1       0.738  -2.952   9.811  0.00  0.00    +0.004 A 
ATOM     23  C   UNL     1       0.130  -1.724   9.637  0.00  0.00    +0.046 A 
ATOM     24  C   UNL     1      -0.831  -1.562   8.649  0.00  0.00    +0.122 A 
BRANCH  24  25
ATOM     25  O   UNL     1      -1.427  -0.353   8.472  0.00  0.00    -0.506 OA
ATOM     26  H   UNL     1      -2.227  -0.228   9.000  0.00  0.00    +0.292 HD
ENDBRANCH  24  25
ENDBRANCH  18  19
ENDBRANCH   4  18
TORSDOF 6
