REMARK  Name = ZINC63514894
REMARK  9 active torsions:
REMARK  status: ('A' for Active; 'I' for Inactive)
REMARK    1  A    between atoms: C_1  and  C_2
REMARK    2  A    between atoms: C_4  and  C_17
REMARK    3  A    between atoms: C_7  and  O_12
REMARK    4  A    between atoms: O_12  and  C_13
REMARK    5  A    between atoms: C_17  and  C_18
REMARK    6  A    between atoms: C_18  and  N_19
REMARK    7  A    between atoms: N_19  and  S_20
REMARK    8  A    between atoms: S_20  and  C_23
REMARK    9  A    between atoms: C_25  and  N_30
REMARK                            x       y       z     vdW  Elec       q    Type
REMARK                         _______ _______ _______ _____ _____    ______ ____
ROOT
ATOM      1  C   UNL     1       0.345   0.405  -2.951  0.00  0.00    +0.050 C 
ENDROOT
BRANCH   1   4
ATOM      2  C   UNL     1       0.001   2.666  -0.654  0.00  0.00    +0.035 C 
ATOM      3  C   UNL     1       0.174   1.173  -0.367  0.00  0.00    +0.103 C 
ATOM      4  C   UNL     1       0.853   0.493  -1.535  0.00  0.00    -0.037 C 
ATOM      5  C   UNL     1       2.006  -0.021  -1.051  0.00  0.00    +0.003 A 
ATOM      6  C   UNL     1       3.093  -0.785  -1.673  0.00  0.00    +0.056 A 
ATOM      7  C   UNL     1       4.150  -1.174  -0.920  0.00  0.00    +0.129 A 
ATOM      8  C   UNL     1       4.248  -0.872   0.449  0.00  0.00    +0.048 A 
ATOM      9  C   UNL     1       3.300  -0.174   1.110  0.00  0.00    +0.029 A 
ATOM     10  C   UNL     1       2.111   0.297   0.392  0.00  0.00    +0.043 A 
ATOM     11  N   UNL     1       1.062   0.979   0.785  0.00  0.00    -0.378 N 
ATOM     12  H   UNL     1       0.901   1.303   1.685  0.00  0.00    +0.160 HD
BRANCH   7  13
ATOM     13  O   UNL     1       5.150  -1.882  -1.509  0.00  0.00    -0.420 OA
BRANCH  13  14
ATOM     14  C   UNL     1       6.245  -2.272  -0.678  0.00  0.00    +0.489 C 
ATOM     15  F   UNL     1       6.855  -1.132  -0.144  0.00  0.00    -0.149 F 
ATOM     16  F   UNL     1       5.776  -3.081   0.363  0.00  0.00    -0.149 F 
ATOM     17 CL   UNL     1       7.446  -3.193  -1.659  0.00  0.00    +0.000 Cl
ENDBRANCH  13  14
ENDBRANCH   7  13
ENDBRANCH   1   4
BRANCH   1  18
ATOM     18  C   UNL     1       1.405  -0.259  -3.832  0.00  0.00    +0.110 C 
BRANCH  18  19
ATOM     19  N   UNL     1       0.967  -0.228  -5.230  0.00  0.00    -0.190 NA
ATOM     20  H   UNL     1       1.133   0.558  -5.773  0.00  0.00    +0.148 HD
BRANCH  19  21
ATOM     21  S   UNL     1       0.189  -1.536  -5.883  0.00  0.00    +0.060 S 
ATOM     22  O   UNL     1      -0.078  -1.214  -7.241  0.00  0.00    -0.153 OA
ATOM     23  O   UNL     1       0.937  -2.684  -5.505  0.00  0.00    -0.153 OA
BRANCH  21  24
ATOM     24  C   UNL     1      -1.374  -1.667  -5.080  0.00  0.00    +0.126 A 
ATOM     25  C   UNL     1      -2.526  -1.284  -5.742  0.00  0.00    +0.062 A 
ATOM     26  C   UNL     1      -3.752  -1.386  -5.112  0.00  0.00    +0.128 A 
ATOM     27  C   UNL     1      -3.827  -1.870  -3.819  0.00  0.00    +0.034 A 
ATOM     28  C   UNL     1      -2.676  -2.253  -3.156  0.00  0.00    +0.024 A 
ATOM     29  C   UNL     1      -1.449  -2.156  -3.788  0.00  0.00    +0.067 A 
ATOM     30 CL   UNL     1      -0.004  -2.644  -2.958  0.00  0.00    -0.082 Cl
BRANCH  26  31
ATOM     31  N   UNL     1      -4.984  -0.976  -5.821  0.00  0.00    +0.056 N 
ATOM     32  O   UNL     1      -4.918  -0.553  -6.952  0.00  0.00    -0.126 OA
ATOM     33  O   UNL     1      -6.057  -1.065  -5.271  0.00  0.00    -0.126 OA
ENDBRANCH  26  31
ENDBRANCH  21  24
ENDBRANCH  19  21
ENDBRANCH  18  19
ENDBRANCH   1  18
TORSDOF 8
