REMARK  Name = ZINC26781411
REMARK  13 active torsions:
REMARK  status: ('A' for Active; 'I' for Inactive)
REMARK    1  A    between atoms: C_1  and  C_2
REMARK    2  A    between atoms: C_2  and  C_3
REMARK    3  A    between atoms: C_2  and  C_4
REMARK    4  A    between atoms: C_2  and  C_5
REMARK    5  A    between atoms: C_10  and  O_11
REMARK    6  A    between atoms: O_11  and  C_12
REMARK    7  A    between atoms: C_12  and  C_13
REMARK    8  A    between atoms: C_13  and  C_15
REMARK    9  A    between atoms: C_13  and  O_35
REMARK   10  A    between atoms: C_15  and  N_16
REMARK   11  A    between atoms: N_19  and  C_22
REMARK   12  A    between atoms: C_22  and  C_23
REMARK   13  A    between atoms: C_22  and  C_29
REMARK                            x       y       z     vdW  Elec       q    Type
REMARK                         _______ _______ _______ _____ _____    ______ ____
ROOT
ATOM      1  N   UNL     1      -0.585   1.547   1.157  0.00  0.00    -0.303 NA
ATOM      2  C   UNL     1       0.228   1.080   0.025  0.00  0.00    +0.066 C 
ATOM      3  C   UNL     1      -0.393   1.572  -1.284  0.00  0.00    -0.062 C 
ATOM      4  N   UNL     1      -0.472   3.040  -1.265  0.00  0.00    +0.389 N 
ATOM      5  C   UNL     1      -1.286   3.506  -0.134  0.00  0.00    -0.062 C 
ATOM      6  C   UNL     1      -0.664   3.014   1.175  0.00  0.00    +0.066 C 
ATOM      7  H   UNL     1       0.547   3.433  -1.135  0.00  0.00    -0.080 HD
ENDROOT
BRANCH   1   8
ATOM      8  C   UNL     1      -0.062   1.031   2.429  0.00  0.00    +0.119 C 
BRANCH   8   9
ATOM      9  C   UNL     1      -0.221  -0.491   2.466  0.00  0.00    +0.166 C 
BRANCH   9  10
ATOM     10  O   UNL     1      -1.605  -0.828   2.357  0.00  0.00    -0.387 OA
ATOM     11  H   UNL     1      -2.178  -0.523   1.469  0.00  0.00    +0.210 HD
ENDBRANCH   9  10
BRANCH   9  12
ATOM     12  C   UNL     1       0.334  -1.029   3.786  0.00  0.00    +0.261 C 
BRANCH  12  13
ATOM     13  O   UNL     1       0.293  -2.458   3.773  0.00  0.00    -0.489 OA
BRANCH  13  19
ATOM     14  C   UNL     1       0.742  -4.484   4.934  0.00  0.00    -0.000 A 
ATOM     15  C   UNL     1       1.210  -5.133   6.060  0.00  0.00    +0.008 A 
ATOM     16  C   UNL     1       1.689  -4.403   7.132  0.00  0.00    +0.001 A 
ATOM     17  C   UNL     1       1.701  -3.021   7.080  0.00  0.00    +0.004 A 
ATOM     18  C   UNL     1       1.239  -2.368   5.954  0.00  0.00    +0.046 A 
ATOM     19  C   UNL     1       0.753  -3.098   4.879  0.00  0.00    +0.124 A 
BRANCH  14  21
ATOM     20  C   UNL     1       0.320  -6.775   4.083  0.00  0.00    +0.015 C 
ATOM     21  C   UNL     1       0.221  -5.281   3.766  0.00  0.00    -0.009 C 
ATOM     22  C   UNL     1      -1.241  -4.911   3.508  0.00  0.00    +0.015 C 
ATOM     23  C   UNL     1       1.054  -4.968   2.522  0.00  0.00    +0.015 C 
ENDBRANCH  14  21
ENDBRANCH  13  19
ENDBRANCH  12  13
ENDBRANCH   9  12
ENDBRANCH   8   9
ENDBRANCH   1   8
BRANCH   4  24
ATOM     24  C   UNL     1      -0.994   3.556  -2.538  0.00  0.00    -0.007 C 
BRANCH  24  25
ATOM     25  C   UNL     1      -1.060   5.060  -2.480  0.00  0.00    -0.057 A 
ATOM     26  C   UNL     1      -0.044   5.774  -1.872  0.00  0.00    +0.002 A 
ATOM     27  C   UNL     1      -0.102   7.154  -1.823  0.00  0.00    +0.000 A 
ATOM     28  C   UNL     1      -1.181   7.820  -2.375  0.00  0.00    +0.000 A 
ATOM     29  C   UNL     1      -2.199   7.106  -2.979  0.00  0.00    +0.000 A 
ATOM     30  C   UNL     1      -2.138   5.726  -3.032  0.00  0.00    +0.002 A 
ENDBRANCH  24  25
BRANCH  24  31
ATOM     31  C   UNL     1      -0.083   3.135  -3.662  0.00  0.00    -0.057 A 
ATOM     32  C   UNL     1       1.288   3.159  -3.487  0.00  0.00    +0.002 A 
ATOM     33  C   UNL     1       2.123   2.769  -4.517  0.00  0.00    +0.000 A 
ATOM     34  C   UNL     1       1.588   2.364  -5.725  0.00  0.00    +0.000 A 
ATOM     35  C   UNL     1       0.217   2.345  -5.902  0.00  0.00    +0.000 A 
ATOM     36  C   UNL     1      -0.619   2.731  -4.871  0.00  0.00    +0.002 A 
ENDBRANCH  24  31
ENDBRANCH   4  24
TORSDOF 10
