REMARK  Name = ZINC40344570
REMARK  14 active torsions:
REMARK  status: ('A' for Active; 'I' for Inactive)
REMARK    1  A    between atoms: C_1  and  C_2
REMARK    2  A    between atoms: C_2  and  O_3
REMARK    3  A    between atoms: O_3  and  C_4
REMARK    4  A    between atoms: C_7  and  C_12
REMARK    5  A    between atoms: C_9  and  O_10
REMARK    6  A    between atoms: O_10  and  C_11
REMARK    7  A    between atoms: C_15  and  C_33
REMARK    8  A    between atoms: N_22  and  C_23
REMARK    9  A    between atoms: C_23  and  C_24
REMARK   10  A    between atoms: C_24  and  C_25
REMARK   11  A    between atoms: C_28  and  O_31
REMARK   12  A    between atoms: O_31  and  C_32
REMARK   13  A    between atoms: C_36  and  O_39
REMARK   14  A    between atoms: O_39  and  C_40
REMARK                            x       y       z     vdW  Elec       q    Type
REMARK                         _______ _______ _______ _____ _____    ______ ____
ROOT
ATOM      1  C   UNL     1       1.107  -6.044  -1.844  0.00  0.00    +0.141 C 
ATOM      2  C   UNL     1       2.197  -6.588  -0.960  0.00  0.00    +0.035 A 
ATOM      3  C   UNL     1       3.555  -6.585  -0.626  0.00  0.00    +0.099 A 
ATOM      4  N   UNL     1       3.718  -7.433   0.370  0.00  0.00    -0.173 NA
ATOM      5  N   UNL     1       2.598  -7.971   0.698  0.00  0.00    -0.272 N 
ATOM      6  H   UNL     1       2.479  -8.624   1.405  0.00  0.00    +0.189 HD
ATOM      7  C   UNL     1       1.599  -7.486  -0.098  0.00  0.00    +0.126 A 
ATOM      8  C   UNL     1       0.163  -7.536  -0.398  0.00  0.00    +0.265 C 
ATOM      9  O   UNL     1      -0.644  -8.233   0.187  0.00  0.00    -0.268 OA
ATOM     10  N   UNL     1      -0.134  -6.702  -1.413  0.00  0.00    -0.285 N 
ENDROOT
BRANCH   1  14
ATOM     11  C   UNL     1       0.777  -1.811  -1.336  0.00  0.00    +0.162 A 
ATOM     12  C   UNL     1       0.243  -2.669  -0.388  0.00  0.00    +0.050 A 
ATOM     13  C   UNL     1       0.352  -4.037  -0.555  0.00  0.00    +0.009 A 
ATOM     14  C   UNL     1       0.992  -4.552  -1.667  0.00  0.00    -0.019 A 
ATOM     15  C   UNL     1       1.526  -3.702  -2.616  0.00  0.00    +0.055 A 
ATOM     16  C   UNL     1       1.416  -2.330  -2.458  0.00  0.00    +0.162 A 
BRANCH  16  17
ATOM     17  O   UNL     1       1.936  -1.492  -3.394  0.00  0.00    -0.491 OA
ATOM     18  C   UNL     1       2.578  -2.095  -4.520  0.00  0.00    +0.277 C 
ENDBRANCH  16  17
BRANCH  11  19
ATOM     19  O   UNL     1       0.671  -0.465  -1.174  0.00  0.00    -0.489 OA
BRANCH  19  21
ATOM     20  C   UNL     1      -0.019   1.526   0.010  0.00  0.00    +0.048 C 
ATOM     21  C   UNL     1       0.002  -0.004   0.002  0.00  0.00    +0.226 C 
ENDBRANCH  19  21
ENDBRANCH  11  19
ENDBRANCH   1  14
BRANCH   3  22
ATOM     22  C   UNL     1       4.618  -5.776  -1.274  0.00  0.00    +0.003 A 
ATOM     23  C   UNL     1       4.556  -5.509  -2.640  0.00  0.00    +0.013 A 
ATOM     24  C   UNL     1       5.545  -4.756  -3.240  0.00  0.00    +0.046 A 
ATOM     25  C   UNL     1       6.601  -4.266  -2.483  0.00  0.00    +0.120 A 
ATOM     26  C   UNL     1       6.665  -4.531  -1.122  0.00  0.00    +0.046 A 
ATOM     27  C   UNL     1       5.676  -5.277  -0.516  0.00  0.00    +0.013 A 
BRANCH  25  28
ATOM     28  O   UNL     1       7.573  -3.526  -3.077  0.00  0.00    -0.495 OA
ATOM     29  C   UNL     1       8.630  -3.053  -2.239  0.00  0.00    +0.277 C 
ENDBRANCH  25  28
ENDBRANCH   3  22
BRANCH  10  30
ATOM     30  C   UNL     1      -1.464  -6.487  -1.987  0.00  0.00    +0.114 C 
BRANCH  30  31
ATOM     31  C   UNL     1      -1.691  -7.476  -3.132  0.00  0.00    +0.054 C 
BRANCH  31  32
ATOM     32  C   UNL     1      -3.059  -7.254  -3.724  0.00  0.00    -0.046 A 
ATOM     33  C   UNL     1      -4.149  -7.938  -3.217  0.00  0.00    +0.007 A 
ATOM     34  C   UNL     1      -5.404  -7.736  -3.758  0.00  0.00    +0.046 A 
ATOM     35  C   UNL     1      -5.571  -6.847  -4.810  0.00  0.00    +0.120 A 
ATOM     36  C   UNL     1      -4.476  -6.162  -5.316  0.00  0.00    +0.046 A 
ATOM     37  C   UNL     1      -3.223  -6.363  -4.768  0.00  0.00    +0.007 A 
BRANCH  35  38
ATOM     38  O   UNL     1      -6.804  -6.648  -5.343  0.00  0.00    -0.495 OA
ATOM     39  C   UNL     1      -6.901  -5.718  -6.424  0.00  0.00    +0.277 C 
ENDBRANCH  35  38
ENDBRANCH  31  32
ENDBRANCH  30  31
ENDBRANCH  10  30
TORSDOF 10
