REMARK  Name = ZINC59203734
REMARK  5 active torsions:
REMARK  status: ('A' for Active; 'I' for Inactive)
REMARK    1  A    between atoms: C_1  and  C_2
REMARK    2  A    between atoms: N_4  and  C_23
REMARK    3  A    between atoms: C_9  and  C_17
REMARK    4  A    between atoms: C_11  and  C_15
REMARK    5  A    between atoms: C_12  and  N_14
REMARK                            x       y       z     vdW  Elec       q    Type
REMARK                         _______ _______ _______ _____ _____    ______ ____
ROOT
ATOM      1  C   UNL     1      -0.637   1.422   0.335  0.00  0.00    +0.063 C 
ATOM      2  C   UNL     1      -0.589  -0.084   0.359  0.00  0.00    +0.043 C 
ATOM      3  N   UNL     1      -0.937  -0.864  -0.597  0.00  0.00    -0.185 NA
ATOM      4  N   UNL     1      -0.819  -2.224  -0.275  0.00  0.00    -0.185 N 
ATOM      5  C   UNL     1       0.154  -2.300   0.859  0.00  0.00    +0.294 C 
ATOM      6  C   UNL     1      -0.120  -0.934   1.504  0.00  0.00    +0.109 C 
ATOM      7  C   UNL     1       1.029  -0.379   2.295  0.00  0.00    +0.078 C 
ATOM      8  C   UNL     1       2.359  -0.696   1.676  0.00  0.00    +0.094 C 
ATOM      9  C   UNL     1       2.477  -1.649   0.726  0.00  0.00    +0.194 C 
ATOM     10  O   UNL     1       1.437  -2.338   0.234  0.00  0.00    -0.455 OA
ENDROOT
BRANCH   7  11
ATOM     11  C   UNL     1       0.880   1.118   2.385  0.00  0.00    -0.038 A 
ATOM     12  C   UNL     1       1.620   1.938   1.554  0.00  0.00    +0.004 A 
ATOM     13  C   UNL     1       1.484   3.311   1.637  0.00  0.00    +0.000 A 
ATOM     14  C   UNL     1       0.607   3.865   2.551  0.00  0.00    +0.000 A 
ATOM     15  C   UNL     1      -0.135   3.045   3.381  0.00  0.00    +0.000 A 
ATOM     16  C   UNL     1      -0.001   1.672   3.296  0.00  0.00    +0.004 A 
ENDBRANCH   7  11
BRANCH   4  17
ATOM     17  C   UNL     1      -1.476  -3.292  -0.889  0.00  0.00    +0.055 A 
ATOM     18  C   UNL     1      -1.257  -4.591  -0.449  0.00  0.00    +0.025 A 
ATOM     19  C   UNL     1      -1.909  -5.645  -1.059  0.00  0.00    +0.002 A 
ATOM     20  C   UNL     1      -2.779  -5.407  -2.107  0.00  0.00    +0.000 A 
ATOM     21  C   UNL     1      -3.000  -4.115  -2.548  0.00  0.00    +0.002 A 
ATOM     22  C   UNL     1      -2.356  -3.057  -1.939  0.00  0.00    +0.025 A 
ENDBRANCH   4  17
BRANCH   9  23
ATOM     23  N   UNL     1       3.731  -1.946   0.254  0.00  0.00    -0.329 N 
ATOM     24  H   UNL     1       4.504  -1.475   0.603  0.00  0.00    +0.145 HD
ATOM     25  H   UNL     1       3.844  -2.627  -0.427  0.00  0.00    +0.145 HD
ENDBRANCH   9  23
BRANCH   8  26
ATOM     26  C   UNL     1       3.522   0.025   2.098  0.00  0.00    +0.100 C 
ATOM     27  N   UNL     1       4.444   0.596   2.434  0.00  0.00    -0.191 NA
ENDBRANCH   8  26
TORSDOF 4
