REMARK  Name = ZINC21775336
REMARK  10 active torsions:
REMARK  status: ('A' for Active; 'I' for Inactive)
REMARK    1  A    between atoms: C_1  and  C_2
REMARK    2  A    between atoms: C_5  and  S_9
REMARK    3  A    between atoms: C_6  and  C_8
REMARK    4  A    between atoms: S_9  and  N_12
REMARK    5  A    between atoms: N_12  and  C_13
REMARK    6  A    between atoms: C_13  and  C_14
REMARK    7  A    between atoms: C_14  and  C_16
REMARK    8  A    between atoms: C_14  and  N_27
REMARK    9  A    between atoms: N_25  and  C_26
REMARK   10  A    between atoms: N_30  and  C_33
REMARK                            x       y       z     vdW  Elec       q    Type
REMARK                         _______ _______ _______ _____ _____    ______ ____
ROOT
ATOM      1  C   UNL     1       3.613  -1.794   4.554  0.00  0.00    +0.102 C 
ENDROOT
BRANCH   1   2
ATOM      2  C   UNL     1       2.747  -1.282   3.432  0.00  0.00    -0.029 A 
ATOM      3  C   UNL     1       2.054  -2.172   2.631  0.00  0.00    +0.007 A 
ATOM      4  C   UNL     1       1.265  -1.702   1.603  0.00  0.00    +0.024 A 
ATOM      5  C   UNL     1       1.161  -0.331   1.362  0.00  0.00    +0.033 A 
ATOM      6  C   UNL     1       1.852   0.555   2.170  0.00  0.00    -0.026 A 
ATOM      7  C   UNL     1       2.645   0.075   3.200  0.00  0.00    +0.010 A 
ATOM      8  C   UNL     1       1.769   2.048   1.973  0.00  0.00    +0.038 C 
ATOM      9  C   UNL     1       1.180   2.353   0.594  0.00  0.00    +0.024 C 
ATOM     10  C   UNL     1      -0.066   1.479   0.408  0.00  0.00    +0.105 C 
ATOM     11  N   UNL     1       0.354   0.080   0.303  0.00  0.00    -0.333 N 
ATOM     12  C   UNL     1      -0.806  -0.808   0.149  0.00  0.00    +0.129 C 
ENDBRANCH   1   2
BRANCH   1  13
ATOM     13  N   UNL     1       4.327  -2.999   4.112  0.00  0.00    -0.298 NA
ATOM     14  C   UNL     1       5.110  -3.580   5.212  0.00  0.00    +0.066 C 
ATOM     15  C   UNL     1       5.772  -4.874   4.734  0.00  0.00    -0.064 C 
ATOM     16  N   UNL     1       6.630  -4.584   3.576  0.00  0.00    +0.379 N 
ATOM     17  C   UNL     1       5.846  -4.003   2.477  0.00  0.00    -0.064 C 
ATOM     18  C   UNL     1       5.184  -2.709   2.955  0.00  0.00    +0.066 C 
ATOM     19  C   UNL     1       7.343  -5.790   3.134  0.00  0.00    -0.096 C 
ATOM     20  H   UNL     1       7.381  -3.843   3.887  0.00  0.00    -0.082 HD
ENDBRANCH   1  13
BRANCH   1  21
ATOM     21  C   UNL     1       2.735  -2.134   5.761  0.00  0.00    +0.129 C 
BRANCH  21  22
ATOM     22  N   UNL     1       2.068  -0.920   6.237  0.00  0.00    -0.188 NA
ATOM     23  H   UNL     1       2.510   0.067   6.032  0.00  0.00    +0.148 HD
BRANCH  22  24
ATOM     24  S   UNL     1       0.793  -1.034   7.288  0.00  0.00    +0.059 S 
ATOM     25  O   UNL     1       0.407   0.297   7.604  0.00  0.00    -0.153 OA
ATOM     26  O   UNL     1      -0.110  -1.978   6.730  0.00  0.00    -0.153 OA
BRANCH  24  31
ATOM     27  C   UNL     1       2.902  -3.472  12.389  0.00  0.00    +0.044 C 
ATOM     28  C   UNL     1       2.375  -2.863  11.115  0.00  0.00    -0.050 A 
ATOM     29  C   UNL     1       1.448  -3.549  10.352  0.00  0.00    +0.005 A 
ATOM     30  C   UNL     1       0.965  -2.991   9.184  0.00  0.00    +0.029 A 
ATOM     31  C   UNL     1       1.409  -1.746   8.778  0.00  0.00    +0.108 A 
ATOM     32  C   UNL     1       2.339  -1.062   9.538  0.00  0.00    -0.024 A 
ATOM     33  C   UNL     1       2.818  -1.618  10.709  0.00  0.00    +0.008 A 
ATOM     34  C   UNL     1       2.827   0.292   9.092  0.00  0.00    +0.046 C 
ENDBRANCH  24  31
ENDBRANCH  22  24
ENDBRANCH  21  22
ENDBRANCH   1  21
TORSDOF 6
