REMARK  Name = ZINC13265446
REMARK  14 active torsions:
REMARK  status: ('A' for Active; 'I' for Inactive)
REMARK    1  A    between atoms: C_1  and  C_2
REMARK    2  A    between atoms: C_2  and  N_3
REMARK    3  A    between atoms: N_3  and  C_4
REMARK    4  A    between atoms: N_3  and  S_6
REMARK    5  A    between atoms: C_4  and  C_5
REMARK    6  A    between atoms: S_6  and  C_9
REMARK    7  A    between atoms: C_12  and  O_28
REMARK    8  A    between atoms: C_13  and  N_15
REMARK    9  A    between atoms: N_15  and  S_16
REMARK   10  A    between atoms: S_16  and  C_19
REMARK   11  A    between atoms: C_23  and  C_25
REMARK   12  A    between atoms: O_28  and  C_29
REMARK   13  A    between atoms: C_29  and  C_30
REMARK   14  A    between atoms: C_29  and  C_31
REMARK                            x       y       z     vdW  Elec       q    Type
REMARK                         _______ _______ _______ _____ _____    ______ ____
ROOT
ATOM      1  C   UNL     1       0.297  -3.749  -2.848  0.00  0.00    +0.107 A 
ATOM      2  C   UNL     1       0.422  -3.364  -4.170  0.00  0.00    +0.032 A 
ATOM      3  C   UNL     1      -0.208  -2.219  -4.624  0.00  0.00    +0.049 A 
ATOM      4  C   UNL     1      -0.971  -1.458  -3.754  0.00  0.00    +0.143 A 
ATOM      5  C   UNL     1      -1.093  -1.842  -2.421  0.00  0.00    +0.091 A 
ATOM      6  C   UNL     1      -0.459  -2.991  -1.973  0.00  0.00    +0.056 A 
ENDROOT
BRANCH   1   7
ATOM      7  S   UNL     1       1.103  -5.208  -2.278  0.00  0.00    +0.061 S 
ATOM      8  O   UNL     1       2.192  -5.441  -3.160  0.00  0.00    -0.153 OA
ATOM      9  O   UNL     1       1.277  -5.054  -0.876  0.00  0.00    -0.153 OA
BRANCH   7  10
ATOM     10  N   UNL     1       0.046  -6.465  -2.488  0.00  0.00    -0.177 NA
BRANCH  10  12
ATOM     11  C   UNL     1       0.923  -8.462  -3.595  0.00  0.00    +0.022 C 
ATOM     12  C   UNL     1       0.044  -7.219  -3.745  0.00  0.00    +0.106 C 
ENDBRANCH  10  12
BRANCH  10  13
ATOM     13  C   UNL     1      -0.888  -6.824  -1.418  0.00  0.00    +0.106 C 
ATOM     14  C   UNL     1      -2.231  -6.133  -1.660  0.00  0.00    +0.022 C 
ENDBRANCH  10  13
ENDBRANCH   7  10
ENDBRANCH   1   7
BRANCH   5  15
ATOM     15  N   UNL     1      -1.859  -1.073  -1.536  0.00  0.00    -0.213 N 
ATOM     16  H   UNL     1      -2.664  -0.633  -1.849  0.00  0.00    +0.174 HD
BRANCH  15  17
ATOM     17  S   UNL     1      -1.390  -0.916   0.044  0.00  0.00    +0.072 S 
ATOM     18  O   UNL     1      -1.224  -2.233   0.551  0.00  0.00    -0.150 OA
ATOM     19  O   UNL     1      -2.274   0.023   0.639  0.00  0.00    -0.150 OA
BRANCH  17  20
ATOM     20  C   UNL     1       0.208  -0.173   0.042  0.00  0.00    +0.109 A 
ATOM     21  C   UNL     1       1.340  -0.969  -0.002  0.00  0.00    +0.031 A 
ATOM     22  C   UNL     1       2.597  -0.396  -0.004  0.00  0.00    +0.041 A 
ATOM     23  C   UNL     1       2.733   0.980   0.037  0.00  0.00    +0.138 A 
ATOM     24  C   UNL     1       1.593   1.789   0.081  0.00  0.00    +0.100 A 
ATOM     25  C   UNL     1       0.326   1.200   0.083  0.00  0.00    +0.046 A 
ATOM     26  F   UNL     1       3.962   1.540   0.035  0.00  0.00    -0.205 F 
BRANCH  24  27
ATOM     27  C   UNL     1       1.728   3.258   0.124  0.00  0.00    +0.389 C 
ATOM     28  O   UNL     1       2.831   3.767   0.122  0.00  0.00    -0.240 OA
ATOM     29  O   UNL     1       0.628   4.035   0.166  0.00  0.00    -0.240 OA
ENDBRANCH  24  27
ENDBRANCH  17  20
ENDBRANCH  15  17
ENDBRANCH   5  15
BRANCH   4  30
ATOM     30  O   UNL     1      -1.596  -0.335  -4.200  0.00  0.00    -0.487 OA
BRANCH  30  31
ATOM     31  C   UNL     1      -1.459  -0.024  -5.588  0.00  0.00    +0.167 C 
ATOM     32  C   UNL     1      -2.484  -0.826  -6.394  0.00  0.00    +0.051 C 
ATOM     33  C   UNL     1      -1.699   1.472  -5.802  0.00  0.00    +0.051 C 
ENDBRANCH  30  31
ENDBRANCH   4  30
TORSDOF 10
