REMARK  Name = ZINC33253796
REMARK  16 active torsions:
REMARK  status: ('A' for Active; 'I' for Inactive)
REMARK    1  A    between atoms: C_1  and  C_2
REMARK    2  A    between atoms: C_2  and  N_3
REMARK    3  A    between atoms: C_4  and  C_35
REMARK    4  A    between atoms: C_5  and  C_9
REMARK    5  A    between atoms: C_6  and  C_8
REMARK    6  A    between atoms: C_9  and  C_10
REMARK    7  A    between atoms: C_10  and  N_11
REMARK    8  A    between atoms: N_11  and  C_12
REMARK    9  A    between atoms: N_11  and  C_13
REMARK   10  A    between atoms: C_16  and  N_22
REMARK   11  A    between atoms: C_18  and  C_19
REMARK   12  A    between atoms: N_22  and  S_23
REMARK   13  A    between atoms: S_23  and  C_26
REMARK   14  A    between atoms: C_28  and  C_34
REMARK   15  A    between atoms: C_29  and  C_33
REMARK   16  A    between atoms: C_31  and  C_32
REMARK                            x       y       z     vdW  Elec       q    Type
REMARK                         _______ _______ _______ _____ _____    ______ ____
ROOT
ATOM      1  C   UNL     1       2.633   0.236   0.028  0.00  0.00    +0.044 A 
ATOM      2  C   UNL     1       2.517   1.618   0.099  0.00  0.00    +0.026 A 
ATOM      3  C   UNL     1       1.271   2.210   0.098  0.00  0.00    +0.026 A 
ATOM      4  C   UNL     1       0.121   1.429   0.026  0.00  0.00    +0.049 A 
ATOM      5  C   UNL     1       0.219   0.051  -0.045  0.00  0.00    +0.041 A 
ATOM      6  C   UNL     1       1.478  -0.558  -0.044  0.00  0.00    +0.086 A 
ENDROOT
BRANCH   6   7
ATOM      7  C   UNL     1       1.591  -2.025  -0.120  0.00  0.00    +0.388 C 
ATOM      8  O   UNL     1       2.687  -2.550  -0.120  0.00  0.00    -0.241 OA
ATOM      9  O   UNL     1       0.479  -2.784  -0.190  0.00  0.00    -0.241 OA
ENDBRANCH   6   7
BRANCH   1  10
ATOM     10  N   UNL     1       3.890  -0.360   0.030  0.00  0.00    -0.332 N 
ATOM     11  C   UNL     1       4.590  -0.107   1.296  0.00  0.00    +0.129 C 
BRANCH  10  12
ATOM     12  C   UNL     1       4.690   0.096  -1.115  0.00  0.00    +0.109 C 
BRANCH  12  13
ATOM     13  C   UNL     1       5.957  -0.755  -1.223  0.00  0.00    +0.057 C 
BRANCH  13  16
ATOM     14  N   UNL     1       8.233   0.789  -3.617  0.00  0.00    -0.268 N 
ATOM     15  C   UNL     1       7.740   0.664  -2.367  0.00  0.00    +0.040 A 
ATOM     16  C   UNL     1       6.777  -0.287  -2.397  0.00  0.00    -0.003 A 
ATOM     17  C   UNL     1       6.683  -0.763  -3.709  0.00  0.00    +0.063 A 
ATOM     18  N   UNL     1       7.551  -0.114  -4.442  0.00  0.00    -0.176 NA
ATOM     19  C   UNL     1       5.741  -1.835  -4.195  0.00  0.00    +0.068 C 
ATOM     20  C   UNL     1       8.181   1.443  -1.155  0.00  0.00    +0.065 C 
BRANCH  14  22
ATOM     21  C   UNL     1      10.652   1.017  -3.894  0.00  0.00    +0.029 C 
ATOM     22  C   UNL     1       9.294   1.708  -4.037  0.00  0.00    +0.140 C 
ENDBRANCH  14  22
ENDBRANCH  13  16
ENDBRANCH  12  13
ENDBRANCH  10  12
ENDBRANCH   1  10
BRANCH   4  23
ATOM     23  N   UNL     1      -1.139   2.040   0.020  0.00  0.00    -0.216 N 
ATOM     24  H   UNL     1      -1.899   1.725  -0.710  0.00  0.00    +0.174 HD
BRANCH  23  25
ATOM     25  S   UNL     1      -1.484   3.236   1.112  0.00  0.00    +0.073 S 
ATOM     26  O   UNL     1      -0.442   4.197   1.004  0.00  0.00    -0.150 OA
ATOM     27  O   UNL     1      -2.852   3.573   0.927  0.00  0.00    -0.150 OA
BRANCH  25  28
ATOM     28  C   UNL     1      -1.352   2.529   2.720  0.00  0.00    +0.112 A 
ATOM     29  C   UNL     1      -0.395   2.993   3.603  0.00  0.00    +0.032 A 
ATOM     30  C   UNL     1      -0.295   2.441   4.866  0.00  0.00    -0.046 A 
ATOM     31  C   UNL     1      -1.145   1.417   5.243  0.00  0.00    -0.047 A 
ATOM     32  C   UNL     1      -2.098   0.950   4.358  0.00  0.00    +0.009 A 
ATOM     33  C   UNL     1      -2.202   1.505   3.096  0.00  0.00    -0.024 A 
ATOM     34  C   UNL     1      -3.241   0.995   2.131  0.00  0.00    +0.046 C 
ATOM     35  C   UNL     1      -1.032   0.812   6.618  0.00  0.00    +0.044 C 
ATOM     36  C   UNL     1       0.744   2.950   5.831  0.00  0.00    +0.044 C 
ENDBRANCH  25  28
ENDBRANCH  23  25
ENDBRANCH   4  23
TORSDOF 9
