REMARK  Name = ZINC12036194
REMARK  9 active torsions:
REMARK  status: ('A' for Active; 'I' for Inactive)
REMARK    1  A    between atoms: C_1  and  C_2
REMARK    2  A    between atoms: C_2  and  C_4
REMARK    3  A    between atoms: C_2  and  C_14
REMARK    4  A    between atoms: C_4  and  C_5
REMARK    5  A    between atoms: C_14  and  N_64
REMARK    6  A    between atoms: C_17  and  C_20
REMARK    7  A    between atoms: C_20  and  C_33
REMARK    8  A    between atoms: N_23  and  C_27
REMARK    9  A    between atoms: C_27  and  C_28
REMARK                            x       y       z     vdW  Elec       q    Type
REMARK                         _______ _______ _______ _____ _____    ______ ____
ROOT
ATOM      1  C   UNL     1       8.369  -0.812  -0.396  0.00  0.00    -0.078 C 
ATOM      2  C   UNL     1       9.255  -1.358  -1.518  0.00  0.00    -0.013 C 
ATOM      3  C   UNL     1      10.695  -1.478  -1.011  0.00  0.00    +0.018 C 
ATOM      4  C   UNL     1      10.720  -2.387   0.221  0.00  0.00    -0.013 C 
ATOM      5  C   UNL     1       9.791  -1.812   1.292  0.00  0.00    -0.078 C 
ATOM      6  N   UNL     1       8.417  -1.744   0.750  0.00  0.00    +0.380 N 
ATOM      7  H   UNL     1       8.139  -2.680   0.430  0.00  0.00    -0.082 HD
ENDROOT
BRANCH   3   8
ATOM      8  C   UNL     1      11.576  -2.079  -2.108  0.00  0.00    +0.112 C 
ATOM      9  C   UNL     1      11.473  -1.264  -3.382  0.00  0.00    +0.247 C 
ATOM     10  O   UNL     1      10.479  -1.065  -4.046  0.00  0.00    -0.273 OA
ATOM     11  N   UNL     1      12.717  -0.804  -3.622  0.00  0.00    -0.220 N 
ATOM     12  C   UNL     1      13.583  -1.212  -2.687  0.00  0.00    +0.310 C 
ATOM     13  O   UNL     1      14.764  -0.926  -2.689  0.00  0.00    -0.252 OA
ATOM     14  N   UNL     1      13.000  -1.975  -1.744  0.00  0.00    -0.285 N 
ATOM     15  C   UNL     1      11.189  -3.536  -2.369  0.00  0.00    +0.042 C 
ATOM     16  H   UNL     1      13.433  -2.377  -0.975  0.00  0.00    +0.151 HD
BRANCH  11  17
ATOM     17  C   UNL     1      13.077   0.036  -4.766  0.00  0.00    +0.153 C 
BRANCH  17  18
ATOM     18  C   UNL     1      12.919   1.488  -4.392  0.00  0.00    -0.023 A 
ATOM     19  C   UNL     1      13.976   2.190  -3.843  0.00  0.00    +0.013 A 
ATOM     20  C   UNL     1      13.801   3.494  -3.518  0.00  0.00    +0.045 A 
ATOM     21  S   UNL     1      12.101   3.767  -3.990  0.00  0.00    -0.105 S 
ATOM     22  C   UNL     1      11.741   2.126  -4.595  0.00  0.00    +0.050 A 
ENDBRANCH  17  18
ENDBRANCH  11  17
ENDBRANCH   3   8
BRANCH   6  23
ATOM     23  C   UNL     1       7.481  -1.299   1.802  0.00  0.00    -0.075 C 
BRANCH  23  25
ATOM     24  C   UNL     1       5.117  -0.637   2.266  0.00  0.00    +0.006 C 
ATOM     25  C   UNL     1       6.090  -1.125   1.190  0.00  0.00    -0.026 C 
BRANCH  25  26
ATOM     26  C   UNL     1       5.605  -2.465   0.634  0.00  0.00    +0.036 C 
BRANCH  26  27
ATOM     27  C   UNL     1       4.291  -2.268  -0.077  0.00  0.00    -0.043 A 
ATOM     28  C   UNL     1       4.275  -1.965  -1.426  0.00  0.00    +0.007 A 
ATOM     29  C   UNL     1       3.072  -1.784  -2.082  0.00  0.00    +0.050 A 
ATOM     30  C   UNL     1       1.879  -1.906  -1.389  0.00  0.00    +0.166 A 
ATOM     31  C   UNL     1       1.895  -2.212  -0.030  0.00  0.00    +0.166 A 
ATOM     32  C   UNL     1       3.104  -2.392   0.621  0.00  0.00    +0.053 A 
ATOM     33  O   UNL     1       0.607  -2.276   0.418  0.00  0.00    -0.453 OA
ATOM     34  C   UNL     1      -0.205  -2.410  -0.764  0.00  0.00    +0.466 C 
ATOM     35  O   UNL     1       0.581  -1.778  -1.792  0.00  0.00    -0.453 OA
ENDBRANCH  26  27
ENDBRANCH  25  26
ENDBRANCH  23  25
ENDBRANCH   6  23
TORSDOF 7
