REMARK  Name = ZINC01372634
REMARK  12 active torsions:
REMARK  status: ('A' for Active; 'I' for Inactive)
REMARK    1  A    between atoms: C_1  and  C_2
REMARK    2  A    between atoms: C_2  and  O_3
REMARK    3  A    between atoms: O_3  and  C_4
REMARK    4  A    between atoms: C_9  and  C_10
REMARK    5  A    between atoms: C_10  and  C_12
REMARK    6  A    between atoms: C_10  and  N_22
REMARK    7  A    between atoms: N_14  and  C_15
REMARK    8  A    between atoms: C_15  and  C_16
REMARK    9  A    between atoms: N_22  and  C_23
REMARK   10  A    between atoms: C_28  and  C_29
REMARK   11  A    between atoms: C_30  and  C_32
REMARK   12  A    between atoms: C_32  and  N_33
REMARK                            x       y       z     vdW  Elec       q    Type
REMARK                         _______ _______ _______ _____ _____    ______ ____
ROOT
ATOM      1  C   UNL     1      -3.771  -1.084   0.004  0.00  0.00    +0.201 C 
ENDROOT
BRANCH   1   7
ATOM      2  C   UNL     1      -1.633  -2.388  -0.117  0.00  0.00    +0.126 A 
ATOM      3  C   UNL     1      -0.944  -3.582  -0.275  0.00  0.00    +0.046 A 
ATOM      4  C   UNL     1      -1.638  -4.755  -0.493  0.00  0.00    +0.004 A 
ATOM      5  C   UNL     1      -3.020  -4.742  -0.555  0.00  0.00    +0.001 A 
ATOM      6  C   UNL     1      -3.709  -3.554  -0.398  0.00  0.00    +0.009 A 
ATOM      7  C   UNL     1      -3.019  -2.378  -0.173  0.00  0.00    +0.024 A 
BRANCH   2   8
ATOM      8  O   UNL     1      -0.952  -1.232   0.098  0.00  0.00    -0.492 OA
BRANCH   8  10
ATOM      9  C   UNL     1       1.060   0.073   0.394  0.00  0.00    +0.048 C 
ATOM     10  C   UNL     1       0.474  -1.318   0.144  0.00  0.00    +0.225 C 
ENDBRANCH   8  10
ENDBRANCH   2   8
ENDBRANCH   1   7
BRANCH   1  11
ATOM     11  C   UNL     1      -3.958  -0.424  -1.338  0.00  0.00    +0.239 C 
ATOM     12  O   UNL     1      -4.919  -0.704  -2.023  0.00  0.00    -0.273 OA
ATOM     13  N   UNL     1      -3.058   0.478  -1.777  0.00  0.00    -0.309 N 
ATOM     14  H   UNL     1      -2.289   0.702  -1.229  0.00  0.00    +0.149 HD
BRANCH  13  15
ATOM     15  C   UNL     1      -3.239   1.119  -3.081  0.00  0.00    +0.139 C 
BRANCH  15  16
ATOM     16  C   UNL     1      -2.103   2.078  -3.332  0.00  0.00    -0.030 A 
ATOM     17  C   UNL     1      -2.206   3.394  -2.923  0.00  0.00    +0.005 A 
ATOM     18  C   UNL     1      -1.164   4.273  -3.153  0.00  0.00    +0.000 A 
ATOM     19  C   UNL     1      -0.019   3.835  -3.792  0.00  0.00    +0.000 A 
ATOM     20  C   UNL     1       0.084   2.519  -4.201  0.00  0.00    +0.000 A 
ATOM     21  C   UNL     1      -0.956   1.639  -3.967  0.00  0.00    +0.005 A 
ENDBRANCH  15  16
ENDBRANCH  13  15
ENDBRANCH   1  11
BRANCH   1  22
ATOM     22  N   UNL     1      -5.081  -1.358   0.599  0.00  0.00    -0.253 N 
ATOM     23  C   UNL     1      -5.161  -1.933   1.816  0.00  0.00    +0.242 C 
ATOM     24  O   UNL     1      -4.149  -2.222   2.418  0.00  0.00    -0.273 OA
BRANCH  22  25
ATOM     25  C   UNL     1      -6.250  -1.024  -0.095  0.00  0.00    +0.040 A 
ATOM     26  C   UNL     1      -6.983  -2.013  -0.739  0.00  0.00    +0.024 A 
ATOM     27  C   UNL     1      -8.136  -1.680  -1.423  0.00  0.00    +0.002 A 
ATOM     28  C   UNL     1      -8.559  -0.364  -1.467  0.00  0.00    +0.000 A 
ATOM     29  C   UNL     1      -7.831   0.622  -0.828  0.00  0.00    +0.005 A 
ATOM     30  C   UNL     1      -6.681   0.295  -0.137  0.00  0.00    -0.029 A 
ATOM     31  C   UNL     1      -5.891   1.369   0.566  0.00  0.00    +0.045 C 
ENDBRANCH  22  25
BRANCH  23  32
ATOM     32  C   UNL     1      -6.509  -2.215   2.429  0.00  0.00    +0.242 C 
BRANCH  32  33
ATOM     33  N   UNL     1      -6.327  -2.837   3.743  0.00  0.00    -0.235 N 
ATOM     34  C   UNL     1      -6.225  -4.181   4.010  0.00  0.00    +0.090 A 
ATOM     35  C   UNL     1      -6.253  -5.327   3.223  0.00  0.00    +0.029 A 
ATOM     36  C   UNL     1      -6.121  -6.556   3.807  0.00  0.00    +0.002 A 
ATOM     37  C   UNL     1      -5.960  -6.671   5.182  0.00  0.00    +0.002 A 
ATOM     38  C   UNL     1      -5.930  -5.562   5.976  0.00  0.00    +0.032 A 
ATOM     39  C   UNL     1      -6.062  -4.291   5.402  0.00  0.00    +0.113 A 
ATOM     40  N   UNL     1      -6.071  -3.044   5.914  0.00  0.00    -0.129 NA
ATOM     41  N   UNL     1      -6.217  -2.176   4.976  0.00  0.00    -0.064 NA
ENDBRANCH  32  33
ENDBRANCH  23  32
ENDBRANCH   1  22
TORSDOF 10
