REMARK  Name = ZINC20886105
REMARK  8 active torsions:
REMARK  status: ('A' for Active; 'I' for Inactive)
REMARK    1  A    between atoms: C_1  and  O_2
REMARK    2  A    between atoms: O_2  and  C_3
REMARK    3  A    between atoms: C_5  and  C_13
REMARK    4  A    between atoms: C_7  and  O_11
REMARK    5  A    between atoms: C_8  and  O_9
REMARK    6  A    between atoms: O_9  and  C_10
REMARK    7  A    between atoms: O_11  and  C_12
REMARK    8  A    between atoms: C_18  and  C_28
REMARK                            x       y       z     vdW  Elec       q    Type
REMARK                         _______ _______ _______ _____ _____    ______ ____
ROOT
ATOM      1  C   UNL     1       3.980   2.393   0.912  0.00  0.00    +0.032 C 
ATOM      2  C   UNL     1       3.540   2.672  -0.524  0.00  0.00    +0.059 C 
ATOM      3  C   UNL     1       2.051   2.406  -0.673  0.00  0.00    +0.017 C 
ATOM      4  C   UNL     1       1.450   1.455   0.062  0.00  0.00    +0.036 C 
ATOM      5  C   UNL     1      -0.013   1.086   0.008  0.00  0.00    +0.138 C 
ATOM      6  N   UNL     1      -0.737   1.657  -1.107  0.00  0.00    -0.331 N 
ATOM      7  C   UNL     1      -0.911   3.036  -1.220  0.00  0.00    +0.049 A 
ATOM      8  C   UNL     1      -2.161   3.619  -1.088  0.00  0.00    +0.025 A 
ATOM      9  C   UNL     1      -2.271   4.999  -1.093  0.00  0.00    +0.002 A 
ATOM     10  C   UNL     1      -1.145   5.790  -1.230  0.00  0.00    +0.002 A 
ATOM     11  C   UNL     1       0.103   5.210  -1.383  0.00  0.00    +0.025 A 
ATOM     12  C   UNL     1       0.212   3.830  -1.397  0.00  0.00    +0.052 A 
ATOM     13  N   UNL     1       1.425   3.181  -1.595  0.00  0.00    -0.316 N 
ATOM     14  C   UNL     1       2.198   0.696   0.994  0.00  0.00    +0.163 C 
ATOM     15  O   UNL     1       1.633  -0.170   1.632  0.00  0.00    -0.292 OA
ATOM     16  C   UNL     1       3.663   0.924   1.220  0.00  0.00    +0.088 C 
ATOM     17  H   UNL     1      -1.159   1.001  -1.883  0.00  0.00    +0.147 HD
ATOM     18  H   UNL     1       1.878   3.332  -2.586  0.00  0.00    +0.152 HD
ENDROOT
BRANCH   5  19
ATOM     19  C   UNL     1      -0.669   1.545   1.284  0.00  0.00    +0.002 A 
ATOM     20  C   UNL     1      -0.169   2.424   2.168  0.00  0.00    +0.089 A 
ATOM     21  N   UNL     1      -1.048   2.596   3.203  0.00  0.00    -0.360 N 
ATOM     22  H   UNL     1      -0.804   3.290   4.021  0.00  0.00    +0.165 HD
ATOM     23  C   UNL     1      -2.159   1.807   3.010  0.00  0.00    +0.047 A 
ATOM     24  C   UNL     1      -1.970   1.114   1.800  0.00  0.00    +0.005 A 
ATOM     25  C   UNL     1      -2.949   0.228   1.344  0.00  0.00    +0.010 A 
ATOM     26  C   UNL     1      -4.086   0.038   2.078  0.00  0.00    +0.001 A 
ATOM     27  C   UNL     1      -4.277   0.720   3.272  0.00  0.00    +0.002 A 
ATOM     28  C   UNL     1      -3.324   1.598   3.740  0.00  0.00    +0.026 A 
ENDBRANCH   5  19
BRANCH   1  31
ATOM     29  C   UNL     1       7.287   3.786   2.096  0.00  0.00    +0.165 A 
ATOM     30  C   UNL     1       5.925   3.559   1.966  0.00  0.00    +0.053 A 
ATOM     31  C   UNL     1       5.461   2.635   1.050  0.00  0.00    -0.036 A 
ATOM     32  C   UNL     1       6.351   1.928   0.263  0.00  0.00    +0.053 A 
ATOM     33  C   UNL     1       7.714   2.152   0.383  0.00  0.00    +0.165 A 
ATOM     34  C   UNL     1       8.185   3.081   1.303  0.00  0.00    +0.204 A 
BRANCH  29  36
ATOM     35  C   UNL     1       6.763   5.384   3.778  0.00  0.00    +0.277 C 
ATOM     36  O   UNL     1       7.743   4.696   2.998  0.00  0.00    -0.491 OA
ENDBRANCH  29  36
BRANCH  34  37
ATOM     37  O   UNL     1       9.523   3.301   1.427  0.00  0.00    -0.488 OA
ATOM     38  C   UNL     1      10.228   2.494   2.373  0.00  0.00    +0.277 C 
ENDBRANCH  34  37
BRANCH  33  39
ATOM     39  O   UNL     1       8.589   1.461  -0.395  0.00  0.00    -0.491 OA
ATOM     40  C   UNL     1       8.034   0.522  -1.318  0.00  0.00    +0.277 C 
ENDBRANCH  33  39
ENDBRANCH   1  31
TORSDOF 5
