REMARK  Name = ZINC64844235
REMARK  14 active torsions:
REMARK  status: ('A' for Active; 'I' for Inactive)
REMARK    1  A    between atoms: C_1  and  C_2
REMARK    2  A    between atoms: C_2  and  N_3
REMARK    3  A    between atoms: C_4  and  C_34
REMARK    4  A    between atoms: C_5  and  C_9
REMARK    5  A    between atoms: C_6  and  C_8
REMARK    6  A    between atoms: C_9  and  C_10
REMARK    7  A    between atoms: C_10  and  N_11
REMARK    8  A    between atoms: N_11  and  C_12
REMARK    9  A    between atoms: C_14  and  N_22
REMARK   10  A    between atoms: C_16  and  C_19
REMARK   11  A    between atoms: N_22  and  S_23
REMARK   12  A    between atoms: S_23  and  C_26
REMARK   13  A    between atoms: C_29  and  O_32
REMARK   14  A    between atoms: O_32  and  C_33
REMARK                            x       y       z     vdW  Elec       q    Type
REMARK                         _______ _______ _______ _____ _____    ______ ____
ROOT
ATOM      1  N   UNL     1       5.644  -0.532   4.284  0.00  0.00    -0.316 N 
ATOM      2  C   UNL     1       5.478  -1.436   3.143  0.00  0.00    +0.130 C 
ATOM      3  C   UNL     1       5.757  -1.048   5.565  0.00  0.00    +0.144 A 
ATOM      4  C   UNL     1       7.021  -1.386   6.065  0.00  0.00    +0.089 A 
ATOM      5  C   UNL     1       7.123  -1.899   7.346  0.00  0.00    +0.044 A 
ATOM      6  C   UNL     1       5.944  -2.060   8.095  0.00  0.00    +0.083 A 
ATOM      7  C   UNL     1       4.722  -1.698   7.524  0.00  0.00    +0.128 A 
ATOM      8  N   UNL     1       4.669  -1.208   6.303  0.00  0.00    -0.238 NA
ENDROOT
BRANCH   6   9
ATOM      9  C   UNL     1       5.997  -2.602   9.462  0.00  0.00    +0.388 C 
ATOM     10  O   UNL     1       7.072  -2.917   9.954  0.00  0.00    -0.241 OA
ATOM     11  O   UNL     1       4.966  -2.738  10.107  0.00  0.00    -0.241 OA
ENDBRANCH   6   9
BRANCH   4  12
ATOM     12  N   UNL     1       8.166  -1.208   5.279  0.00  0.00    -0.213 N 
ATOM     13  H   UNL     1       8.227  -0.451   4.677  0.00  0.00    +0.174 HD
BRANCH  12  14
ATOM     14  S   UNL     1       9.415  -2.291   5.379  0.00  0.00    +0.072 S 
ATOM     15  O   UNL     1      10.403  -1.857   4.454  0.00  0.00    -0.150 OA
ATOM     16  O   UNL     1       9.691  -2.466   6.762  0.00  0.00    -0.150 OA
BRANCH  14  17
ATOM     17  C   UNL     1       8.813  -3.837   4.785  0.00  0.00    +0.109 A 
ATOM     18  C   UNL     1       8.230  -4.733   5.662  0.00  0.00    +0.032 A 
ATOM     19  C   UNL     1       7.758  -5.946   5.199  0.00  0.00    +0.047 A 
ATOM     20  C   UNL     1       7.869  -6.264   3.853  0.00  0.00    +0.120 A 
ATOM     21  C   UNL     1       8.454  -5.363   2.976  0.00  0.00    +0.047 A 
ATOM     22  C   UNL     1       8.920  -4.149   3.443  0.00  0.00    +0.032 A 
BRANCH  20  23
ATOM     23  O   UNL     1       7.405  -7.457   3.396  0.00  0.00    -0.495 OA
ATOM     24  C   UNL     1       7.553  -7.717   1.998  0.00  0.00    +0.277 C 
ENDBRANCH  20  23
ENDBRANCH  14  17
ENDBRANCH  12  14
ENDBRANCH   4  12
BRANCH   1  25
ATOM     25  C   UNL     1       5.692   0.916   4.070  0.00  0.00    +0.111 C 
BRANCH  25  26
ATOM     26  C   UNL     1       4.276   1.490   4.149  0.00  0.00    +0.057 C 
BRANCH  26  29
ATOM     27  N   UNL     1       4.316   4.939   2.967  0.00  0.00    -0.268 N 
ATOM     28  C   UNL     1       4.228   3.613   2.737  0.00  0.00    +0.040 A 
ATOM     29  C   UNL     1       4.325   2.980   3.929  0.00  0.00    -0.003 A 
ATOM     30  C   UNL     1       4.478   3.954   4.922  0.00  0.00    +0.063 A 
ATOM     31  N   UNL     1       4.479   5.128   4.345  0.00  0.00    -0.176 NA
ATOM     32  C   UNL     1       4.624   3.695   6.399  0.00  0.00    +0.068 C 
ATOM     33  C   UNL     1       4.051   2.953   1.393  0.00  0.00    +0.065 C 
BRANCH  27  35
ATOM     34  C   UNL     1       5.670   6.289   1.442  0.00  0.00    +0.029 C 
ATOM     35  C   UNL     1       4.258   5.995   1.953  0.00  0.00    +0.140 C 
ENDBRANCH  27  35
ENDBRANCH  26  29
ENDBRANCH  25  26
ENDBRANCH   1  25
TORSDOF 9
