REMARK  Name = ZINC20923363
REMARK  7 active torsions:
REMARK  status: ('A' for Active; 'I' for Inactive)
REMARK    1  A    between atoms: C_6  and  N_7
REMARK    2  A    between atoms: N_7  and  C_8
REMARK    3  A    between atoms: N_7  and  S_15
REMARK    4  A    between atoms: C_8  and  C_9
REMARK    5  A    between atoms: N_11  and  C_12
REMARK    6  A    between atoms: S_15  and  C_18
REMARK    7  A    between atoms: C_22  and  N_24
REMARK                            x       y       z     vdW  Elec       q    Type
REMARK                         _______ _______ _______ _____ _____    ______ ____
ROOT
ATOM      1  N   UNL     1      -3.603   1.769   0.019  0.00  0.00    -0.194 N 
ENDROOT
BRANCH   1   7
ATOM      2  C   UNL     1      -5.397   2.623   1.388  0.00  0.00    +0.026 A 
ATOM      3  C   UNL     1      -5.849   3.117   2.596  0.00  0.00    +0.017 A 
ATOM      4  C   UNL     1      -4.971   3.275   3.653  0.00  0.00    +0.018 A 
ATOM      5  C   UNL     1      -3.638   2.934   3.504  0.00  0.00    +0.017 A 
ATOM      6  C   UNL     1      -3.181   2.434   2.301  0.00  0.00    +0.026 A 
ATOM      7  C   UNL     1      -4.061   2.274   1.238  0.00  0.00    +0.052 A 
ATOM      8 BR   UNL     1      -5.592   3.958   5.303  0.00  0.00    -0.050 Br
ENDBRANCH   1   7
BRANCH   1   9
ATOM      9  S   UNL     1      -3.786   2.656  -1.367  0.00  0.00    +0.075 S 
ATOM     10  O   UNL     1      -4.032   3.996  -0.962  0.00  0.00    -0.150 OA
ATOM     11  O   UNL     1      -2.706   2.304  -2.221  0.00  0.00    -0.150 OA
BRANCH   9  12
ATOM     12  C   UNL     1      -5.257   2.091  -2.157  0.00  0.00    +0.111 A 
ATOM     13  C   UNL     1      -5.215   0.983  -2.983  0.00  0.00    +0.030 A 
ATOM     14  C   UNL     1      -6.369   0.536  -3.599  0.00  0.00    +0.024 A 
ATOM     15  C   UNL     1      -7.564   1.204  -3.396  0.00  0.00    +0.071 A 
ATOM     16  C   UNL     1      -7.604   2.315  -2.573  0.00  0.00    +0.146 A 
ATOM     17  C   UNL     1      -6.450   2.758  -1.954  0.00  0.00    +0.063 A 
ATOM     18 CL   UNL     1      -9.012   0.647  -4.174  0.00  0.00    -0.081 Cl
BRANCH  16  19
ATOM     19  N   UNL     1      -8.881   3.030  -2.356  0.00  0.00    +0.058 N 
ATOM     20  O   UNL     1      -8.916   4.008  -1.631  0.00  0.00    -0.126 OA
ATOM     21  O   UNL     1      -9.898   2.639  -2.901  0.00  0.00    -0.126 OA
ENDBRANCH  16  19
ENDBRANCH   9  12
ENDBRANCH   1   9
BRANCH   1  22
ATOM     22  C   UNL     1      -2.959   0.454  -0.033  0.00  0.00    +0.227 C 
BRANCH  22  23
ATOM     23  C   UNL     1      -1.495   0.598   0.293  0.00  0.00    +0.232 C 
ATOM     24  O   UNL     1      -1.034   1.692   0.545  0.00  0.00    -0.274 OA
ATOM     25  N   UNL     1      -0.697  -0.488   0.306  0.00  0.00    -0.311 N 
ATOM     26  H   UNL     1      -1.115  -1.480   0.083  0.00  0.00    +0.149 HD
BRANCH  25  27
ATOM     27  C   UNL     1       0.728  -0.347   0.618  0.00  0.00    +0.073 C 
ATOM     28  C   UNL     1       1.721  -1.114  -0.257  0.00  0.00    +0.024 C 
ATOM     29  C   UNL     1       1.453  -1.572   1.179  0.00  0.00    +0.024 C 
ENDBRANCH  25  27
ENDBRANCH  22  23
ENDBRANCH   1  22
TORSDOF 7
