REMARK  Name = ZINC44440275
REMARK  9 active torsions:
REMARK  status: ('A' for Active; 'I' for Inactive)
REMARK    1  A    between atoms: C_1  and  O_2
REMARK    2  A    between atoms: O_2  and  C_3
REMARK    3  A    between atoms: C_6  and  N_11
REMARK    4  A    between atoms: C_8  and  O_9
REMARK    5  A    between atoms: O_9  and  C_10
REMARK    6  A    between atoms: C_13  and  C_18
REMARK    7  A    between atoms: C_20  and  C_23
REMARK    8  A    between atoms: C_26  and  O_30
REMARK    9  A    between atoms: O_30  and  C_31
REMARK                            x       y       z     vdW  Elec       q    Type
REMARK                         _______ _______ _______ _____ _____    ______ ____
ROOT
ATOM      1  N   UNL     1      -4.896  -2.579   0.034  0.00  0.00    -0.271 N 
ATOM      2  C   UNL     1      -6.189  -1.894   0.143  0.00  0.00    +0.127 C 
ATOM      3  C   UNL     1      -7.242  -2.923  -0.323  0.00  0.00    +0.104 C 
ATOM      4  C   UNL     1      -6.526  -4.262  -0.028  0.00  0.00    +0.111 C 
ATOM      5  C   UNL     1      -5.055  -3.910  -0.065  0.00  0.00    +0.221 C 
ATOM      6  O   UNL     1      -4.152  -4.713  -0.165  0.00  0.00    -0.275 OA
ENDROOT
BRANCH   1  10
ATOM      7  C   UNL     1      -1.196  -0.649   0.010  0.00  0.00    +0.162 A 
ATOM      8  C   UNL     1      -1.257  -2.033   0.023  0.00  0.00    +0.051 A 
ATOM      9  C   UNL     1      -2.482  -2.673   0.031  0.00  0.00    +0.027 A 
ATOM     10  C   UNL     1      -3.654  -1.929   0.026  0.00  0.00    +0.040 A 
ATOM     11  C   UNL     1      -3.597  -0.542   0.012  0.00  0.00    +0.073 A 
ATOM     12  C   UNL     1      -2.370   0.099   0.010  0.00  0.00    +0.163 A 
BRANCH   7  14
ATOM     13  C   UNL     1       1.174  -0.851   0.003  0.00  0.00    +0.277 C 
ATOM     14  O   UNL     1       0.011  -0.021   0.003  0.00  0.00    -0.491 OA
ENDBRANCH   7  14
BRANCH  12  15
ATOM     15  O   UNL     1      -2.311   1.457   0.003  0.00  0.00    -0.491 OA
ATOM     16  C   UNL     1      -3.555   2.160   0.004  0.00  0.00    +0.277 C 
ENDBRANCH  12  15
ENDBRANCH   1  10
BRANCH   3  17
ATOM     17  C   UNL     1      -7.525  -2.775  -1.796  0.00  0.00    +0.233 A 
ATOM     18  N   UNL     1      -8.683  -2.495  -2.323  0.00  0.00    -0.191 NA
ATOM     19  C   UNL     1      -8.576  -2.438  -3.663  0.00  0.00    +0.202 A 
ATOM     20  N   UNL     1      -7.333  -2.685  -3.995  0.00  0.00    -0.056 NA
ATOM     21  O   UNL     1      -6.629  -2.904  -2.782  0.00  0.00    -0.337 OA
BRANCH  19  22
ATOM     22  C   UNL     1      -9.682  -2.144  -4.607  0.00  0.00    +0.025 A 
ATOM     23  C   UNL     1     -10.965  -1.892  -4.123  0.00  0.00    +0.015 A 
ATOM     24  C   UNL     1     -11.992  -1.619  -5.002  0.00  0.00    +0.049 A 
ATOM     25  C   UNL     1     -11.750  -1.595  -6.369  0.00  0.00    +0.155 A 
ATOM     26  C   UNL     1     -10.472  -1.847  -6.856  0.00  0.00    +0.165 A 
ATOM     27  C   UNL     1      -9.439  -2.115  -5.979  0.00  0.00    +0.053 A 
ATOM     28  F   UNL     1     -10.240  -1.823  -8.186  0.00  0.00    -0.202 F 
BRANCH  25  29
ATOM     29  O   UNL     1     -12.764  -1.326  -7.232  0.00  0.00    -0.492 OA
ATOM     30  C   UNL     1     -14.052  -1.078  -6.664  0.00  0.00    +0.277 C 
ENDBRANCH  25  29
ENDBRANCH  19  22
ENDBRANCH   3  17
TORSDOF 6
