REMARK  Name = ZINC19733931
REMARK  3 active torsions:
REMARK  status: ('A' for Active; 'I' for Inactive)
REMARK    1  A    between atoms: C_1  and  C_2
REMARK    2  A    between atoms: C_9  and  C_14
REMARK    3  A    between atoms: C_20  and  N_23
REMARK                            x       y       z     vdW  Elec       q    Type
REMARK                         _______ _______ _______ _____ _____    ______ ____
ROOT
ATOM      1  C   UNL     1       1.905   1.882   1.378  0.00  0.00    +0.062 C 
ATOM      2  C   UNL     1       1.252   2.016   0.001  0.00  0.00    +0.256 C 
ATOM      3  C   UNL     1       2.143   1.389  -1.041  0.00  0.00    +0.258 C 
ATOM      4  O   UNL     1       2.971   2.060  -1.619  0.00  0.00    -0.271 OA
ATOM      5  N   UNL     1       2.015   0.075  -1.328  0.00  0.00    -0.280 N 
ATOM      6  C   UNL     1       1.026  -0.671  -0.671  0.00  0.00    +0.076 A 
ATOM      7  C   UNL     1       1.059  -2.054  -0.686  0.00  0.00    +0.037 A 
ATOM      8  C   UNL     1       0.066  -2.777  -0.028  0.00  0.00    +0.004 A 
ATOM      9  C   UNL     1      -0.954  -2.105   0.643  0.00  0.00    +0.014 A 
ATOM     10  C   UNL     1      -0.984  -0.725   0.656  0.00  0.00    +0.048 A 
ATOM     11  C   UNL     1       0.002  -0.004   0.002  0.00  0.00    +0.143 A 
ATOM     12  O   UNL     1      -0.016   1.356   0.009  0.00  0.00    -0.478 OA
ATOM     13  H   UNL     1       2.680  -0.394  -2.068  0.00  0.00    +0.155 HD
ENDROOT
BRANCH   8  14
ATOM     14  C   UNL     1       0.095  -4.261  -0.040  0.00  0.00    +0.090 A 
ATOM     15  C   UNL     1      -0.860  -5.082   0.478  0.00  0.00    +0.121 A 
ATOM     16  N   UNL     1      -0.448  -6.367   0.258  0.00  0.00    -0.305 N 
ATOM     17  C   UNL     1      -1.005  -7.578   0.561  0.00  0.00    +0.093 A 
ATOM     18  C   UNL     1      -0.382  -8.727   0.226  0.00  0.00    +0.020 A 
ATOM     19  C   UNL     1       0.853  -8.697  -0.442  0.00  0.00    +0.028 A 
ATOM     20  C   UNL     1       1.423  -7.496  -0.753  0.00  0.00    +0.068 A 
ATOM     21  C   UNL     1       0.756  -6.300  -0.394  0.00  0.00    +0.159 A 
ATOM     22  N   UNL     1       1.064  -5.024  -0.570  0.00  0.00    -0.226 NA
BRANCH  20  23
ATOM     23  N   UNL     1       2.651  -7.447  -1.417  0.00  0.00    -0.355 N 
ATOM     24  H   UNL     1       3.105  -6.476  -1.664  0.00  0.00    +0.142 HD
ATOM     25  H   UNL     1       3.164  -8.381  -1.692  0.00  0.00    +0.142 HD
ENDBRANCH  20  23
ENDBRANCH   8  14
TORSDOF 2
