REMARK  Name = ZINC16599993
REMARK  11 active torsions:
REMARK  status: ('A' for Active; 'I' for Inactive)
REMARK    1  A    between atoms: C_1  and  N_61
REMARK    2  A    between atoms: C_2  and  N_61
REMARK    3  A    between atoms: C_3  and  C_5
REMARK    4  A    between atoms: C_3  and  C_29
REMARK    5  A    between atoms: C_3  and  N_61
REMARK    6  A    between atoms: C_5  and  N_6
REMARK    7  A    between atoms: C_7  and  C_9
REMARK    8  A    between atoms: C_13  and  S_15
REMARK    9  A    between atoms: S_15  and  N_18
REMARK   10  A    between atoms: N_18  and  C_19
REMARK   11  A    between atoms: C_19  and  C_20
REMARK                            x       y       z     vdW  Elec       q    Type
REMARK                         _______ _______ _______ _____ _____    ______ ____
ROOT
ATOM      1  C   UNL     1       0.997  -0.477  -1.199  0.00  0.00    +0.039 A 
ATOM      2  C   UNL     1       1.558  -1.750  -1.318  0.00  0.00    +0.013 A 
ATOM      3  C   UNL     1       2.895  -1.885  -1.629  0.00  0.00    +0.003 A 
ATOM      4  C   UNL     1       3.682  -0.762  -1.817  0.00  0.00    +0.028 A 
ATOM      5  C   UNL     1       3.133   0.502  -1.695  0.00  0.00    +0.106 A 
ATOM      6  C   UNL     1       1.797   0.651  -1.385  0.00  0.00    +0.041 A 
ENDROOT
BRANCH   1   8
ATOM      7  N   UNL     1      -1.205  -1.417  -0.689  0.00  0.00    -0.313 N 
ATOM      8  C   UNL     1      -0.437  -0.325  -0.872  0.00  0.00    +0.244 C 
ATOM      9  O   UNL     1      -0.922   0.784  -0.770  0.00  0.00    -0.270 OA
ATOM     10  H   UNL     1      -0.818  -2.302  -0.771  0.00  0.00    +0.149 HD
BRANCH   7  11
ATOM     11  C   UNL     1      -2.626  -1.266  -0.365  0.00  0.00    +0.094 C 
BRANCH  11  12
ATOM     12  C   UNL     1      -3.289  -2.645  -0.325  0.00  0.00    -0.021 C 
BRANCH  12  13
ATOM     13  C   UNL     1      -4.727  -2.498   0.102  0.00  0.00    -0.059 A 
ATOM     14  C   UNL     1      -5.045  -1.729   1.206  0.00  0.00    +0.002 A 
ATOM     15  C   UNL     1      -6.364  -1.591   1.596  0.00  0.00    +0.000 A 
ATOM     16  C   UNL     1      -7.364  -2.231   0.887  0.00  0.00    +0.000 A 
ATOM     17  C   UNL     1      -7.046  -3.004  -0.213  0.00  0.00    +0.000 A 
ATOM     18  C   UNL     1      -5.727  -3.138  -0.606  0.00  0.00    +0.002 A 
ENDBRANCH  12  13
BRANCH  12  21
ATOM     19  C   UNL     1      -2.766  -3.024   2.008  0.00  0.00    -0.096 C 
ATOM     20  C   UNL     1      -3.002  -4.903   0.499  0.00  0.00    -0.096 C 
ATOM     21  N   UNL     1      -2.550  -3.501   0.626  0.00  0.00    +0.382 N 
ATOM     22  H   UNL     1      -1.548  -3.453   0.409  0.00  0.00    -0.082 HD
ENDBRANCH  12  21
ENDBRANCH  11  12
ENDBRANCH   7  11
ENDBRANCH   1   8
BRANCH   5  23
ATOM     23  S   UNL     1       4.144   1.925  -1.937  0.00  0.00    +0.059 S 
ATOM     24  O   UNL     1       3.521   2.990  -1.231  0.00  0.00    -0.153 OA
ATOM     25  O   UNL     1       5.482   1.522  -1.681  0.00  0.00    -0.153 OA
BRANCH  23  26
ATOM     26  N   UNL     1       4.065   2.314  -3.545  0.00  0.00    -0.186 NA
ATOM     27  H   UNL     1       4.860   2.253  -4.098  0.00  0.00    +0.148 HD
BRANCH  26  28
ATOM     28  C   UNL     1       2.796   2.749  -4.132  0.00  0.00    +0.141 C 
BRANCH  28  29
ATOM     29  C   UNL     1       3.055   3.384  -5.474  0.00  0.00    -0.028 A 
ATOM     30  C   UNL     1       3.289   4.744  -5.560  0.00  0.00    +0.009 A 
ATOM     31  C   UNL     1       3.533   5.330  -6.788  0.00  0.00    +0.050 A 
ATOM     32  C   UNL     1       3.531   4.557  -7.938  0.00  0.00    +0.166 A 
ATOM     33  C   UNL     1       3.290   3.188  -7.852  0.00  0.00    +0.167 A 
ATOM     34  C   UNL     1       3.052   2.607  -6.617  0.00  0.00    +0.054 A 
ATOM     35  O   UNL     1       3.341   2.656  -9.108  0.00  0.00    -0.453 OA
ATOM     36  C   UNL     1       3.210   3.775 -10.005  0.00  0.00    +0.466 C 
ATOM     37  O   UNL     1       3.733   4.883  -9.248  0.00  0.00    -0.453 OA
ENDBRANCH  28  29
ENDBRANCH  26  28
ENDBRANCH  23  26
ENDBRANCH   5  23
TORSDOF 9
