REMARK  Name = ZINC08694363
REMARK  8 active torsions:
REMARK  status: ('A' for Active; 'I' for Inactive)
REMARK    1  A    between atoms: C_1  and  O_2
REMARK    2  A    between atoms: O_2  and  C_3
REMARK    3  A    between atoms: C_6  and  C_11
REMARK    4  A    between atoms: C_8  and  O_9
REMARK    5  A    between atoms: O_9  and  C_10
REMARK    6  A    between atoms: C_14  and  C_39
REMARK    7  A    between atoms: C_19  and  C_22
REMARK    8  A    between atoms: C_26  and  N_28
REMARK                            x       y       z     vdW  Elec       q    Type
REMARK                         _______ _______ _______ _____ _____    ______ ____
ROOT
ATOM      1  C   UNL     1      -2.328   5.445   0.045  0.00  0.00    +0.136 C 
ATOM      2  C   UNL     1      -2.251   6.984   0.058  0.00  0.00    +0.087 C 
ATOM      3  C   UNL     1      -0.767   7.275   0.045  0.00  0.00    +0.075 C 
ATOM      4  N   UNL     1      -0.110   6.163   0.033  0.00  0.00    -0.181 NA
ATOM      5  N   UNL     1      -0.917   5.027   0.035  0.00  0.00    -0.193 N 
ATOM      6  C   UNL     1      -0.466   3.719   0.025  0.00  0.00    +0.181 A 
ATOM      7  N   UNL     1       0.774   3.263   0.011  0.00  0.00    -0.223 NA
ATOM      8  C   UNL     1       1.028   1.962   0.003  0.00  0.00    +0.080 A 
ATOM      9  C   UNL     1      -0.013   1.076   0.008  0.00  0.00    +0.077 A 
ATOM     10  S   UNL     1      -1.405   2.198   0.019  0.00  0.00    -0.058 S 
ENDROOT
BRANCH   1  14
ATOM     11  C   UNL     1      -4.292   4.016   3.564  0.00  0.00    +0.162 A 
ATOM     12  C   UNL     1      -2.986   4.474   3.634  0.00  0.00    +0.050 A 
ATOM     13  C   UNL     1      -2.352   4.930   2.493  0.00  0.00    +0.009 A 
ATOM     14  C   UNL     1      -3.022   4.941   1.284  0.00  0.00    -0.021 A 
ATOM     15  C   UNL     1      -4.325   4.486   1.208  0.00  0.00    +0.055 A 
ATOM     16  C   UNL     1      -4.965   4.022   2.346  0.00  0.00    +0.162 A 
BRANCH  11  18
ATOM     17  C   UNL     1      -4.164   3.585   5.900  0.00  0.00    +0.277 C 
ATOM     18  O   UNL     1      -4.916   3.562   4.685  0.00  0.00    -0.491 OA
ENDBRANCH  11  18
BRANCH  16  19
ATOM     19  O   UNL     1      -6.247   3.574   2.273  0.00  0.00    -0.491 OA
ATOM     20  C   UNL     1      -6.874   3.609   0.990  0.00  0.00    +0.277 C 
ENDBRANCH  16  19
ENDBRANCH   1  14
BRANCH   8  21
ATOM     21  C   UNL     1       2.428   1.473  -0.012  0.00  0.00    +0.003 A 
ATOM     22  C   UNL     1       2.690   0.108  -0.126  0.00  0.00    +0.010 A 
ATOM     23  C   UNL     1       3.994  -0.346  -0.139  0.00  0.00    +0.002 A 
ATOM     24  C   UNL     1       5.042   0.550  -0.040  0.00  0.00    +0.024 A 
ATOM     25  C   UNL     1       4.790   1.911   0.074  0.00  0.00    +0.045 A 
ATOM     26  C   UNL     1       3.484   2.375   0.082  0.00  0.00    +0.034 A 
BRANCH  25  27
ATOM     27  N   UNL     1       5.857   2.815   0.175  0.00  0.00    -0.202 N 
ATOM     28  C   UNL     1       5.716   4.149   0.282  0.00  0.00    +0.258 C 
ATOM     29  O   UNL     1       4.662   4.750   0.308  0.00  0.00    -0.269 OA
ATOM     30  C   UNL     1       7.060   4.758   0.367  0.00  0.00    +0.050 A 
ATOM     31  C   UNL     1       7.527   6.057   0.489  0.00  0.00    +0.014 A 
ATOM     32  C   UNL     1       8.892   6.295   0.538  0.00  0.00    +0.001 A 
ATOM     33  C   UNL     1       9.789   5.245   0.465  0.00  0.00    +0.001 A 
ATOM     34  C   UNL     1       9.336   3.941   0.343  0.00  0.00    +0.014 A 
ATOM     35  C   UNL     1       7.974   3.688   0.293  0.00  0.00    +0.050 A 
ATOM     36  C   UNL     1       7.155   2.464   0.171  0.00  0.00    +0.258 C 
ATOM     37  O   UNL     1       7.583   1.331   0.081  0.00  0.00    -0.269 OA
ENDBRANCH  25  27
ENDBRANCH   8  21
BRANCH   3  38
ATOM     38  C   UNL     1      -0.166   8.613   0.045  0.00  0.00    +0.035 A 
ATOM     39  C   UNL     1       1.171   8.969   0.040  0.00  0.00    +0.017 A 
ATOM     40  C   UNL     1       1.492  10.307   0.038  0.00  0.00    +0.008 A 
ATOM     41  C   UNL     1       0.495  11.229   0.052  0.00  0.00    +0.046 A 
ATOM     42  S   UNL     1      -0.969  10.208   0.061  0.00  0.00    -0.095 S 
ENDBRANCH   3  38
TORSDOF 6
