REMARK  Name = ZINC59105412
REMARK  9 active torsions:
REMARK  status: ('A' for Active; 'I' for Inactive)
REMARK    1  A    between atoms: C_1  and  C_2
REMARK    2  A    between atoms: C_2  and  O_3
REMARK    3  A    between atoms: O_3  and  C_4
REMARK    4  A    between atoms: C_10  and  C_11
REMARK    5  A    between atoms: C_14  and  S_16
REMARK    6  A    between atoms: S_16  and  C_17
REMARK    7  A    between atoms: N_26  and  C_27
REMARK    8  A    between atoms: C_30  and  O_33
REMARK    9  A    between atoms: O_33  and  C_34
REMARK                            x       y       z     vdW  Elec       q    Type
REMARK                         _______ _______ _______ _____ _____    ______ ____
ROOT
ATOM      1  C   UNL     1       0.955  -1.730  -1.529  0.00  0.00    +0.346 C 
ATOM      2  O   UNL     1       0.277  -2.570  -0.725  0.00  0.00    -0.245 OA
ATOM      3  C   UNL     1       1.783  -2.236  -2.522  0.00  0.00    +0.139 C 
ATOM      4  C   UNL     1       1.955  -3.681  -2.740  0.00  0.00    +0.120 C 
ATOM      5  S   UNL     1       3.096  -3.749  -4.106  0.00  0.00    -0.065 S 
ATOM      6  C   UNL     1       3.343  -2.009  -4.388  0.00  0.00    +0.065 C 
ATOM      7  C   UNL     1       4.141  -1.411  -5.337  0.00  0.00    +0.065 C 
ATOM      8  C   UNL     1       2.527  -1.380  -3.416  0.00  0.00    +0.209 C 
ATOM      9  O   UNL     1       2.460  -0.163  -3.334  0.00  0.00    -0.286 OA
ATOM     10  N   UNL     1       1.399  -4.682  -2.083  0.00  0.00    -0.240 NA
ENDROOT
BRANCH  10  11
ATOM     11  C   UNL     1       1.597  -5.968  -2.502  0.00  0.00    +0.065 A 
ATOM     12  C   UNL     1       1.368  -6.314  -3.837  0.00  0.00    +0.031 A 
ATOM     13  C   UNL     1       1.569  -7.612  -4.255  0.00  0.00    +0.048 A 
ATOM     14  C   UNL     1       2.000  -8.575  -3.353  0.00  0.00    +0.120 A 
ATOM     15  C   UNL     1       2.229  -8.237  -2.026  0.00  0.00    +0.048 A 
ATOM     16  C   UNL     1       2.036  -6.940  -1.599  0.00  0.00    +0.031 A 
BRANCH  14  17
ATOM     17  O   UNL     1       2.197  -9.855  -3.770  0.00  0.00    -0.495 OA
ATOM     18  C   UNL     1       2.532 -10.819  -2.770  0.00  0.00    +0.277 C 
ENDBRANCH  14  17
ENDBRANCH  10  11
BRANCH   7  19
ATOM     19  C   UNL     1       4.794  -2.198  -6.305  0.00  0.00    +0.131 A 
ATOM     20  C   UNL     1       5.700  -1.743  -7.248  0.00  0.00    +0.050 A 
ATOM     21  C   UNL     1       6.095  -2.856  -7.995  0.00  0.00    +0.057 A 
ATOM     22  C   UNL     1       5.428  -3.936  -7.493  0.00  0.00    +0.167 A 
ATOM     23  O   UNL     1       4.652  -3.532  -6.473  0.00  0.00    -0.449 OA
BRANCH  22  24
ATOM     24  S   UNL     1       5.567  -5.591  -8.081  0.00  0.00    -0.052 S 
BRANCH  24  25
ATOM     25  C   UNL     1       6.966  -6.233  -7.223  0.00  0.00    +0.016 A 
ATOM     26  C   UNL     1       7.584  -5.476  -6.235  0.00  0.00    +0.016 A 
ATOM     27  C   UNL     1       8.679  -5.981  -5.564  0.00  0.00    +0.021 A 
ATOM     28  C   UNL     1       9.162  -7.240  -5.875  0.00  0.00    +0.041 A 
ATOM     29  C   UNL     1       8.550  -7.997  -6.859  0.00  0.00    +0.021 A 
ATOM     30  C   UNL     1       7.450  -7.499  -7.529  0.00  0.00    +0.016 A 
ATOM     31 CL   UNL     1      10.540  -7.872  -5.029  0.00  0.00    -0.084 Cl
ENDBRANCH  24  25
ENDBRANCH  22  24
ENDBRANCH   7  19
BRANCH   1  32
ATOM     32  O   UNL     1       0.831  -0.400  -1.370  0.00  0.00    -0.461 OA
BRANCH  32  34
ATOM     33  C   UNL     1      -0.051   1.581  -0.301  0.00  0.00    +0.048 C 
ATOM     34  C   UNL     1      -0.038   0.051  -0.329  0.00  0.00    +0.229 C 
ENDBRANCH  32  34
ENDBRANCH   1  32
TORSDOF 7
