REMARK  Name = ZINC12131201
REMARK  10 active torsions:
REMARK  status: ('A' for Active; 'I' for Inactive)
REMARK    1  A    between atoms: C_1  and  C_2
REMARK    2  A    between atoms: C_2  and  C_3
REMARK    3  A    between atoms: C_3  and  C_5
REMARK    4  A    between atoms: C_3  and  C_6
REMARK    5  A    between atoms: C_6  and  N_63
REMARK    6  A    between atoms: C_9  and  C_12
REMARK    7  A    between atoms: C_12  and  C_29
REMARK    8  A    between atoms: N_15  and  C_19
REMARK    9  A    between atoms: C_19  and  C_20
REMARK   10  A    between atoms: C_29  and  C_30
REMARK                            x       y       z     vdW  Elec       q    Type
REMARK                         _______ _______ _______ _____ _____    ______ ____
ROOT
ATOM      1  C   UNL     1      -0.817   2.135  -1.087  0.00  0.00    +0.115 C 
ATOM      2  C   UNL     1      -0.248   1.566  -2.371  0.00  0.00    +0.247 C 
ATOM      3  O   UNL     1       0.881   1.697  -2.793  0.00  0.00    -0.273 OA
ATOM      4  N   UNL     1      -1.258   0.884  -2.946  0.00  0.00    -0.220 N 
ATOM      5  C   UNL     1      -2.374   0.942  -2.211  0.00  0.00    +0.310 C 
ATOM      6  O   UNL     1      -3.418   0.404  -2.524  0.00  0.00    -0.252 OA
ATOM      7  N   UNL     1      -2.213   1.666  -1.085  0.00  0.00    -0.285 N 
ATOM      8  H   UNL     1      -2.884   1.843  -0.406  0.00  0.00    +0.151 HD
ENDROOT
BRANCH   1  11
ATOM      9  C   UNL     1       0.782  -0.485   1.237  0.00  0.00    -0.078 C 
ATOM     10  C   UNL     1      -0.025   0.056   0.055  0.00  0.00    -0.013 C 
ATOM     11  C   UNL     1      -0.063   1.585   0.126  0.00  0.00    +0.018 C 
ATOM     12  C   UNL     1       1.370   2.124   0.125  0.00  0.00    -0.013 C 
ATOM     13  C   UNL     1       2.137   1.523   1.305  0.00  0.00    -0.078 C 
ATOM     14  N   UNL     1       2.158   0.052   1.164  0.00  0.00    +0.380 N 
ATOM     15  H   UNL     1       2.562  -0.190   0.252  0.00  0.00    -0.082 HD
BRANCH  14  16
ATOM     16  C   UNL     1       2.989  -0.545   2.230  0.00  0.00    -0.076 C 
BRANCH  16  17
ATOM     17  C   UNL     1       4.371   0.112   2.212  0.00  0.00    -0.031 C 
ATOM     18  C   UNL     1       5.233  -0.482   3.326  0.00  0.00    +0.005 C 
BRANCH  17  20
ATOM     19  C   UNL     1       6.365   0.618   0.794  0.00  0.00    +0.004 C 
ATOM     20  C   UNL     1       5.039  -0.142   0.859  0.00  0.00    -0.002 C 
ENDBRANCH  17  20
ENDBRANCH  16  17
ENDBRANCH  14  16
ENDBRANCH   1  11
BRANCH   1  21
ATOM     21  C   UNL     1      -0.763   3.664  -1.104  0.00  0.00    +0.032 C 
ATOM     22  C   UNL     1      -1.626   4.191  -2.252  0.00  0.00    +0.006 C 
ENDBRANCH   1  21
BRANCH   4  23
ATOM     23  C   UNL     1      -1.147   0.166  -4.219  0.00  0.00    +0.153 C 
BRANCH  23  24
ATOM     24  C   UNL     1      -0.713  -1.253  -3.959  0.00  0.00    -0.026 A 
ATOM     25  C   UNL     1      -1.661  -2.238  -3.751  0.00  0.00    +0.009 A 
ATOM     26  C   UNL     1      -1.268  -3.541  -3.513  0.00  0.00    +0.050 A 
ATOM     27  C   UNL     1       0.079  -3.864  -3.482  0.00  0.00    +0.166 A 
ATOM     28  C   UNL     1       1.035  -2.873  -3.691  0.00  0.00    +0.167 A 
ATOM     29  C   UNL     1       0.633  -1.569  -3.934  0.00  0.00    +0.054 A 
ATOM     30  O   UNL     1       2.275  -3.438  -3.612  0.00  0.00    -0.453 OA
ATOM     31  C   UNL     1       2.080  -4.701  -2.949  0.00  0.00    +0.466 C 
ATOM     32  O   UNL     1       0.721  -5.051  -3.272  0.00  0.00    -0.453 OA
ENDBRANCH  23  24
ENDBRANCH   4  23
TORSDOF 7
