REMARK  Name = ZINC20984431
REMARK  8 active torsions:
REMARK  status: ('A' for Active; 'I' for Inactive)
REMARK    1  A    between atoms: C_1  and  C_2
REMARK    2  A    between atoms: C_2  and  C_3
REMARK    3  A    between atoms: C_3  and  C_4
REMARK    4  A    between atoms: C_4  and  C_5
REMARK    5  A    between atoms: N_7  and  C_8
REMARK    6  A    between atoms: C_15  and  S_17
REMARK    7  A    between atoms: S_17  and  C_18
REMARK    8  A    between atoms: C_18  and  C_19
REMARK                            x       y       z     vdW  Elec       q    Type
REMARK                         _______ _______ _______ _____ _____    ______ ____
ROOT
ATOM      1  C   UNL     1      -1.187  -2.092   0.095  0.00  0.00    +0.035 A 
ATOM      2  C   UNL     1      -0.002  -2.820   0.180  0.00  0.00    +0.025 A 
ATOM      3  C   UNL     1      -0.009  -4.187   0.265  0.00  0.00    +0.031 A 
ATOM      4  C   UNL     1      -1.226  -4.907   0.269  0.00  0.00    +0.080 A 
ATOM      5  C   UNL     1      -2.409  -4.139   0.181  0.00  0.00    +0.042 A 
ATOM      6  C   UNL     1      -2.399  -2.769   0.102  0.00  0.00    +0.040 A 
ATOM      7  S   UNL     1      -3.674  -5.386   0.217  0.00  0.00    -0.061 S 
ATOM      8  C   UNL     1      -2.591  -6.802   0.342  0.00  0.00    +0.136 A 
ATOM      9  N   UNL     1      -1.401  -6.245   0.347  0.00  0.00    -0.233 NA
ENDROOT
BRANCH   1  12
ATOM     10  C   UNL     1      -2.100  -0.041  -0.697  0.00  0.00    +0.217 C 
ATOM     11  O   UNL     1      -2.920  -0.665  -1.336  0.00  0.00    -0.275 OA
ATOM     12  N   UNL     1      -1.156  -0.694   0.009  0.00  0.00    -0.285 N 
ATOM     13  H   UNL     1      -0.361  -0.129   0.518  0.00  0.00    +0.155 HD
BRANCH  10  14
ATOM     14  C   UNL     1      -2.137   1.466  -0.692  0.00  0.00    +0.096 C 
BRANCH  14  15
ATOM     15  C   UNL     1      -3.296   1.950  -1.565  0.00  0.00    +0.009 C 
BRANCH  15  17
ATOM     16  C   UNL     1      -4.493   3.964  -2.433  0.00  0.00    +0.004 C 
ATOM     17  C   UNL     1      -3.334   3.480  -1.560  0.00  0.00    -0.003 C 
ENDBRANCH  15  17
ENDBRANCH  14  15
ENDBRANCH  10  14
ENDBRANCH   1  12
BRANCH   8  18
ATOM     18  S   UNL     1      -3.013  -8.510   0.435  0.00  0.00    -0.093 S 
BRANCH  18  19
ATOM     19  C   UNL     1      -1.358  -9.237   0.536  0.00  0.00    +0.132 C 
BRANCH  19  20
ATOM     20  C   UNL     1      -1.473 -10.737   0.626  0.00  0.00    +0.059 A 
ATOM     21  C   UNL     1      -1.188 -11.530  -0.466  0.00  0.00    +0.095 A 
ATOM     22  C   UNL     1      -1.295 -12.917  -0.361  0.00  0.00    +0.259 A 
ATOM     23  O   UNL     1      -1.038 -13.624  -1.323  0.00  0.00    -0.267 OA
ATOM     24  N   UNL     1      -1.693 -13.482   0.818  0.00  0.00    -0.259 N 
ATOM     25  C   UNL     1      -1.847 -14.842   1.050  0.00  0.00    +0.039 A 
ATOM     26  C   UNL     1      -2.245 -15.239   2.265  0.00  0.00    +0.013 A 
ATOM     27  S   UNL     1      -2.432 -13.722   3.165  0.00  0.00    -0.054 S 
ATOM     28  C   UNL     1      -1.960 -12.623   1.846  0.00  0.00    +0.181 A 
ATOM     29  N   UNL     1      -1.857 -11.320   1.759  0.00  0.00    -0.227 NA
ATOM     30  C   UNL     1      -2.477 -16.635   2.747  0.00  0.00    +0.044 C 
ATOM     31  C   UNL     1      -2.541 -17.565   1.526  0.00  0.00    +0.006 C 
ATOM     32  C   UNL     1      -1.363 -17.240   0.603  0.00  0.00    +0.006 C 
ATOM     33  C   UNL     1      -1.571 -15.871  -0.046  0.00  0.00    +0.055 C 
ENDBRANCH  19  20
ENDBRANCH  18  19
ENDBRANCH   8  18
TORSDOF 7
