REMARK  Name = ZINC58993942
REMARK  6 active torsions:
REMARK  status: ('A' for Active; 'I' for Inactive)
REMARK    1  A    between atoms: C_3  and  C_8
REMARK    2  A    between atoms: N_9  and  N_10
REMARK    3  A    between atoms: C_13  and  S_16
REMARK    4  A    between atoms: S_16  and  C_17
REMARK    5  A    between atoms: C_17  and  C_18
REMARK    6  A    between atoms: N_20  and  C_21
REMARK                            x       y       z     vdW  Elec       q    Type
REMARK                         _______ _______ _______ _____ _____    ______ ____
ROOT
ATOM      1  N   UNL     1       8.743   3.947   3.301  0.00  0.00    -0.205 N 
ATOM      2  C   UNL     1       9.452   2.959   2.644  0.00  0.00    +0.232 A 
ATOM      3  N   UNL     1       9.797   1.791   3.144  0.00  0.00    -0.186 NA
ATOM      4  C   UNL     1      10.474   1.091   2.228  0.00  0.00    +0.211 A 
ATOM      5  N   UNL     1      10.569   1.804   1.131  0.00  0.00    -0.144 NA
ATOM      6  N   UNL     1       9.908   3.019   1.375  0.00  0.00    -0.245 N 
ATOM      7  H   UNL     1       8.531   4.777   2.845  0.00  0.00    +0.177 HD
ATOM      8  H   UNL     1       9.803   3.757   0.754  0.00  0.00    +0.192 HD
ENDROOT
BRANCH   1  10
ATOM      9  C   UNL     1       7.663   4.679   5.241  0.00  0.00    +0.138 C 
ATOM     10  N   UNL     1       8.329   3.751   4.625  0.00  0.00    -0.188 NA
BRANCH   9  13
ATOM     11  C   UNL     1       6.106   5.268   8.605  0.00  0.00    +0.002 A 
ATOM     12  C   UNL     1       6.511   5.468   7.301  0.00  0.00    +0.009 A 
ATOM     13  C   UNL     1       7.228   4.471   6.635  0.00  0.00    -0.004 A 
ATOM     14  C   UNL     1       7.530   3.278   7.294  0.00  0.00    +0.024 A 
ATOM     15  C   UNL     1       7.119   3.091   8.598  0.00  0.00    +0.018 A 
ATOM     16  C   UNL     1       6.409   4.083   9.253  0.00  0.00    +0.015 A 
ATOM     17 BR   UNL     1       7.526   1.476   9.494  0.00  0.00    -0.050 Br
ENDBRANCH   9  13
ENDBRANCH   1  10
BRANCH   4  18
ATOM     18  S   UNL     1      11.131  -0.528   2.456  0.00  0.00    -0.075 S 
BRANCH  18  19
ATOM     19  C   UNL     1      11.920  -0.909   0.868  0.00  0.00    +0.173 C 
BRANCH  19  20
ATOM     20  C   UNL     1      12.531  -2.286   0.928  0.00  0.00    +0.228 C 
ATOM     21  O   UNL     1      12.442  -2.945   1.942  0.00  0.00    -0.275 OA
ATOM     22  N   UNL     1      13.175  -2.785  -0.146  0.00  0.00    -0.280 N 
ATOM     23  H   UNL     1      13.183  -2.290  -0.980  0.00  0.00    +0.155 HD
BRANCH  22  24
ATOM     24  C   UNL     1      13.834  -4.019  -0.057  0.00  0.00    +0.105 A 
ATOM     25  C   UNL     1      15.161  -4.072   0.351  0.00  0.00    +0.147 A 
ATOM     26  C   UNL     1      15.808  -5.292   0.438  0.00  0.00    +0.040 A 
ATOM     27  C   UNL     1      15.136  -6.457   0.119  0.00  0.00    +0.006 A 
ATOM     28  C   UNL     1      13.815  -6.408  -0.287  0.00  0.00    +0.040 A 
ATOM     29  C   UNL     1      13.160  -5.193  -0.371  0.00  0.00    +0.147 A 
ATOM     30  F   UNL     1      11.868  -5.147  -0.763  0.00  0.00    -0.203 F 
ATOM     31  F   UNL     1      15.819  -2.934   0.663  0.00  0.00    -0.203 F 
ENDBRANCH  22  24
ENDBRANCH  19  20
ENDBRANCH  18  19
ENDBRANCH   4  18
TORSDOF 6
