REMARK  Name = ZINC64604912
REMARK  9 active torsions:
REMARK  status: ('A' for Active; 'I' for Inactive)
REMARK    1  A    between atoms: C_1  and  C_2
REMARK    2  A    between atoms: C_5  and  C_8
REMARK    3  A    between atoms: C_10  and  N_28
REMARK    4  A    between atoms: N_13  and  C_15
REMARK    5  A    between atoms: C_15  and  C_16
REMARK    6  A    between atoms: N_18  and  C_19
REMARK    7  A    between atoms: C_23  and  C_26
REMARK    8  A    between atoms: C_24  and  C_25
REMARK    9  A    between atoms: C_29  and  C_31
REMARK                            x       y       z     vdW  Elec       q    Type
REMARK                         _______ _______ _______ _____ _____    ______ ____
ROOT
ATOM      1  C   UNL     1       0.060  -4.317  -0.137  0.00  0.00    +0.093 A 
ATOM      2  C   UNL     1       0.132  -4.886   1.151  0.00  0.00    +0.059 A 
ATOM      3  C   UNL     1       0.158  -6.244   1.289  0.00  0.00    +0.102 A 
ATOM      4  C   UNL     1       0.110  -7.057   0.129  0.00  0.00    +0.289 A 
ATOM      5  O   UNL     1       0.132  -8.273   0.231  0.00  0.00    -0.264 OA
ATOM      6  N   UNL     1       0.041  -6.478  -1.086  0.00  0.00    -0.218 N 
ATOM      7  N   UNL     1       0.011  -5.084  -1.203  0.00  0.00    -0.168 NA
ENDROOT
BRANCH   1  12
ATOM      8  C   UNL     1      -0.049   1.411  -0.729  0.00  0.00    +0.044 C 
ATOM      9  C   UNL     1      -0.021  -0.088  -0.574  0.00  0.00    -0.050 A 
ATOM     10  C   UNL     1      -0.071  -0.898  -1.694  0.00  0.00    +0.004 A 
ATOM     11  C   UNL     1      -0.045  -2.271  -1.558  0.00  0.00    +0.010 A 
ATOM     12  C   UNL     1       0.032  -2.841  -0.289  0.00  0.00    +0.002 A 
ATOM     13  C   UNL     1       0.083  -2.021   0.836  0.00  0.00    +0.010 A 
ATOM     14  C   UNL     1       0.061  -0.649   0.688  0.00  0.00    +0.004 A 
ENDBRANCH   1  12
BRANCH   3  15
ATOM     15  N   UNL     1       0.230  -6.824   2.558  0.00  0.00    -0.281 N 
ATOM     16  C   UNL     1      -0.746  -7.655   2.975  0.00  0.00    +0.214 C 
ATOM     17  O   UNL     1      -1.731  -7.826   2.289  0.00  0.00    -0.276 OA
ATOM     18  C   UNL     1      -0.612  -8.373   4.294  0.00  0.00    +0.109 C 
ATOM     19  H   UNL     1       0.982  -6.629   3.138  0.00  0.00    +0.155 HD
ENDBRANCH   3  15
BRANCH   6  20
ATOM     20  C   UNL     1      -0.008  -7.312  -2.289  0.00  0.00    +0.243 C 
BRANCH  20  21
ATOM     21  C   UNL     1      -1.444  -7.617  -2.631  0.00  0.00    +0.239 C 
ATOM     22  O   UNL     1      -2.338  -7.181  -1.937  0.00  0.00    -0.273 OA
ATOM     23  N   UNL     1      -1.734  -8.375  -3.707  0.00  0.00    -0.284 N 
ATOM     24  H   UNL     1      -1.018  -8.771  -4.229  0.00  0.00    +0.155 HD
BRANCH  23  25
ATOM     25  C   UNL     1      -3.068  -8.590  -4.072  0.00  0.00    +0.037 A 
ATOM     26  C   UNL     1      -4.072  -8.512  -3.115  0.00  0.00    +0.024 A 
ATOM     27  C   UNL     1      -5.387  -8.724  -3.478  0.00  0.00    +0.017 A 
ATOM     28  C   UNL     1      -5.705  -9.015  -4.793  0.00  0.00    +0.021 A 
ATOM     29  C   UNL     1      -4.707  -9.095  -5.748  0.00  0.00    -0.032 A 
ATOM     30  C   UNL     1      -3.390  -8.877  -5.391  0.00  0.00    -0.025 A 
ATOM     31  C   UNL     1      -2.304  -8.957  -6.433  0.00  0.00    +0.046 C 
ATOM     32  C   UNL     1      -5.057  -9.412  -7.179  0.00  0.00    +0.045 C 
ATOM     33 BR   UNL     1      -7.508  -9.307  -5.286  0.00  0.00    -0.050 Br
ENDBRANCH  23  25
ENDBRANCH  20  21
ENDBRANCH   6  20
TORSDOF 5
