REMARK  Name = ZINC08440184
REMARK  13 active torsions:
REMARK  status: ('A' for Active; 'I' for Inactive)
REMARK    1  A    between atoms: C_1  and  C_2
REMARK    2  A    between atoms: C_8  and  C_30
REMARK    3  A    between atoms: C_10  and  C_13
REMARK    4  A    between atoms: C_15  and  O_23
REMARK    5  A    between atoms: C_16  and  O_21
REMARK    6  A    between atoms: C_17  and  O_19
REMARK    7  A    between atoms: O_19  and  C_20
REMARK    8  A    between atoms: O_21  and  C_22
REMARK    9  A    between atoms: O_23  and  C_24
REMARK   10  A    between atoms: C_25  and  C_26
REMARK   11  A    between atoms: C_25  and  N_64
REMARK   12  A    between atoms: C_26  and  O_28
REMARK   13  A    between atoms: O_28  and  C_29
REMARK                            x       y       z     vdW  Elec       q    Type
REMARK                         _______ _______ _______ _____ _____    ______ ____
ROOT
ATOM      1  C   UNL     1      -1.687   2.723   5.184  0.00  0.00    +0.044 C 
ATOM      2  C   UNL     1      -1.924   3.390   3.854  0.00  0.00    -0.050 A 
ATOM      3  C   UNL     1      -2.439   4.673   3.809  0.00  0.00    +0.005 A 
ATOM      4  C   UNL     1      -2.656   5.287   2.591  0.00  0.00    +0.023 A 
ATOM      5  C   UNL     1      -2.355   4.613   1.414  0.00  0.00    +0.028 A 
ATOM      6  C   UNL     1      -1.841   3.325   1.460  0.00  0.00    -0.036 A 
ATOM      7  C   UNL     1      -1.626   2.718   2.684  0.00  0.00    +0.007 A 
ATOM      8  C   UNL     1      -1.514   2.580   0.193  0.00  0.00    -0.001 C 
ATOM      9  C   UNL     1      -2.519   4.407  -1.035  0.00  0.00    +0.049 C 
ATOM     10  N   UNL     1      -2.572   5.236   0.179  0.00  0.00    -0.353 N 
ATOM     11  H   UNL     1      -2.752   6.187   0.125  0.00  0.00    +0.145 HD
ATOM     12  N   UNL     1      -1.330   3.532  -0.919  0.00  0.00    +0.409 N 
ATOM     13  H   UNL     1      -0.505   4.113  -0.729  0.00  0.00    -0.076 HD
ENDROOT
BRANCH   9  14
ATOM     14  C   UNL     1      -2.376   5.288  -2.248  0.00  0.00    -0.037 A 
ATOM     15  C   UNL     1      -1.268   6.103  -2.382  0.00  0.00    +0.053 A 
ATOM     16  C   UNL     1      -1.129   6.911  -3.500  0.00  0.00    +0.165 A 
ATOM     17  C   UNL     1      -2.113   6.910  -4.482  0.00  0.00    +0.204 A 
ATOM     18  C   UNL     1      -3.229   6.093  -4.341  0.00  0.00    +0.165 A 
ATOM     19  C   UNL     1      -3.356   5.283  -3.223  0.00  0.00    +0.053 A 
BRANCH  18  20
ATOM     20  O   UNL     1      -4.194   6.089  -5.299  0.00  0.00    -0.491 OA
ATOM     21  C   UNL     1      -5.313   5.225  -5.089  0.00  0.00    +0.277 C 
ENDBRANCH  18  20
BRANCH  17  22
ATOM     22  O   UNL     1      -1.984   7.707  -5.578  0.00  0.00    -0.488 OA
ATOM     23  C   UNL     1      -2.532   9.024  -5.490  0.00  0.00    +0.277 C 
ENDBRANCH  17  22
BRANCH  16  24
ATOM     24  O   UNL     1      -0.036   7.709  -3.632  0.00  0.00    -0.491 OA
ATOM     25  C   UNL     1       0.985   7.580  -2.641  0.00  0.00    +0.277 C 
ENDBRANCH  16  24
ENDBRANCH   9  14
BRANCH   8  26
ATOM     26  C   UNL     1      -0.234   1.808   0.386  0.00  0.00    -0.057 A 
ATOM     27  C   UNL     1       0.985   2.447   0.257  0.00  0.00    +0.002 A 
ATOM     28  C   UNL     1       2.159   1.736   0.426  0.00  0.00    +0.000 A 
ATOM     29  C   UNL     1       2.114   0.388   0.727  0.00  0.00    +0.000 A 
ATOM     30  C   UNL     1       0.895  -0.251   0.857  0.00  0.00    +0.000 A 
ATOM     31  C   UNL     1      -0.279   0.459   0.686  0.00  0.00    +0.002 A 
ENDBRANCH   8  26
BRANCH  12  32
ATOM     32  C   UNL     1      -1.118   2.797  -2.184  0.00  0.00    +0.048 C 
BRANCH  32  33
ATOM     33  C   UNL     1      -2.343   1.993  -2.538  0.00  0.00    +0.290 C 
ATOM     34  O   UNL     1      -3.269   1.931  -1.765  0.00  0.00    -0.253 OA
BRANCH  33  35
ATOM     35  O   UNL     1      -2.405   1.347  -3.713  0.00  0.00    -0.469 OA
ATOM     36  C   UNL     1      -3.660   0.696  -4.042  0.00  0.00    +0.280 C 
ENDBRANCH  33  35
ENDBRANCH  32  33
ENDBRANCH  12  32
TORSDOF 8
