REMARK  Name = ZINC16313041
REMARK  6 active torsions:
REMARK  status: ('A' for Active; 'I' for Inactive)
REMARK    1  A    between atoms: C_1  and  C_2
REMARK    2  A    between atoms: C_5  and  C_9
REMARK    3  A    between atoms: C_12  and  C_14
REMARK    4  A    between atoms: C_15  and  C_16
REMARK    5  A    between atoms: N_18  and  C_19
REMARK    6  A    between atoms: C_21  and  N_26
REMARK                            x       y       z     vdW  Elec       q    Type
REMARK                         _______ _______ _______ _____ _____    ______ ____
ROOT
ATOM      1  C   UNL     1       0.075  -7.439  -1.622  0.00  0.00    +0.051 C 
ATOM      2  C   UNL     1       0.078  -7.247  -2.966  0.00  0.00    +0.071 C 
ENDROOT
BRANCH   1   6
ATOM      3  C   UNL     1       0.009  -4.253  -0.021  0.00  0.00    +0.136 A 
ATOM      4  C   UNL     1       0.019  -5.056   1.084  0.00  0.00    +0.050 A 
ATOM      5  C   UNL     1       0.045  -6.378   0.632  0.00  0.00    +0.050 A 
ATOM      6  C   UNL     1       0.050  -6.327  -0.750  0.00  0.00    +0.129 A 
ATOM      7  O   UNL     1       0.023  -5.029  -1.119  0.00  0.00    -0.455 OA
BRANCH   3  12
ATOM      8  C   UNL     1      -0.100   1.500   0.014  0.00  0.00    +0.045 C 
ATOM      9  C   UNL     1      -0.071  -0.007   0.005  0.00  0.00    -0.032 A 
ATOM     10  C   UNL     1      -0.057  -0.689  -1.200  0.00  0.00    +0.005 A 
ATOM     11  C   UNL     1      -0.031  -2.067  -1.215  0.00  0.00    +0.012 A 
ATOM     12  C   UNL     1      -0.018  -2.777  -0.012  0.00  0.00    +0.019 A 
ATOM     13  C   UNL     1      -0.032  -2.084   1.200  0.00  0.00    +0.031 A 
ATOM     14  C   UNL     1      -0.052  -0.703   1.202  0.00  0.00    +0.045 A 
ATOM     15 CL   UNL     1      -0.062   0.162   2.707  0.00  0.00    -0.083 Cl
ENDBRANCH   3  12
ENDBRANCH   1   6
BRANCH   2  16
ATOM     16  C   UNL     1       0.103  -8.360  -3.839  0.00  0.00    +0.241 C 
ATOM     17  O   UNL     1       0.122  -9.490  -3.385  0.00  0.00    -0.270 OA
ATOM     18  N   UNL     1       0.105  -8.169  -5.173  0.00  0.00    -0.281 N 
ATOM     19  H   UNL     1       0.024  -7.273  -5.536  0.00  0.00    +0.155 HD
BRANCH  18  20
ATOM     20  C   UNL     1       0.225  -9.264  -6.036  0.00  0.00    +0.054 A 
ATOM     21  C   UNL     1      -0.351 -10.482  -5.698  0.00  0.00    +0.057 A 
ATOM     22  C   UNL     1      -0.231 -11.562  -6.551  0.00  0.00    +0.128 A 
ATOM     23  C   UNL     1       0.461 -11.431  -7.742  0.00  0.00    +0.034 A 
ATOM     24  C   UNL     1       1.035 -10.220  -8.082  0.00  0.00    +0.024 A 
ATOM     25  C   UNL     1       0.914  -9.134  -7.235  0.00  0.00    +0.062 A 
ATOM     26 CL   UNL     1       1.629  -7.612  -7.667  0.00  0.00    -0.082 Cl
BRANCH  22  27
ATOM     27  N   UNL     1      -0.844 -12.860  -6.191  0.00  0.00    +0.056 N 
ATOM     28  O   UNL     1      -1.448 -12.975  -5.151  0.00  0.00    -0.126 OA
ATOM     29  O   UNL     1      -0.739 -13.805  -6.938  0.00  0.00    -0.126 OA
ENDBRANCH  22  27
ENDBRANCH  18  20
ENDBRANCH   2  16
TORSDOF 5
