REMARK  Name = ZINC40075501
REMARK  15 active torsions:
REMARK  status: ('A' for Active; 'I' for Inactive)
REMARK    1  A    between atoms: C_1  and  C_2
REMARK    2  A    between atoms: C_2  and  C_3
REMARK    3  A    between atoms: C_3  and  C_4
REMARK    4  A    between atoms: C_4  and  O_5
REMARK    5  A    between atoms: O_5  and  C_6
REMARK    6  A    between atoms: C_10  and  C_12
REMARK    7  A    between atoms: C_14  and  C_26
REMARK    8  A    between atoms: N_18  and  C_19
REMARK    9  A    between atoms: C_19  and  C_20
REMARK   10  A    between atoms: C_20  and  O_21
REMARK   11  A    between atoms: O_21  and  C_22
REMARK   12  A    between atoms: C_22  and  C_23
REMARK   13  A    between atoms: C_23  and  O_24
REMARK   14  A    between atoms: C_26  and  C_28
REMARK   15  A    between atoms: C_31  and  C_33
REMARK                            x       y       z     vdW  Elec       q    Type
REMARK                         _______ _______ _______ _____ _____    ______ ____
ROOT
ATOM      1  C   UNL     1       2.895  -6.301  -4.840  0.00  0.00    +0.145 C 
ATOM      2  C   UNL     1       4.369  -6.614  -4.739  0.00  0.00    +0.079 C 
ATOM      3  C   UNL     1       4.525  -7.895  -5.146  0.00  0.00    +0.249 C 
ATOM      4  C   UNL     1       3.208  -8.451  -5.516  0.00  0.00    +0.288 C 
ATOM      5  O   UNL     1       3.018  -9.581  -5.920  0.00  0.00    -0.266 OA
ATOM      6  N   UNL     1       2.250  -7.522  -5.339  0.00  0.00    -0.281 N 
ATOM      7  O   UNL     1       5.702  -8.561  -5.205  0.00  0.00    -0.282 OA
ENDROOT
BRANCH   1  12
ATOM      8  C   UNL     1       1.482  -4.309  -1.957  0.00  0.00    +0.121 A 
ATOM      9  C   UNL     1       1.341  -5.292  -0.987  0.00  0.00    +0.045 A 
ATOM     10  C   UNL     1       1.703  -6.595  -1.269  0.00  0.00    +0.004 A 
ATOM     11  C   UNL     1       2.205  -6.921  -2.516  0.00  0.00    +0.006 A 
ATOM     12  C   UNL     1       2.347  -5.943  -3.483  0.00  0.00    -0.019 A 
ATOM     13  C   UNL     1       1.981  -4.639  -3.208  0.00  0.00    +0.051 A 
BRANCH   8  14
ATOM     14  O   UNL     1       1.126  -3.027  -1.682  0.00  0.00    -0.492 OA
BRANCH  14  15
ATOM     15  C   UNL     1       0.620  -2.760  -0.373  0.00  0.00    +0.229 C 
BRANCH  15  16
ATOM     16  C   UNL     1       0.276  -1.274  -0.252  0.00  0.00    +0.041 C 
BRANCH  16  18
ATOM     17  C   UNL     1      -0.611   0.497   1.270  0.00  0.00    +0.004 C 
ATOM     18  C   UNL     1      -0.267  -0.989   1.150  0.00  0.00    -0.000 C 
ENDBRANCH  16  18
ENDBRANCH  15  16
ENDBRANCH  14  15
ENDBRANCH   8  14
ENDBRANCH   1  12
BRANCH   2  19
ATOM     19  C   UNL     1       5.428  -5.704  -4.288  0.00  0.00    +0.230 C 
ATOM     20  O   UNL     1       6.039  -5.942  -3.261  0.00  0.00    -0.283 OA
BRANCH  19  21
ATOM     21  C   UNL     1       5.752  -4.509  -5.072  0.00  0.00    +0.175 A 
ATOM     22  C   UNL     1       6.769  -3.616  -4.811  0.00  0.00    +0.053 A 
ATOM     23  C   UNL     1       6.708  -2.636  -5.812  0.00  0.00    +0.045 A 
ATOM     24  C   UNL     1       5.679  -2.962  -6.627  0.00  0.00    +0.103 A 
ATOM     25  O   UNL     1       5.110  -4.090  -6.183  0.00  0.00    -0.457 OA
ATOM     26  C   UNL     1       5.245  -2.183  -7.843  0.00  0.00    +0.086 C 
ENDBRANCH  19  21
ENDBRANCH   2  19
BRANCH   6  27
ATOM     27  C   UNL     1       0.819  -7.697  -5.598  0.00  0.00    +0.137 C 
BRANCH  27  28
ATOM     28  C   UNL     1       0.511  -7.304  -7.045  0.00  0.00    +0.179 C 
BRANCH  28  29
ATOM     29  O   UNL     1       1.169  -8.207  -7.934  0.00  0.00    -0.376 OA
BRANCH  29  30
ATOM     30  C   UNL     1       0.945  -7.928  -9.318  0.00  0.00    +0.187 C 
BRANCH  30  31
ATOM     31  C   UNL     1       1.694  -8.952 -10.173  0.00  0.00    +0.184 C 
BRANCH  31  32
ATOM     32  O   UNL     1       1.139 -10.251  -9.955  0.00  0.00    -0.393 OA
ATOM     33  H   UNL     1       1.565 -10.952 -10.467  0.00  0.00    +0.209 HD
ENDBRANCH  31  32
ENDBRANCH  30  31
ENDBRANCH  29  30
ENDBRANCH  28  29
ENDBRANCH  27  28
ENDBRANCH   6  27
TORSDOF 13
