REMARK  Name = ZINC33746170
REMARK  10 active torsions:
REMARK  status: ('A' for Active; 'I' for Inactive)
REMARK    1  A    between atoms: C_1  and  O_2
REMARK    2  A    between atoms: O_2  and  C_3
REMARK    3  A    between atoms: C_3  and  C_4
REMARK    4  A    between atoms: C_4  and  N_5
REMARK    5  A    between atoms: N_5  and  C_6
REMARK    6  A    between atoms: C_6  and  C_7
REMARK    7  A    between atoms: C_17  and  C_19
REMARK    8  A    between atoms: C_23  and  O_25
REMARK    9  A    between atoms: O_25  and  C_26
REMARK   10  A    between atoms: N_29  and  C_30
REMARK                            x       y       z     vdW  Elec       q    Type
REMARK                         _______ _______ _______ _____ _____    ______ ____
ROOT
ATOM      1  C   UNL     1      -1.262   2.124   0.219  0.00  0.00    +0.205 C 
ENDROOT
BRANCH   1   2
ATOM      2  C   UNL     1       0.036   1.361   0.147  0.00  0.00    +0.234 C 
ATOM      3  O   UNL     1       1.091   1.960   0.143  0.00  0.00    -0.274 OA
ATOM      4  N   UNL     1       0.024   0.015   0.081  0.00  0.00    -0.286 N 
ATOM      5  C   UNL     1      -1.231  -0.739   0.217  0.00  0.00    +0.130 C 
ATOM      6  C   UNL     1      -1.519  -1.474  -1.102  0.00  0.00    +0.140 C 
ATOM      7  N   UNL     1      -0.296  -2.141  -1.560  0.00  0.00    -0.347 N 
ATOM      8  C   UNL     1      -0.206  -3.157  -2.461  0.00  0.00    +0.086 A 
ATOM      9  C   UNL     1       1.096  -3.475  -2.613  0.00  0.00    +0.019 A 
ATOM     10  C   UNL     1       1.841  -2.624  -1.769  0.00  0.00    +0.025 A 
ATOM     11  C   UNL     1       0.967  -1.825  -1.138  0.00  0.00    +0.044 A 
ATOM     12  C   UNL     1       1.271  -0.746  -0.124  0.00  0.00    +0.153 C 
BRANCH  12  13
ATOM     13  C   UNL     1       2.349   0.166  -0.651  0.00  0.00    -0.018 A 
ATOM     14  C   UNL     1       3.529   0.320   0.053  0.00  0.00    +0.006 A 
ATOM     15  C   UNL     1       4.522   1.151  -0.430  0.00  0.00    +0.004 A 
ATOM     16  C   UNL     1       4.333   1.839  -1.614  0.00  0.00    +0.045 A 
ATOM     17  C   UNL     1       3.149   1.690  -2.319  0.00  0.00    +0.120 A 
ATOM     18  C   UNL     1       2.155   0.851  -1.835  0.00  0.00    +0.051 A 
BRANCH  17  19
ATOM     19  O   UNL     1       2.961   2.366  -3.483  0.00  0.00    -0.495 OA
ATOM     20  C   UNL     1       4.026   3.212  -3.922  0.00  0.00    +0.277 C 
ENDBRANCH  17  19
ENDBRANCH  12  13
ENDBRANCH   1   2
BRANCH   1  21
ATOM     21  N   UNL     1      -0.982   3.560   0.282  0.00  0.00    -0.275 N 
ATOM     22  C   UNL     1      -0.823   4.164   1.476  0.00  0.00    +0.303 C 
ATOM     23  O   UNL     1      -0.911   3.516   2.502  0.00  0.00    -0.253 OA
ATOM     24  N   UNL     1      -0.565   5.485   1.535  0.00  0.00    -0.294 N 
ATOM     25  H   UNL     1      -0.485   6.071   0.607  0.00  0.00    +0.151 HD
BRANCH  24  26
ATOM     26  C   UNL     1      -0.391   6.141   2.833  0.00  0.00    +0.037 C 
ATOM     27  C   UNL     1      -1.666   5.976   3.663  0.00  0.00    +0.029 C 
ATOM     28  C   UNL     1      -1.484   6.661   5.018  0.00  0.00    -0.008 C 
ATOM     29  C   UNL     1      -1.204   8.150   4.804  0.00  0.00    +0.007 C 
ATOM     30  C   UNL     1       0.070   8.315   3.975  0.00  0.00    -0.008 C 
ATOM     31  C   UNL     1      -0.111   7.630   2.619  0.00  0.00    +0.029 C 
ATOM     32  C   UNL     1       1.247   7.676   4.715  0.00  0.00    +0.007 C 
ATOM     33  C   UNL     1       0.967   6.188   4.930  0.00  0.00    -0.008 C 
ATOM     34  C   UNL     1      -0.308   6.023   5.759  0.00  0.00    +0.007 C 
ATOM     35  C   UNL     1       0.785   5.502   3.574  0.00  0.00    +0.029 C 
ENDBRANCH  24  26
BRANCH  21  36
ATOM     36  C   UNL     1      -0.876   4.341  -0.953  0.00  0.00    +0.138 C 
BRANCH  36  37
ATOM     37  C   UNL     1      -2.255   4.886  -1.332  0.00  0.00    +0.178 C 
BRANCH  37  39
ATOM     38  C   UNL     1      -3.975   6.384  -0.594  0.00  0.00    +0.194 C 
ATOM     39  O   UNL     1      -2.691   5.813  -0.335  0.00  0.00    -0.381 OA
ENDBRANCH  37  39
ENDBRANCH  36  37
ENDBRANCH  21  36
ENDBRANCH   1  21
TORSDOF 8
