REMARK  Name = ZINC39708399
REMARK  6 active torsions:
REMARK  status: ('A' for Active; 'I' for Inactive)
REMARK    1  A    between atoms: C_1  and  C_2
REMARK    2  A    between atoms: C_10  and  O_23
REMARK    3  A    between atoms: O_23  and  S_24
REMARK    4  A    between atoms: S_24  and  C_27
REMARK    5  A    between atoms: C_30  and  O_36
REMARK    6  A    between atoms: C_31  and  C_33
REMARK                            x       y       z     vdW  Elec       q    Type
REMARK                         _______ _______ _______ _____ _____    ______ ____
ROOT
ATOM      1  C   UNL     1      -0.019   1.526   0.010  0.00  0.00    +0.019 C 
ATOM      2  C   UNL     1       0.002  -0.004   0.002  0.00  0.00    +0.029 C 
ATOM      3  C   UNL     1      -1.402  -0.551  -0.006  0.00  0.00    +0.015 C 
ATOM      4  C   UNL     1      -1.901  -0.829   1.423  0.00  0.00    +0.009 C 
ATOM      5  C   UNL     1      -1.213   0.095   2.410  0.00  0.00    +0.023 C 
ATOM      6  C   UNL     1      -1.776   0.066   3.802  0.00  0.00    -0.041 A 
ATOM      7  C   UNL     1      -3.112  -0.237   3.997  0.00  0.00    +0.008 A 
ATOM      8  C   UNL     1      -3.647  -0.261   5.269  0.00  0.00    +0.049 A 
ATOM      9  C   UNL     1      -2.834   0.019   6.357  0.00  0.00    +0.157 A 
ATOM     10  C   UNL     1      -1.499   0.321   6.160  0.00  0.00    +0.052 A 
ATOM     11  C   UNL     1      -0.956   0.353   4.879  0.00  0.00    -0.040 A 
ATOM     12  C   UNL     1       0.500   0.708   4.755  0.00  0.00    +0.036 C 
ATOM     13  C   UNL     1       0.958   0.845   3.300  0.00  0.00    +0.009 C 
ATOM     14  C   UNL     1       0.276  -0.259   2.505  0.00  0.00    +0.001 C 
ATOM     15  C   UNL     1       0.841  -0.576   1.161  0.00  0.00    +0.006 C 
ATOM     16  C   UNL     1       2.238  -0.035   0.826  0.00  0.00    +0.012 C 
ATOM     17  C   UNL     1       2.290  -0.171  -0.722  0.00  0.00    +0.075 C 
ATOM     18  C   UNL     1       0.857  -0.408  -1.187  0.00  0.00    +0.139 C 
ATOM     19  O   UNL     1       0.472  -0.820  -2.246  0.00  0.00    -0.297 OA
ENDROOT
BRANCH   9  20
ATOM     20  O   UNL     1      -3.350  -0.003   7.615  0.00  0.00    -0.342 OA
BRANCH  20  21
ATOM     21  S   UNL     1      -3.264  -1.362   8.295  0.00  0.00    +0.151 S 
ATOM     22  O   UNL     1      -4.022  -1.264   9.493  0.00  0.00    -0.131 OA
ATOM     23  O   UNL     1      -3.540  -2.334   7.296  0.00  0.00    -0.131 OA
BRANCH  21  24
ATOM     24  C   UNL     1      -1.586  -1.598   8.779  0.00  0.00    +0.129 A 
ATOM     25  C   UNL     1      -0.695  -2.201   7.905  0.00  0.00    +0.034 A 
ATOM     26  C   UNL     1       0.622  -2.392   8.272  0.00  0.00    +0.048 A 
ATOM     27  C   UNL     1       1.063  -1.980   9.520  0.00  0.00    +0.131 A 
ATOM     28  C   UNL     1       0.165  -1.368  10.408  0.00  0.00    +0.106 A 
ATOM     29  C   UNL     1      -1.165  -1.176  10.020  0.00  0.00    +0.049 A 
BRANCH  28  30
ATOM     30  C   UNL     1       0.621  -0.927  11.735  0.00  0.00    +0.390 C 
ATOM     31  O   UNL     1      -0.166  -0.394  12.506  0.00  0.00    -0.240 OA
ATOM     32  O   UNL     1       1.786  -1.093  12.069  0.00  0.00    -0.240 OA
ENDBRANCH  28  30
BRANCH  27  33
ATOM     33  O   UNL     1       2.357  -2.168   9.882  0.00  0.00    -0.506 OA
ATOM     34  H   UNL     1       2.940  -1.432   9.652  0.00  0.00    +0.292 HD
ENDBRANCH  27  33
ENDBRANCH  21  24
ENDBRANCH  20  21
ENDBRANCH   9  20
TORSDOF 5
