REMARK  Name = ZINC08741781
REMARK  9 active torsions:
REMARK  status: ('A' for Active; 'I' for Inactive)
REMARK    1  A    between atoms: C_1  and  O_2
REMARK    2  A    between atoms: O_2  and  C_3
REMARK    3  A    between atoms: C_6  and  C_11
REMARK    4  A    between atoms: C_8  and  O_9
REMARK    5  A    between atoms: O_9  and  C_10
REMARK    6  A    between atoms: C_13  and  C_25
REMARK    7  A    between atoms: C_15  and  C_20
REMARK    8  A    between atoms: C_15  and  O_24
REMARK    9  A    between atoms: C_25  and  C_27
REMARK                            x       y       z     vdW  Elec       q    Type
REMARK                         _______ _______ _______ _____ _____    ______ ____
ROOT
ATOM      1  C   UNL     1       0.206   6.050  -0.474  0.00  0.00    +0.120 C 
ATOM      2  C   UNL     1       1.559   6.583   0.011  0.00  0.00    +0.145 C 
ATOM      3  C   UNL     1       2.068   7.615  -1.002  0.00  0.00    +0.243 C 
ATOM      4  N   UNL     1       1.054   8.655  -1.180  0.00  0.00    -0.264 N 
ATOM      5  C   UNL     1      -0.252   8.390  -1.020  0.00  0.00    +0.302 C 
ATOM      6  O   UNL     1      -1.054   9.288  -1.190  0.00  0.00    -0.253 OA
ATOM      7  N   UNL     1      -0.707   7.175  -0.681  0.00  0.00    -0.292 N 
ATOM      8  H   UNL     1       1.331   9.553  -1.417  0.00  0.00    +0.153 HD
ATOM      9  H   UNL     1      -1.661   7.039  -0.570  0.00  0.00    +0.151 HD
ENDROOT
BRANCH   1  13
ATOM     10  C   UNL     1      -1.427   3.411   2.468  0.00  0.00    +0.162 A 
ATOM     11  C   UNL     1      -1.532   4.784   2.629  0.00  0.00    +0.050 A 
ATOM     12  C   UNL     1      -1.003   5.634   1.677  0.00  0.00    +0.009 A 
ATOM     13  C   UNL     1      -0.368   5.119   0.562  0.00  0.00    -0.023 A 
ATOM     14  C   UNL     1      -0.254   3.751   0.398  0.00  0.00    +0.055 A 
ATOM     15  C   UNL     1      -0.787   2.893   1.346  0.00  0.00    +0.162 A 
BRANCH  10  17
ATOM     16  C   UNL     1      -2.588   3.176   4.530  0.00  0.00    +0.277 C 
ATOM     17  O   UNL     1      -1.946   2.574   3.405  0.00  0.00    -0.491 OA
ENDBRANCH  10  17
BRANCH  15  18
ATOM     18  O   UNL     1      -0.682   1.547   1.184  0.00  0.00    -0.491 OA
ATOM     19  C   UNL     1      -0.013   1.086   0.008  0.00  0.00    +0.277 C 
ENDBRANCH  15  18
ENDBRANCH   1  13
BRANCH   3  20
ATOM     20  C   UNL     1       3.362   8.245  -0.482  0.00  0.00    +0.436 C 
ATOM     21  F   UNL     1       3.115   8.870   0.745  0.00  0.00    -0.166 F 
ATOM     22  F   UNL     1       4.330   7.250  -0.313  0.00  0.00    -0.166 F 
ATOM     23  F   UNL     1       3.822   9.192  -1.403  0.00  0.00    -0.166 F 
ENDBRANCH   3  20
BRANCH   3  24
ATOM     24  O   UNL     1       2.319   6.973  -2.254  0.00  0.00    -0.364 OA
ATOM     25  H   UNL     1       2.641   7.570  -2.944  0.00  0.00    +0.212 HD
ENDBRANCH   3  24
BRANCH   2  26
ATOM     26  C   UNL     1       2.543   5.447   0.114  0.00  0.00    +0.179 C 
ATOM     27  O   UNL     1       2.445   4.489  -0.626  0.00  0.00    -0.291 OA
BRANCH  26  28
ATOM     28  C   UNL     1       3.580   5.496   1.072  0.00  0.00    +0.055 A 
ATOM     29  C   UNL     1       4.577   4.561   1.334  0.00  0.00    +0.019 A 
ATOM     30  C   UNL     1       5.469   4.865   2.328  0.00  0.00    +0.008 A 
ATOM     31  C   UNL     1       5.335   6.037   3.007  0.00  0.00    +0.046 A 
ATOM     32  S   UNL     1       3.948   6.768   2.268  0.00  0.00    -0.094 S 
ENDBRANCH  26  28
ENDBRANCH   2  26
TORSDOF 7
