REMARK  Name = ZINC08918396
REMARK  12 active torsions:
REMARK  status: ('A' for Active; 'I' for Inactive)
REMARK    1  A    between atoms: C_1  and  C_2
REMARK    2  A    between atoms: C_2  and  C_3
REMARK    3  A    between atoms: C_3  and  C_5
REMARK    4  A    between atoms: C_3  and  C_6
REMARK    5  A    between atoms: C_6  and  C_8
REMARK    6  A    between atoms: C_6  and  N_27
REMARK    7  A    between atoms: C_13  and  C_16
REMARK    8  A    between atoms: N_18  and  C_19
REMARK    9  A    between atoms: C_19  and  C_25
REMARK   10  A    between atoms: N_27  and  S_28
REMARK   11  A    between atoms: S_28  and  C_31
REMARK   12  A    between atoms: C_34  and  C_37
REMARK                            x       y       z     vdW  Elec       q    Type
REMARK                         _______ _______ _______ _____ _____    ______ ____
ROOT
ATOM      1  C   UNL     1      -2.897   3.568   3.126  0.00  0.00    +0.234 C 
ATOM      2  O   UNL     1      -3.155   3.012   4.173  0.00  0.00    -0.274 OA
ATOM      3  N   UNL     1      -3.877   4.175   2.427  0.00  0.00    -0.300 N 
ATOM      4  C   UNL     1      -3.600   4.769   1.112  0.00  0.00    +0.108 C 
ATOM      5  C   UNL     1      -4.064   6.224   1.115  0.00  0.00    +0.032 C 
ATOM      6  C   UNL     1      -5.534   6.287   1.537  0.00  0.00    +0.078 C 
ATOM      7  C   UNL     1      -5.685   5.726   2.953  0.00  0.00    +0.032 C 
ATOM      8  C   UNL     1      -5.240   4.261   2.968  0.00  0.00    +0.108 C 
ENDROOT
BRANCH   6   9
ATOM      9  C   UNL     1      -6.003   7.719   1.511  0.00  0.00    +0.217 C 
ATOM     10  O   UNL     1      -6.417   8.240   2.525  0.00  0.00    -0.275 OA
ATOM     11  N   UNL     1      -5.963   8.421   0.361  0.00  0.00    -0.300 N 
ATOM     12  H   UNL     1      -5.631   8.004  -0.450  0.00  0.00    +0.150 HD
BRANCH  11  13
ATOM     13  C   UNL     1      -6.418   9.813   0.336  0.00  0.00    +0.136 C 
ATOM     14  C   UNL     1      -7.888   9.876   0.756  0.00  0.00    +0.037 C 
ATOM     15  C   UNL     1      -8.732   9.045  -0.214  0.00  0.00    +0.003 C 
ATOM     16  C   UNL     1      -8.581   9.606  -1.629  0.00  0.00    +0.000 C 
ATOM     17  C   UNL     1      -7.111   9.543  -2.049  0.00  0.00    +0.003 C 
ATOM     18  C   UNL     1      -6.268  10.373  -1.079  0.00  0.00    +0.037 C 
BRANCH  13  19
ATOM     19  C   UNL     1      -5.588  10.630   1.291  0.00  0.00    +0.379 C 
ATOM     20  O   UNL     1      -5.316  11.777   1.026  0.00  0.00    -0.244 OA
ATOM     21  O   UNL     1      -5.151  10.085   2.437  0.00  0.00    -0.244 OA
ENDBRANCH  13  19
ENDBRANCH  11  13
ENDBRANCH   6   9
BRANCH   1  22
ATOM     22  C   UNL     1      -1.482   3.580   2.608  0.00  0.00    +0.165 C 
BRANCH  22  23
ATOM     23  C   UNL     1      -1.406   2.764   1.315  0.00  0.00    +0.013 C 
ATOM     24  C   UNL     1      -0.000   2.879   0.722  0.00  0.00    +0.009 C 
BRANCH  23  26
ATOM     25  C   UNL     1      -1.760   0.504   0.312  0.00  0.00    +0.004 C 
ATOM     26  C   UNL     1      -1.713   1.297   1.619  0.00  0.00    +0.002 C 
ENDBRANCH  23  26
ENDBRANCH  22  23
BRANCH  22  27
ATOM     27  N   UNL     1      -0.590   2.992   3.610  0.00  0.00    -0.178 NA
ATOM     28  H   UNL     1      -0.786   2.117   3.980  0.00  0.00    +0.149 HD
BRANCH  27  29
ATOM     29  S   UNL     1       0.753   3.821   4.110  0.00  0.00    +0.059 S 
ATOM     30  O   UNL     1       1.376   3.021   5.107  0.00  0.00    -0.153 OA
ATOM     31  O   UNL     1       1.433   4.240   2.935  0.00  0.00    -0.153 OA
BRANCH  29  32
ATOM     32  C   UNL     1       0.192   5.284   4.916  0.00  0.00    +0.105 A 
ATOM     33  C   UNL     1       0.005   6.445   4.189  0.00  0.00    +0.029 A 
ATOM     34  C   UNL     1      -0.439   7.591   4.821  0.00  0.00    +0.005 A 
ATOM     35  C   UNL     1      -0.687   7.580   6.181  0.00  0.00    -0.050 A 
ATOM     36  C   UNL     1      -0.496   6.420   6.908  0.00  0.00    +0.005 A 
ATOM     37  C   UNL     1      -0.056   5.272   6.276  0.00  0.00    +0.029 A 
ATOM     38  C   UNL     1      -1.167   8.831   6.870  0.00  0.00    +0.044 C 
ENDBRANCH  29  32
ENDBRANCH  27  29
ENDBRANCH  22  27
ENDBRANCH   1  22
TORSDOF 9
