REMARK  Name = ZINC09576899
REMARK  9 active torsions:
REMARK  status: ('A' for Active; 'I' for Inactive)
REMARK    1  A    between atoms: C_1  and  C_2
REMARK    2  A    between atoms: C_3  and  C_30
REMARK    3  A    between atoms: C_7  and  N_16
REMARK    4  A    between atoms: C_9  and  C_11
REMARK    5  A    between atoms: N_16  and  C_17
REMARK    6  A    between atoms: C_17  and  C_19
REMARK    7  A    between atoms: C_17  and  C_20
REMARK    8  A    between atoms: C_23  and  S_26
REMARK    9  A    between atoms: S_26  and  C_29
REMARK                            x       y       z     vdW  Elec       q    Type
REMARK                         _______ _______ _______ _____ _____    ______ ____
ROOT
ATOM      1  C   UNL     1       0.769   4.900   6.544  0.00  0.00    +0.045 C 
ATOM      2  C   UNL     1       0.347   4.749   7.983  0.00  0.00    -0.028 A 
ATOM      3  C   UNL     1       1.099   5.264   8.968  0.00  0.00    -0.008 A 
ATOM      4  S   UNL     1       0.201   4.832  10.447  0.00  0.00    -0.073 S 
ATOM      5  C   UNL     1      -1.159   3.971   9.702  0.00  0.00    +0.114 A 
ATOM      6  C   UNL     1      -0.874   4.039   8.320  0.00  0.00    +0.051 A 
ATOM      7  C   UNL     1      -1.828   3.418   7.465  0.00  0.00    +0.132 A 
ATOM      8  N   UNL     1      -2.884   2.826   7.994  0.00  0.00    -0.212 NA
ATOM      9  C   UNL     1      -3.091   2.794   9.309  0.00  0.00    +0.169 A 
ATOM     10  N   UNL     1      -2.235   3.362  10.155  0.00  0.00    -0.219 NA
ATOM     11  C   UNL     1       2.393   6.027   8.852  0.00  0.00    +0.052 C 
ENDROOT
BRANCH   9  12
ATOM     12  C   UNL     1      -4.290   2.117   9.838  0.00  0.00    +0.056 A 
ATOM     13  C   UNL     1      -4.694   1.967  11.139  0.00  0.00    +0.019 A 
ATOM     14  C   UNL     1      -5.863   1.289  11.394  0.00  0.00    +0.008 A 
ATOM     15  C   UNL     1      -6.580   0.789  10.353  0.00  0.00    +0.046 A 
ATOM     16  S   UNL     1      -5.596   1.287   8.949  0.00  0.00    -0.094 S 
ENDBRANCH   9  12
BRANCH   7  17
ATOM     17  N   UNL     1      -1.648   3.429   6.093  0.00  0.00    -0.322 N 
ATOM     18  H   UNL     1      -0.828   3.782   5.714  0.00  0.00    +0.148 HD
BRANCH  17  19
ATOM     19  C   UNL     1      -2.697   2.907   5.213  0.00  0.00    +0.099 C 
ATOM     20  C   UNL     1      -3.726   4.005   4.939  0.00  0.00    +0.033 C 
BRANCH  19  21
ATOM     21  C   UNL     1      -2.083   2.459   3.912  0.00  0.00    -0.027 A 
ATOM     22  C   UNL     1      -2.524   1.299   3.303  0.00  0.00    +0.007 A 
ATOM     23  C   UNL     1      -1.962   0.888   2.108  0.00  0.00    +0.027 A 
ATOM     24  C   UNL     1      -0.958   1.637   1.523  0.00  0.00    +0.088 A 
ATOM     25  C   UNL     1      -0.513   2.794   2.135  0.00  0.00    +0.027 A 
ATOM     26  C   UNL     1      -1.079   3.207   3.327  0.00  0.00    +0.007 A 
BRANCH  24  27
ATOM     27  S   UNL     1      -0.241   1.114   0.001  0.00  0.00    -0.006 S 
ATOM     28  O   UNL     1      -0.426  -0.295  -0.021  0.00  0.00    -0.170 OA
ATOM     29  O   UNL     1       1.065   1.673   0.004  0.00  0.00    -0.170 OA
ATOM     30  C   UNL     1      -1.254   1.896  -1.284  0.00  0.00    +0.200 C 
ENDBRANCH  24  27
ENDBRANCH  19  21
ENDBRANCH  17  19
ENDBRANCH   7  17
TORSDOF 5
