REMARK  Name = ZINC39634358
REMARK  7 active torsions:
REMARK  status: ('A' for Active; 'I' for Inactive)
REMARK    1  A    between atoms: C_1  and  C_2
REMARK    2  A    between atoms: C_5  and  C_8
REMARK    3  A    between atoms: C_8  and  N_9
REMARK    4  A    between atoms: C_10  and  C_12
REMARK    5  A    between atoms: C_23  and  C_25
REMARK    6  A    between atoms: C_27  and  O_32
REMARK    7  A    between atoms: O_32  and  C_33
REMARK                            x       y       z     vdW  Elec       q    Type
REMARK                         _______ _______ _______ _____ _____    ______ ____
ROOT
ATOM      1  C   UNL     1       2.514  -6.718   0.074  0.00  0.00    +0.100 C 
ATOM      2  C   UNL     1       3.432  -6.075   1.138  0.00  0.00    +0.121 C 
ATOM      3  N   UNL     1       3.586  -7.117   2.179  0.00  0.00    -0.296 N 
ATOM      4  C   UNL     1       3.702  -8.384   1.418  0.00  0.00    +0.115 C 
ATOM      5  C   UNL     1       2.697  -8.234   0.259  0.00  0.00    -0.004 C 
ATOM      6  C   UNL     1       3.261  -8.857  -1.014  0.00  0.00    -0.010 C 
ATOM      7  C   UNL     1       3.379 -10.372  -0.826  0.00  0.00    -0.082 C 
ATOM      8  N   UNL     1       2.057 -10.935  -0.526  0.00  0.00    +0.379 N 
ATOM      9  C   UNL     1       1.563 -10.400   0.748  0.00  0.00    -0.082 C 
ATOM     10  C   UNL     1       1.367  -8.886   0.627  0.00  0.00    -0.010 C 
ATOM     11  C   UNL     1       3.615  -6.952   3.517  0.00  0.00    +0.248 C 
ATOM     12  O   UNL     1       3.846  -7.899   4.242  0.00  0.00    -0.270 OA
ATOM     13  H   UNL     1       1.414 -10.690  -1.264  0.00  0.00    -0.086 HD
ATOM     14  H   UNL     1       2.127 -11.939  -0.463  0.00  0.00    -0.086 HD
ENDROOT
BRANCH  11  15
ATOM     15  C   UNL     1       3.366  -5.617   4.101  0.00  0.00    +0.054 A 
ATOM     16  C   UNL     1       3.820  -4.471   3.449  0.00  0.00    +0.059 A 
ATOM     17  C   UNL     1       3.583  -3.224   4.002  0.00  0.00    +0.121 A 
ATOM     18  C   UNL     1       2.894  -3.116   5.203  0.00  0.00    +0.047 A 
ATOM     19  C   UNL     1       2.442  -4.250   5.851  0.00  0.00    +0.019 A 
ATOM     20  C   UNL     1       2.669  -5.499   5.306  0.00  0.00    +0.030 A 
ATOM     21 BR   UNL     1       2.043  -7.047   6.193  0.00  0.00    -0.050 Br
BRANCH  17  22
ATOM     22  O   UNL     1       4.024  -2.105   3.369  0.00  0.00    -0.495 OA
ATOM     23  C   UNL     1       3.744  -0.852   3.997  0.00  0.00    +0.277 C 
ENDBRANCH  17  22
ENDBRANCH  11  15
BRANCH   1  25
ATOM     24  N   UNL     1       0.208  -6.289  -0.712  0.00  0.00    -0.311 N 
ATOM     25  C   UNL     1       1.078  -6.330   0.317  0.00  0.00    +0.218 C 
ATOM     26  O   UNL     1       0.705  -6.053   1.438  0.00  0.00    -0.275 OA
ATOM     27  H   UNL     1       0.506  -6.510  -1.608  0.00  0.00    +0.149 HD
BRANCH  24  28
ATOM     28  C   UNL     1      -1.188  -5.912  -0.476  0.00  0.00    +0.139 C 
BRANCH  28  33
ATOM     29  C   UNL     1      -4.090  -6.037  -5.471  0.00  0.00    +0.044 C 
ATOM     30  C   UNL     1      -3.333  -6.004  -4.169  0.00  0.00    -0.050 A 
ATOM     31  C   UNL     1      -3.264  -7.138  -3.381  0.00  0.00    +0.003 A 
ATOM     32  C   UNL     1      -2.570  -7.108  -2.186  0.00  0.00    +0.005 A 
ATOM     33  C   UNL     1      -1.944  -5.944  -1.779  0.00  0.00    -0.030 A 
ATOM     34  C   UNL     1      -2.013  -4.811  -2.567  0.00  0.00    +0.005 A 
ATOM     35  C   UNL     1      -2.704  -4.842  -3.764  0.00  0.00    +0.003 A 
ENDBRANCH  28  33
ENDBRANCH  24  28
ENDBRANCH   1  25
TORSDOF 5
