REMARK  Name = ZINC31057096
REMARK  6 active torsions:
REMARK  status: ('A' for Active; 'I' for Inactive)
REMARK    1  A    between atoms: C_3  and  C_6
REMARK    2  A    between atoms: C_8  and  C_11
REMARK    3  A    between atoms: C_11  and  N_12
REMARK    4  A    between atoms: C_16  and  C_19
REMARK    5  A    between atoms: N_21  and  C_22
REMARK    6  A    between atoms: C_25  and  C_28
REMARK                            x       y       z     vdW  Elec       q    Type
REMARK                         _______ _______ _______ _____ _____    ______ ____
ROOT
ATOM      1  C   UNL     1      -3.659   9.459  -4.903  0.00  0.00    +0.218 C 
ATOM      2  O   UNL     1      -3.357  10.297  -5.727  0.00  0.00    -0.275 OA
ATOM      3  N   UNL     1      -4.646   9.708  -4.019  0.00  0.00    -0.285 N 
ATOM      4  H   UNL     1      -4.971   8.921  -3.323  0.00  0.00    +0.155 HD
ENDROOT
BRANCH   1   9
ATOM      5  N   UNL     1      -1.143   6.838  -5.921  0.00  0.00    +0.386 N 
ATOM      6  C   UNL     1      -0.446   6.670  -4.640  0.00  0.00    -0.078 C 
ATOM      7  C   UNL     1      -1.467   6.652  -3.500  0.00  0.00    -0.018 C 
ATOM      8  C   UNL     1      -2.254   7.966  -3.506  0.00  0.00    +0.009 C 
ATOM      9  C   UNL     1      -2.931   8.140  -4.868  0.00  0.00    +0.059 C 
ATOM     10  C   UNL     1      -1.867   8.114  -5.968  0.00  0.00    -0.065 C 
ATOM     11  H   UNL     1      -1.884   6.029  -6.008  0.00  0.00    -0.081 HD
BRANCH   5  12
ATOM     12  C   UNL     1      -0.208   6.721  -7.048  0.00  0.00    +0.022 C 
BRANCH  12  15
ATOM     13  C   UNL     1       1.520   3.576  -6.830  0.00  0.00    +0.209 A 
ATOM     14  N   UNL     1       0.456   4.303  -7.245  0.00  0.00    -0.192 NA
ATOM     15  C   UNL     1       0.685   5.526  -6.838  0.00  0.00    +0.211 A 
ATOM     16  O   UNL     1       1.863   5.517  -6.205  0.00  0.00    -0.340 OA
ATOM     17  N   UNL     1       2.329   4.398  -6.207  0.00  0.00    -0.056 NA
BRANCH  13  20
ATOM     18  C   UNL     1       2.762   0.004  -6.963  0.00  0.00    +0.008 A 
ATOM     19  C   UNL     1       2.785   1.345  -6.653  0.00  0.00    +0.019 A 
ATOM     20  C   UNL     1       1.732   2.129  -7.043  0.00  0.00    +0.060 A 
ATOM     21  S   UNL     1       0.680   0.948  -7.870  0.00  0.00    -0.093 S 
ATOM     22  C   UNL     1       1.700  -0.500  -7.645  0.00  0.00    +0.046 A 
ENDBRANCH  13  20
ENDBRANCH  12  15
ENDBRANCH   5  12
ENDBRANCH   1   9
BRANCH   3  23
ATOM     23  C   UNL     1      -5.256  10.966  -3.988  0.00  0.00    +0.033 A 
ATOM     24  C   UNL     1      -5.681  11.504  -2.780  0.00  0.00    +0.023 A 
ATOM     25  C   UNL     1      -6.278  12.749  -2.752  0.00  0.00    +0.006 A 
ATOM     26  C   UNL     1      -6.463  13.455  -3.926  0.00  0.00    -0.041 A 
ATOM     27  C   UNL     1      -6.046  12.921  -5.131  0.00  0.00    +0.006 A 
ATOM     28  C   UNL     1      -5.443  11.679  -5.165  0.00  0.00    +0.023 A 
BRANCH  26  29
ATOM     29  C   UNL     1      -7.120  14.811  -3.892  0.00  0.00    -0.003 C 
ATOM     30  C   UNL     1      -6.154  15.860  -4.448  0.00  0.00    +0.015 C 
ATOM     31  C   UNL     1      -6.821  17.236  -4.414  0.00  0.00    -0.010 C 
ATOM     32  C   UNL     1      -7.183  17.592  -2.970  0.00  0.00    +0.007 C 
ATOM     33  C   UNL     1      -8.149  16.543  -2.414  0.00  0.00    -0.010 C 
ATOM     34  C   UNL     1      -7.482  15.167  -2.448  0.00  0.00    +0.015 C 
ATOM     35  C   UNL     1      -9.419  16.516  -3.266  0.00  0.00    +0.007 C 
ATOM     36  C   UNL     1      -9.057  16.161  -4.710  0.00  0.00    -0.010 C 
ATOM     37  C   UNL     1      -8.091  17.209  -5.266  0.00  0.00    +0.007 C 
ATOM     38  C   UNL     1      -8.390  14.784  -4.744  0.00  0.00    +0.015 C 
ENDBRANCH  26  29
ENDBRANCH   3  23
TORSDOF 6
