REMARK  Name = ZINC41505001
REMARK  9 active torsions:
REMARK  status: ('A' for Active; 'I' for Inactive)
REMARK    1  A    between atoms: C_1  and  C_2
REMARK    2  A    between atoms: C_6  and  C_8
REMARK    3  A    between atoms: C_15  and  O_20
REMARK    4  A    between atoms: C_16  and  C_19
REMARK    5  A    between atoms: O_20  and  C_21
REMARK    6  A    between atoms: C_21  and  C_22
REMARK    7  A    between atoms: C_22  and  O_24
REMARK    8  A    between atoms: O_24  and  C_25
REMARK    9  A    between atoms: C_25  and  C_26
REMARK                            x       y       z     vdW  Elec       q    Type
REMARK                         _______ _______ _______ _____ _____    ______ ____
ROOT
ATOM      1  C   UNL     1       0.052  -2.845   2.448  0.00  0.00    +0.058 C 
ATOM      2  C   UNL     1      -0.032  -4.199   2.437  0.00  0.00    +0.176 C 
ATOM      3  C   UNL     1      -0.137  -5.073   3.616  0.00  0.00    +0.231 C 
ATOM      4  O   UNL     1      -0.168  -4.744   4.789  0.00  0.00    -0.283 OA
ATOM      5  C   UNL     1      -0.199  -6.437   3.060  0.00  0.00    +0.068 A 
ATOM      6  C   UNL     1      -0.303  -7.701   3.641  0.00  0.00    +0.019 A 
ATOM      7  C   UNL     1      -0.338  -8.814   2.850  0.00  0.00    +0.047 A 
ATOM      8  C   UNL     1      -0.270  -8.689   1.465  0.00  0.00    +0.128 A 
ATOM      9  C   UNL     1      -0.167  -7.441   0.874  0.00  0.00    +0.034 A 
ATOM     10  C   UNL     1      -0.130  -6.299   1.664  0.00  0.00    +0.146 A 
ATOM     11  O   UNL     1      -0.039  -4.991   1.339  0.00  0.00    -0.451 OA
ATOM     12  C   UNL     1      -0.093  -7.321  -0.627  0.00  0.00    +0.051 C 
ENDROOT
BRANCH   1  18
ATOM     13  C   UNL     1      -0.076   1.502   0.012  0.00  0.00    +0.044 C 
ATOM     14  C   UNL     1      -0.030  -0.004   0.003  0.00  0.00    -0.050 A 
ATOM     15  C   UNL     1      -0.008  -0.687  -1.201  0.00  0.00    +0.003 A 
ATOM     16  C   UNL     1       0.035  -2.070  -1.220  0.00  0.00    +0.001 A 
ATOM     17  C   UNL     1       0.054  -2.780  -0.038  0.00  0.00    +0.008 A 
ATOM     18  C   UNL     1       0.032  -2.097   1.183  0.00  0.00    -0.021 A 
ATOM     19  C   UNL     1      -0.005  -0.698   1.194  0.00  0.00    +0.011 A 
ENDBRANCH   1  18
BRANCH   8  20
ATOM     20  O   UNL     1      -0.305  -9.801   0.687  0.00  0.00    -0.480 OA
BRANCH  20  21
ATOM     21  C   UNL     1      -0.412 -11.059   1.357  0.00  0.00    +0.349 C 
BRANCH  21  22
ATOM     22  C   UNL     1      -0.436 -12.170   0.339  0.00  0.00    +0.345 C 
ATOM     23  O   UNL     1      -0.369 -11.911  -0.840  0.00  0.00    -0.247 OA
BRANCH  22  24
ATOM     24  O   UNL     1      -0.533 -13.447   0.741  0.00  0.00    -0.458 OA
BRANCH  24  25
ATOM     25  C   UNL     1      -0.550 -14.448  -0.278  0.00  0.00    +0.259 C 
BRANCH  25  26
ATOM     26  C   UNL     1      -0.662 -15.810   0.358  0.00  0.00    +0.006 C 
ATOM     27  C   UNL     1      -1.500 -16.692  -0.127  0.00  0.00    +0.007 C 
ENDBRANCH  25  26
ENDBRANCH  24  25
ENDBRANCH  22  24
ENDBRANCH  21  22
ENDBRANCH  20  21
ENDBRANCH   8  20
TORSDOF 7
