REMARK  Name = ZINC09283392
REMARK  12 active torsions:
REMARK  status: ('A' for Active; 'I' for Inactive)
REMARK    1  A    between atoms: C_1  and  C_2
REMARK    2  A    between atoms: C_3  and  C_28
REMARK    3  A    between atoms: C_4  and  N_11
REMARK    4  A    between atoms: C_6  and  C_7
REMARK    5  A    between atoms: C_7  and  O_9
REMARK    6  A    between atoms: O_9  and  C_10
REMARK    7  A    between atoms: C_12  and  C_14
REMARK    8  A    between atoms: C_14  and  O_15
REMARK    9  A    between atoms: O_15  and  C_16
REMARK   10  A    between atoms: C_16  and  C_18
REMARK   11  A    between atoms: C_28  and  O_30
REMARK   12  A    between atoms: O_30  and  C_31
REMARK                            x       y       z     vdW  Elec       q    Type
REMARK                         _______ _______ _______ _____ _____    ______ ____
ROOT
ATOM      1  N   UNL     1       4.019  11.189   0.022  0.00  0.00    -0.277 N 
ATOM      2  C   UNL     1       3.220  10.103   0.024  0.00  0.00    +0.255 C 
ATOM      3  O   UNL     1       2.015  10.238   0.037  0.00  0.00    -0.272 OA
ATOM      4  H   UNL     1       4.983  11.081   0.011  0.00  0.00    +0.155 HD
ENDROOT
BRANCH   1   8
ATOM      5  C   UNL     1       3.956  16.207   0.049  0.00  0.00    +0.046 C 
ATOM      6  C   UNL     1       3.334  14.834   0.047  0.00  0.00    -0.014 A 
ATOM      7  C   UNL     1       4.118  13.691   0.034  0.00  0.00    +0.091 A 
ATOM      8  C   UNL     1       3.465  12.454   0.034  0.00  0.00    +0.087 A 
ATOM      9  S   UNL     1       1.790  12.899   0.046  0.00  0.00    -0.066 S 
ATOM     10  C   UNL     1       1.974  14.673   0.060  0.00  0.00    +0.102 A 
BRANCH  10  11
ATOM     11  C   UNL     1       0.932  15.699   0.075  0.00  0.00    +0.346 C 
ATOM     12  O   UNL     1       1.238  16.876   0.078  0.00  0.00    -0.244 OA
BRANCH  11  13
ATOM     13  O   UNL     1      -0.368  15.340   0.086  0.00  0.00    -0.464 OA
ATOM     14  C   UNL     1      -1.332  16.394   0.101  0.00  0.00    +0.280 C 
ENDBRANCH  11  13
ENDBRANCH  10  11
BRANCH   7  15
ATOM     15  C   UNL     1       5.583  13.776   0.020  0.00  0.00    +0.342 C 
ATOM     16  O   UNL     1       6.180  13.817  -1.038  0.00  0.00    -0.245 OA
BRANCH  15  17
ATOM     17  O   UNL     1       6.267  13.809   1.182  0.00  0.00    -0.464 OA
ATOM     18  C   UNL     1       7.714  13.894   1.092  0.00  0.00    +0.280 C 
ENDBRANCH  15  17
ENDBRANCH   7  15
ENDBRANCH   1   8
BRANCH   2  19
ATOM     19  C   UNL     1       3.824   8.723   0.011  0.00  0.00    +0.328 C 
BRANCH  19  20
ATOM     20  O   UNL     1       2.764   7.731   0.016  0.00  0.00    -0.451 OA
BRANCH  20  21
ATOM     21  C   UNL     1       3.139   6.435   0.005  0.00  0.00    +0.348 C 
ATOM     22  O   UNL     1       4.319   6.143  -0.008  0.00  0.00    -0.244 OA
BRANCH  21  23
ATOM     23  C   UNL     1       2.122   5.378   0.010  0.00  0.00    +0.116 A 
ATOM     24  C   UNL     1       2.301   4.028   0.001  0.00  0.00    +0.070 A 
ATOM     25  C   UNL     1       1.183   3.173   0.007  0.00  0.00    +0.008 A 
ATOM     26  C   UNL     1       1.164   1.754   0.000  0.00  0.00    +0.010 A 
ATOM     27  C   UNL     1      -0.013   1.076   0.008  0.00  0.00    +0.001 A 
ATOM     28  C   UNL     1      -1.235   1.737   0.017  0.00  0.00    +0.001 A 
ATOM     29  C   UNL     1      -1.261   3.117   0.030  0.00  0.00    +0.016 A 
ATOM     30  C   UNL     1      -0.075   3.819   0.023  0.00  0.00    +0.022 A 
ATOM     31  S   UNL     1       0.345   5.544   0.028  0.00  0.00    -0.080 S 
ATOM     32 CL   UNL     1       3.905   3.364  -0.018  0.00  0.00    -0.082 Cl
ENDBRANCH  21  23
ENDBRANCH  20  21
ENDBRANCH  19  20
ENDBRANCH   2  19
TORSDOF 9
