REMARK  Name = ZINC08681444
REMARK  11 active torsions:
REMARK  status: ('A' for Active; 'I' for Inactive)
REMARK    1  A    between atoms: C_1  and  C_2
REMARK    2  A    between atoms: C_2  and  C_4
REMARK    3  A    between atoms: C_2  and  C_10
REMARK    4  A    between atoms: C_4  and  C_5
REMARK    5  A    between atoms: C_5  and  C_6
REMARK    6  A    between atoms: C_6  and  C_7
REMARK    7  A    between atoms: C_7  and  C_8
REMARK    8  A    between atoms: C_7  and  C_9
REMARK    9  A    between atoms: C_16  and  C_35
REMARK   10  A    between atoms: C_27  and  C_34
REMARK   11  A    between atoms: C_30  and  O_33
REMARK                            x       y       z     vdW  Elec       q    Type
REMARK                         _______ _______ _______ _____ _____    ______ ____
ROOT
ATOM      1  C   UNL     1       0.796  -0.565  -1.222  0.00  0.00    -0.002 C 
ATOM      2  C   UNL     1       0.811  -2.101  -1.113  0.00  0.00    +0.004 C 
ATOM      3  C   UNL     1       2.288  -2.514  -0.912  0.00  0.00    +0.005 C 
ATOM      4  C   UNL     1       2.939  -1.245  -0.332  0.00  0.00    +0.006 C 
ATOM      5  C   UNL     1       2.275  -0.104  -1.128  0.00  0.00    -0.025 C 
ATOM      6  C   UNL     1       2.811  -0.057  -2.560  0.00  0.00    +0.007 C 
ATOM      7  C   UNL     1       4.336   0.024  -2.571  0.00  0.00    +0.005 C 
ATOM      8  C   UNL     1       4.894  -1.239  -1.908  0.00  0.00    +0.010 C 
ATOM      9  C   UNL     1       4.443  -1.253  -0.462  0.00  0.00    +0.067 C 
ATOM     10  C   UNL     1       5.020  -2.507   0.164  0.00  0.00    +0.160 C 
ATOM     11  O   UNL     1       4.337  -3.267   0.819  0.00  0.00    -0.292 OA
ATOM     12  C   UNL     1       6.448  -2.753  -0.064  0.00  0.00    +0.046 C 
ATOM     13  C   UNL     1       7.071  -2.173  -1.090  0.00  0.00    -0.058 C 
ATOM     14  C   UNL     1       6.407  -1.268  -2.020  0.00  0.00    -0.007 C 
ATOM     15  C   UNL     1       6.800  -1.669  -3.446  0.00  0.00    +0.014 C 
ATOM     16  C   UNL     1       8.322  -1.746  -3.561  0.00  0.00    +0.032 C 
ATOM     17  C   UNL     1       8.846  -2.847  -2.636  0.00  0.00    +0.119 C 
ATOM     18  C   UNL     1       8.553  -2.453  -1.265  0.00  0.00    +0.062 C 
ATOM     19  C   UNL     1       6.929   0.150  -1.783  0.00  0.00    +0.016 C 
ATOM     20  C   UNL     1       2.408   1.240  -0.410  0.00  0.00    +0.012 C 
ENDROOT
BRANCH   1  22
ATOM     21  C   UNL     1      -1.496  -0.299  -0.264  0.00  0.00    +0.008 C 
ATOM     22  C   UNL     1      -0.016   0.036  -0.072  0.00  0.00    -0.010 C 
BRANCH  22  23
ATOM     23  C   UNL     1       0.472  -0.548   1.255  0.00  0.00    +0.003 C 
BRANCH  23  24
ATOM     24  C   UNL     1      -0.310   0.084   2.409  0.00  0.00    +0.001 C 
BRANCH  24  25
ATOM     25  C   UNL     1       0.177  -0.500   3.736  0.00  0.00    +0.003 C 
BRANCH  25  26
ATOM     26  C   UNL     1      -0.604   0.132   4.889  0.00  0.00    -0.017 C 
ATOM     27  C   UNL     1      -2.077  -0.269   4.787  0.00  0.00    +0.007 C 
ATOM     28  C   UNL     1      -0.034  -0.358   6.221  0.00  0.00    +0.007 C 
ENDBRANCH  25  26
ENDBRANCH  24  25
ENDBRANCH  23  24
ENDBRANCH  22  23
ENDBRANCH   1  22
BRANCH  17  29
ATOM     29  O   UNL     1       8.191  -4.080  -2.942  0.00  0.00    -0.391 OA
ATOM     30  H   UNL     1       8.475  -4.823  -2.392  0.00  0.00    +0.210 HD
ENDBRANCH  17  29
TORSDOF 6
