REMARK  Name = ZINC35544497
REMARK  8 active torsions:
REMARK  status: ('A' for Active; 'I' for Inactive)
REMARK    1  A    between atoms: C_1  and  C_2
REMARK    2  A    between atoms: C_2  and  O_3
REMARK    3  A    between atoms: O_3  and  C_4
REMARK    4  A    between atoms: C_4  and  C_6
REMARK    5  A    between atoms: C_13  and  C_15
REMARK    6  A    between atoms: C_20  and  N_39
REMARK    7  A    between atoms: N_28  and  C_31
REMARK    8  A    between atoms: C_31  and  C_32
REMARK                            x       y       z     vdW  Elec       q    Type
REMARK                         _______ _______ _______ _____ _____    ______ ____
ROOT
ATOM      1  C   UNL     1      -6.006  -5.910   0.701  0.00  0.00    +0.098 C 
ATOM      2  C   UNL     1      -6.211  -6.609  -0.626  0.00  0.00    +0.051 C 
ATOM      3  C   UNL     1      -5.617  -7.988  -0.635  0.00  0.00    -0.023 A 
ATOM      4  C   UNL     1      -5.157  -8.530  -1.822  0.00  0.00    +0.038 A 
ATOM      5  C   UNL     1      -4.612  -9.800  -1.840  0.00  0.00    +0.127 A 
ATOM      6  C   UNL     1      -4.523 -10.534  -0.671  0.00  0.00    +0.034 A 
ATOM      7  C   UNL     1      -4.979  -9.998   0.516  0.00  0.00    +0.025 A 
ATOM      8  C   UNL     1      -5.527  -8.720   0.538  0.00  0.00    +0.033 A 
ATOM      9  N   UNL     1      -5.975  -8.180   1.737  0.00  0.00    -0.329 N 
ATOM     10  C   UNL     1      -6.278  -6.768   1.906  0.00  0.00    +0.069 C 
ATOM     11  C   UNL     1      -7.718  -6.629   2.404  0.00  0.00    -0.055 C 
ATOM     12  N   UNL     1      -7.878  -7.428   3.628  0.00  0.00    +0.388 N 
ATOM     13  C   UNL     1      -7.654  -8.850   3.347  0.00  0.00    -0.059 C 
ATOM     14  C   UNL     1      -6.207  -9.062   2.899  0.00  0.00    +0.087 C 
ATOM     15  H   UNL     1      -7.213  -7.116   4.319  0.00  0.00    -0.081 HD
ENDROOT
BRANCH   1  22
ATOM     16  C   UNL     1      -2.974  -2.285   0.856  0.00  0.00    +0.115 C 
ATOM     17  C   UNL     1      -3.871  -1.472  -0.080  0.00  0.00    +0.018 C 
ATOM     18  C   UNL     1      -5.277  -2.077  -0.095  0.00  0.00    +0.020 C 
ATOM     19  C   UNL     1      -5.205  -3.513  -0.622  0.00  0.00    +0.108 C 
ATOM     20  N   UNL     1      -4.233  -4.264   0.184  0.00  0.00    -0.300 N 
ATOM     21  C   UNL     1      -2.876  -3.724   0.340  0.00  0.00    +0.122 C 
ATOM     22  C   UNL     1      -4.581  -5.427   0.771  0.00  0.00    +0.221 C 
ATOM     23  O   UNL     1      -3.746  -6.085   1.355  0.00  0.00    -0.275 OA
BRANCH  16  24
ATOM     24  C   UNL     1      -1.599  -1.670   0.895  0.00  0.00    +0.312 C 
ATOM     25  O   UNL     1      -0.638  -2.315   0.548  0.00  0.00    -0.250 OA
BRANCH  24  26
ATOM     26  O   UNL     1      -1.441  -0.405   1.315  0.00  0.00    -0.465 OA
BRANCH  26  28
ATOM     27  C   UNL     1      -0.130   1.558   1.831  0.00  0.00    +0.048 C 
ATOM     28  C   UNL     1      -0.110   0.114   1.326  0.00  0.00    +0.229 C 
ENDBRANCH  26  28
ENDBRANCH  24  26
ENDBRANCH  16  24
ENDBRANCH   1  22
BRANCH   5  29
ATOM     29  N   UNL     1      -4.120 -10.375  -3.112  0.00  0.00    +0.056 N 
ATOM     30  O   UNL     1      -4.197  -9.734  -4.135  0.00  0.00    -0.126 OA
ATOM     31  O   UNL     1      -3.643 -11.485  -3.130  0.00  0.00    -0.126 OA
ENDBRANCH   5  29
BRANCH  12  32
ATOM     32  C   UNL     1      -9.239  -7.246   4.150  0.00  0.00    +0.019 C 
BRANCH  32  33
ATOM     33  C   UNL     1      -9.372  -7.963   5.468  0.00  0.00    +0.199 C 
ATOM     34  O   UNL     1      -8.425  -8.567   5.928  0.00  0.00    -0.278 OA
ATOM     35  N   UNL     1     -10.542  -7.934   6.137  0.00  0.00    -0.303 N 
ATOM     36  C   UNL     1     -11.765  -7.250   5.694  0.00  0.00    +0.108 C 
ATOM     37  C   UNL     1     -12.833  -7.468   6.786  0.00  0.00    +0.020 C 
ATOM     38  C   UNL     1     -11.983  -7.784   8.045  0.00  0.00    +0.020 C 
ATOM     39  C   UNL     1     -10.809  -8.589   7.430  0.00  0.00    +0.108 C 
ENDBRANCH  32  33
ENDBRANCH  12  32
TORSDOF 7
