REMARK  Name = ZINC35992930
REMARK  10 active torsions:
REMARK  status: ('A' for Active; 'I' for Inactive)
REMARK    1  A    between atoms: C_1  and  C_2
REMARK    2  A    between atoms: C_2  and  O_3
REMARK    3  A    between atoms: O_3  and  C_4
REMARK    4  A    between atoms: C_4  and  C_6
REMARK    5  A    between atoms: C_7  and  C_22
REMARK    6  A    between atoms: N_8  and  C_21
REMARK    7  A    between atoms: C_12  and  C_14
REMARK    8  A    between atoms: C_22  and  N_23
REMARK    9  A    between atoms: N_27  and  S_30
REMARK   10  A    between atoms: S_30  and  C_33
REMARK                            x       y       z     vdW  Elec       q    Type
REMARK                         _______ _______ _______ _____ _____    ______ ____
ROOT
ATOM      1  C   UNL     1       0.800  -2.640  -3.227  0.00  0.00    +0.080 C 
ATOM      2  C   UNL     1       1.497  -3.694  -2.751  0.00  0.00    +0.041 C 
ATOM      3  N   UNL     1       2.807  -3.882  -3.088  0.00  0.00    -0.260 N 
ATOM      4  C   UNL     1       3.491  -3.062  -3.895  0.00  0.00    +0.307 C 
ATOM      5  O   UNL     1       4.656  -3.312  -4.138  0.00  0.00    -0.252 OA
ATOM      6  N   UNL     1       2.931  -1.968  -4.448  0.00  0.00    -0.288 N 
ATOM      7  C   UNL     1       1.518  -1.678  -4.152  0.00  0.00    +0.144 C 
ATOM      8  C   UNL     1       3.503  -5.046  -2.535  0.00  0.00    +0.139 C 
ATOM      9  H   UNL     1       3.445  -1.387  -5.030  0.00  0.00    +0.151 HD
ENDROOT
BRANCH   7  10
ATOM     10  C   UNL     1       1.449  -0.304  -3.537  0.00  0.00    -0.022 A 
ATOM     11  C   UNL     1       2.325   0.045  -2.527  0.00  0.00    +0.008 A 
ATOM     12  C   UNL     1       2.263   1.306  -1.963  0.00  0.00    +0.038 A 
ATOM     13  C   UNL     1       1.323   2.218  -2.410  0.00  0.00    +0.123 A 
ATOM     14  C   UNL     1       0.446   1.867  -3.423  0.00  0.00    +0.038 A 
ATOM     15  C   UNL     1       0.513   0.608  -3.989  0.00  0.00    +0.008 A 
ATOM     16  F   UNL     1       1.261   3.450  -1.860  0.00  0.00    -0.205 F 
ENDBRANCH   7  10
BRANCH   1  17
ATOM     17  C   UNL     1      -0.557  -2.444  -2.879  0.00  0.00    +0.339 C 
ATOM     18  O   UNL     1      -1.138  -3.273  -2.203  0.00  0.00    -0.245 OA
BRANCH  17  19
ATOM     19  O   UNL     1      -1.208  -1.338  -3.297  0.00  0.00    -0.462 OA
BRANCH  19  21
ATOM     20  C   UNL     1      -3.142   0.100  -3.471  0.00  0.00    +0.048 C 
ATOM     21  C   UNL     1      -2.577  -1.206  -2.908  0.00  0.00    +0.229 C 
ENDBRANCH  19  21
ENDBRANCH  17  19
ENDBRANCH   1  17
BRANCH   2  22
ATOM     22  C   UNL     1       0.820  -4.677  -1.832  0.00  0.00    +0.136 C 
BRANCH  22  23
ATOM     23  N   UNL     1      -0.050  -5.562  -2.618  0.00  0.00    -0.296 NA
ATOM     24  C   UNL     1       0.725  -6.405  -3.492  0.00  0.00    +0.086 C 
ATOM     25  C   UNL     1       0.035  -6.527  -4.873  0.00  0.00    +0.032 C 
ATOM     26  C   UNL     1      -1.501  -6.612  -4.683  0.00  0.00    +0.111 C 
ATOM     27  N   UNL     1      -1.960  -7.432  -3.597  0.00  0.00    -0.175 NA
ATOM     28  C   UNL     1      -2.142  -6.808  -2.243  0.00  0.00    +0.125 C 
ATOM     29  C   UNL     1      -0.802  -6.465  -1.748  0.00  0.00    +0.102 C 
BRANCH  27  30
ATOM     30  S   UNL     1      -2.284  -9.039  -3.833  0.00  0.00    +0.061 S 
ATOM     31  O   UNL     1      -3.204  -9.421  -2.819  0.00  0.00    -0.153 OA
ATOM     32  O   UNL     1      -2.566  -9.197  -5.217  0.00  0.00    -0.153 OA
BRANCH  30  33
ATOM     33  C   UNL     1      -0.793  -9.923  -3.519  0.00  0.00    +0.105 A 
ATOM     34  C   UNL     1       0.102 -10.157  -4.546  0.00  0.00    +0.028 A 
ATOM     35  C   UNL     1       1.272 -10.850  -4.300  0.00  0.00    +0.002 A 
ATOM     36  C   UNL     1       1.548 -11.309  -3.025  0.00  0.00    +0.000 A 
ATOM     37  C   UNL     1       0.654 -11.074  -1.997  0.00  0.00    +0.002 A 
ATOM     38  C   UNL     1      -0.514 -10.377  -2.243  0.00  0.00    +0.028 A 
ENDBRANCH  30  33
ENDBRANCH  27  30
ENDBRANCH  22  23
ENDBRANCH   2  22
TORSDOF 8
