REMARK  Name = ZINC63666504
REMARK  10 active torsions:
REMARK  status: ('A' for Active; 'I' for Inactive)
REMARK    1  A    between atoms: C_1  and  C_2
REMARK    2  A    between atoms: C_2  and  S_3
REMARK    3  A    between atoms: S_3  and  C_6
REMARK    4  A    between atoms: C_8  and  S_23
REMARK    5  A    between atoms: C_9  and  N_11
REMARK    6  A    between atoms: N_11  and  C_12
REMARK    7  A    between atoms: C_12  and  C_13
REMARK    8  A    between atoms: C_13  and  C_14
REMARK    9  A    between atoms: S_23  and  C_26
REMARK   10  A    between atoms: C_29  and  C_32
REMARK                            x       y       z     vdW  Elec       q    Type
REMARK                         _______ _______ _______ _____ _____    ______ ____
ROOT
ATOM      1  C   UNL     1       0.832  -2.361   1.341  0.00  0.00    +0.219 A 
ATOM      2  N   UNL     1       1.688  -3.178   0.767  0.00  0.00    -0.201 NA
ATOM      3  C   UNL     1       1.499  -4.481   0.759  0.00  0.00    +0.212 A 
ATOM      4  C   UNL     1       0.391  -5.004   1.360  0.00  0.00    +0.113 A 
ATOM      5  S   UNL     1      -0.390  -3.511   1.960  0.00  0.00    -0.032 S 
ENDROOT
BRANCH   1   6
ATOM      6  S   UNL     1       0.879  -0.605   1.472  0.00  0.00    +0.020 S 
ATOM      7  O   UNL     1       2.259  -0.273   1.388  0.00  0.00    -0.167 OA
ATOM      8  O   UNL     1       0.132  -0.308   2.643  0.00  0.00    -0.167 OA
BRANCH   6  10
ATOM      9  C   UNL     1      -0.019   1.526   0.010  0.00  0.00    +0.028 C 
ATOM     10  C   UNL     1       0.002  -0.004   0.002  0.00  0.00    +0.171 C 
ENDBRANCH   6  10
ENDBRANCH   1   6
BRANCH   3  11
ATOM     11  S   UNL     1       2.669  -5.542  -0.021  0.00  0.00    +0.044 S 
ATOM     12  O   UNL     1       1.973  -6.733  -0.362  0.00  0.00    -0.163 OA
ATOM     13  O   UNL     1       3.350  -4.755  -0.988  0.00  0.00    -0.163 OA
BRANCH  11  14
ATOM     14  C   UNL     1       3.862  -5.988   1.197  0.00  0.00    +0.095 A 
ATOM     15  C   UNL     1       4.989  -5.208   1.377  0.00  0.00    +0.028 A 
ATOM     16  C   UNL     1       5.925  -5.558   2.333  0.00  0.00    +0.005 A 
ATOM     17  C   UNL     1       5.734  -6.686   3.108  0.00  0.00    -0.050 A 
ATOM     18  C   UNL     1       4.606  -7.465   2.928  0.00  0.00    +0.005 A 
ATOM     19  C   UNL     1       3.668  -7.114   1.975  0.00  0.00    +0.028 A 
ATOM     20  C   UNL     1       6.754  -7.068   4.149  0.00  0.00    +0.044 C 
ENDBRANCH  11  14
ENDBRANCH   3  11
BRANCH   4  21
ATOM     21  N   UNL     1      -0.017  -6.334   1.478  0.00  0.00    -0.335 N 
ATOM     22  H   UNL     1       0.525  -7.043   1.097  0.00  0.00    +0.147 HD
BRANCH  21  23
ATOM     23  C   UNL     1      -1.263  -6.659   2.177  0.00  0.00    +0.106 C 
BRANCH  23  24
ATOM     24  C   UNL     1      -1.475  -8.175   2.164  0.00  0.00    +0.052 C 
BRANCH  24  25
ATOM     25  C   UNL     1      -2.756  -8.509   2.882  0.00  0.00    -0.040 C 
ATOM     26  C   UNL     1      -3.974  -8.702   2.326  0.00  0.00    -0.001 A 
ATOM     27  C   UNL     1      -4.452  -8.660   0.939  0.00  0.00    +0.010 A 
ATOM     28  C   UNL     1      -5.758  -8.902   0.688  0.00  0.00    +0.001 A 
ATOM     29  C   UNL     1      -6.666  -9.190   1.716  0.00  0.00    +0.002 A 
ATOM     30  C   UNL     1      -6.302  -9.247   3.015  0.00  0.00    +0.026 A 
ATOM     31  C   UNL     1      -4.952  -9.010   3.394  0.00  0.00    +0.043 A 
ATOM     32  N   UNL     1      -4.362  -9.007   4.565  0.00  0.00    -0.380 N 
ATOM     33  C   UNL     1      -2.940  -8.702   4.371  0.00  0.00    +0.144 C 
ATOM     34  H   UNL     1      -4.793  -9.180   5.416  0.00  0.00    +0.160 HD
ENDBRANCH  24  25
ENDBRANCH  23  24
ENDBRANCH  21  23
ENDBRANCH   4  21
TORSDOF 8
