REMARK  Name = ZINC41049123
REMARK  6 active torsions:
REMARK  status: ('A' for Active; 'I' for Inactive)
REMARK    1  A    between atoms: C_1  and  C_2
REMARK    2  A    between atoms: C_3  and  S_8
REMARK    3  A    between atoms: S_8  and  C_9
REMARK    4  A    between atoms: C_9  and  C_10
REMARK    5  A    between atoms: C_10  and  C_12
REMARK    6  A    between atoms: C_10  and  C_13
REMARK                            x       y       z     vdW  Elec       q    Type
REMARK                         _______ _______ _______ _____ _____    ______ ____
ROOT
ATOM      1  C   UNL     1      -0.018   1.503   0.010  0.00  0.00    +0.067 C 
ATOM      2  C   UNL     1       0.002  -0.004   0.002  0.00  0.00    +0.061 A 
ATOM      3  C   UNL     1       0.005  -0.682  -1.178  0.00  0.00    +0.069 A 
ATOM      4  S   UNL     1       0.031  -2.370  -0.589  0.00  0.00    -0.046 S 
ATOM      5  C   UNL     1       0.035  -1.995   1.158  0.00  0.00    +0.157 A 
ATOM      6  N   UNL     1       0.022  -0.675   1.141  0.00  0.00    -0.229 NA
ATOM      7  N   UNL     1       0.052  -2.861   2.245  0.00  0.00    -0.337 N 
ATOM      8  H   UNL     1       0.065  -3.820   2.100  0.00  0.00    +0.144 HD
ATOM      9  H   UNL     1       0.052  -2.507   3.148  0.00  0.00    +0.144 HD
ENDROOT
BRANCH   3  10
ATOM     10  S   UNL     1      -0.012  -0.066  -2.829  0.00  0.00    -0.116 S 
BRANCH  10  11
ATOM     11  C   UNL     1       0.003  -1.562  -3.855  0.00  0.00    +0.089 C 
BRANCH  11  12
ATOM     12  C   UNL     1      -0.010  -1.167  -5.333  0.00  0.00    +0.109 C 
ATOM     13  C   UNL     1       1.286  -0.428  -5.675  0.00  0.00    +0.020 C 
BRANCH  12  14
ATOM     14  C   UNL     1      -0.121  -2.406  -6.184  0.00  0.00    +0.360 C 
ATOM     15  O   UNL     1      -0.184  -3.503  -5.656  0.00  0.00    -0.246 OA
ATOM     16  O   UNL     1      -0.148  -2.310  -7.399  0.00  0.00    -0.246 OA
ENDBRANCH  12  14
ENDBRANCH  11  12
ENDBRANCH  10  11
ENDBRANCH   3  10
TORSDOF 4
