REMARK  Name = ZINC08709436
REMARK  16 active torsions:
REMARK  status: ('A' for Active; 'I' for Inactive)
REMARK    1  A    between atoms: C_1  and  C_2
REMARK    2  A    between atoms: C_2  and  C_3
REMARK    3  A    between atoms: C_2  and  C_4
REMARK    4  A    between atoms: C_4  and  C_6
REMARK    5  A    between atoms: C_4  and  N_23
REMARK    6  A    between atoms: C_6  and  O_8
REMARK    7  A    between atoms: O_8  and  C_9
REMARK    8  A    between atoms: C_9  and  C_10
REMARK    9  A    between atoms: C_10  and  C_12
REMARK   10  A    between atoms: C_13  and  N_22
REMARK   11  A    between atoms: N_14  and  C_21
REMARK   12  A    between atoms: C_24  and  C_26
REMARK   13  A    between atoms: C_29  and  C_32
REMARK   14  A    between atoms: C_32  and  C_33
REMARK   15  A    between atoms: C_32  and  C_34
REMARK   16  A    between atoms: C_32  and  C_35
REMARK                            x       y       z     vdW  Elec       q    Type
REMARK                         _______ _______ _______ _____ _____    ______ ____
ROOT
ATOM      1  C   UNL     1      -3.521   6.792   5.517  0.00  0.00    +0.328 C 
ATOM      2  O   UNL     1      -4.043   5.992   6.258  0.00  0.00    -0.249 OA
ENDROOT
BRANCH   1   3
ATOM      3  C   UNL     1      -3.685   8.269   5.766  0.00  0.00    +0.185 C 
BRANCH   3   4
ATOM      4  N   UNL     1      -4.513   8.474   6.957  0.00  0.00    -0.298 N 
ATOM      5  C   UNL     1      -5.210   9.618   7.105  0.00  0.00    +0.245 C 
ATOM      6  O   UNL     1      -5.151  10.480   6.250  0.00  0.00    -0.270 OA
ATOM      7  H   UNL     1      -4.560   7.786   7.640  0.00  0.00    +0.150 HD
BRANCH   5   8
ATOM      8  C   UNL     1      -6.045   9.826   8.307  0.00  0.00    +0.037 A 
ATOM      9  C   UNL     1      -6.119   8.836   9.288  0.00  0.00    +0.013 A 
ATOM     10  C   UNL     1      -6.897   9.037  10.409  0.00  0.00    +0.005 A 
ATOM     11  C   UNL     1      -7.611  10.213  10.558  0.00  0.00    -0.042 A 
ATOM     12  C   UNL     1      -7.545  11.197   9.587  0.00  0.00    +0.005 A 
ATOM     13  C   UNL     1      -6.767  11.010   8.463  0.00  0.00    +0.013 A 
BRANCH  11  14
ATOM     14  C   UNL     1      -8.463  10.424  11.783  0.00  0.00    -0.013 C 
ATOM     15  C   UNL     1      -9.920  10.628  11.362  0.00  0.00    +0.015 C 
ATOM     16  C   UNL     1      -8.362   9.197  12.692  0.00  0.00    +0.015 C 
ATOM     17  C   UNL     1      -7.972  11.661  12.539  0.00  0.00    +0.015 C 
ENDBRANCH  11  14
ENDBRANCH   5   8
ENDBRANCH   3   4
BRANCH   3  19
ATOM     18  C   UNL     1      -1.446   8.690   4.741  0.00  0.00    +0.009 C 
ATOM     19  C   UNL     1      -2.311   8.905   5.985  0.00  0.00    +0.014 C 
ATOM     20  C   UNL     1      -2.477  10.404   6.238  0.00  0.00    +0.009 C 
ENDBRANCH   3  19
ENDBRANCH   1   3
BRANCH   1  21
ATOM     21  O   UNL     1      -2.796   6.364   4.472  0.00  0.00    -0.455 OA
BRANCH  21  22
ATOM     22  C   UNL     1      -2.681   4.927   4.293  0.00  0.00    +0.311 C 
BRANCH  22  23
ATOM     23  C   UNL     1      -1.837   4.638   3.078  0.00  0.00    +0.209 C 
ATOM     24  O   UNL     1      -1.377   5.554   2.426  0.00  0.00    -0.288 OA
BRANCH  23  25
ATOM     25  C   UNL     1      -1.581   3.304   2.698  0.00  0.00    +0.123 A 
ATOM     26  C   UNL     1      -0.902   3.007   1.504  0.00  0.00    +0.116 A 
ATOM     27  N   UNL     1      -0.682   1.700   1.176  0.00  0.00    -0.285 N 
ATOM     28  C   UNL     1      -1.092   0.702   1.975  0.00  0.00    +0.330 A 
ATOM     29  O   UNL     1      -0.868  -0.445   1.641  0.00  0.00    -0.246 OA
ATOM     30  N   UNL     1      -1.741   0.924   3.129  0.00  0.00    -0.274 N 
ATOM     31  H   UNL     1      -2.028   0.148   3.692  0.00  0.00    +0.173 HD
ATOM     32  C   UNL     1      -2.012   2.180   3.540  0.00  0.00    +0.266 A 
ATOM     33  O   UNL     1      -2.600   2.378   4.587  0.00  0.00    -0.267 OA
ATOM     34  C   UNL     1       0.020   1.380  -0.069  0.00  0.00    +0.155 C 
BRANCH  26  35
ATOM     35  N   UNL     1      -0.475   4.006   0.685  0.00  0.00    -0.344 N 
ATOM     36  H   UNL     1      -0.083   3.793  -0.176  0.00  0.00    +0.144 HD
ATOM     37  H   UNL     1      -0.562   4.931   0.962  0.00  0.00    +0.144 HD
ENDBRANCH  26  35
ENDBRANCH  23  25
ENDBRANCH  22  23
ENDBRANCH  21  22
ENDBRANCH   1  21
TORSDOF 10
