REMARK  Name = ZINC22697249
REMARK  12 active torsions:
REMARK  status: ('A' for Active; 'I' for Inactive)
REMARK    1  A    between atoms: C_1  and  C_2
REMARK    2  A    between atoms: C_2  and  N_3
REMARK    3  A    between atoms: C_4  and  C_32
REMARK    4  A    between atoms: C_7  and  C_10
REMARK    5  A    between atoms: C_10  and  C_12
REMARK    6  A    between atoms: C_10  and  N_20
REMARK    7  A    between atoms: C_15  and  S_18
REMARK    8  A    between atoms: S_18  and  C_19
REMARK    9  A    between atoms: C_23  and  C_26
REMARK   10  A    between atoms: C_26  and  O_28
REMARK   11  A    between atoms: O_28  and  C_29
REMARK   12  A    between atoms: C_29  and  C_30
REMARK                            x       y       z     vdW  Elec       q    Type
REMARK                         _______ _______ _______ _____ _____    ______ ____
ROOT
ATOM      1  C   UNL     1       2.898   2.109   4.593  0.00  0.00    +0.002 C 
ENDROOT
BRANCH   1   6
ATOM      2  N   UNL     1       0.107   0.972   2.347  0.00  0.00    -0.313 N 
ATOM      3  C   UNL     1      -0.437  -0.049   3.060  0.00  0.00    +0.023 A 
ATOM      4  C   UNL     1       0.072  -0.404   4.260  0.00  0.00    +0.072 A 
ATOM      5  C   UNL     1       1.174   0.296   4.788  0.00  0.00    +0.188 A 
ATOM      6  C   UNL     1       1.719   1.337   4.059  0.00  0.00    +0.054 A 
ATOM      7  C   UNL     1       1.160   1.665   2.818  0.00  0.00    +0.257 A 
ATOM      8  O   UNL     1       1.630   2.582   2.162  0.00  0.00    -0.267 OA
ATOM      9  O   UNL     1       1.693  -0.045   5.992  0.00  0.00    -0.287 OA
ATOM     10  C   UNL     1      -1.619  -0.798   2.503  0.00  0.00    +0.064 C 
BRANCH   2  12
ATOM     11  C   UNL     1      -1.533   2.407   1.238  0.00  0.00    +0.027 C 
ATOM     12  C   UNL     1      -0.466   1.328   1.046  0.00  0.00    +0.122 C 
ENDBRANCH   2  12
ENDBRANCH   1   6
BRANCH   1  13
ATOM     13  N   UNL     1       3.985   2.087   3.605  0.00  0.00    +0.387 N 
ATOM     14  C   UNL     1       4.345   0.709   3.248  0.00  0.00    -0.077 C 
ATOM     15  C   UNL     1       5.374   0.727   2.115  0.00  0.00    -0.004 C 
ATOM     16  C   UNL     1       6.616   1.496   2.573  0.00  0.00    +0.094 C 
ATOM     17  C   UNL     1       6.207   2.912   2.986  0.00  0.00    -0.004 C 
ATOM     18  C   UNL     1       5.154   2.831   4.093  0.00  0.00    -0.077 C 
ATOM     19  H   UNL     1       3.626   2.588   2.694  0.00  0.00    -0.080 HD
BRANCH  16  20
ATOM     20  C   UNL     1       7.610   1.568   1.442  0.00  0.00    +0.310 C 
ATOM     21  O   UNL     1       7.957   2.641   1.010  0.00  0.00    -0.251 OA
BRANCH  20  22
ATOM     22  O   UNL     1       8.111   0.439   0.916  0.00  0.00    -0.465 OA
BRANCH  22  23
ATOM     23  C   UNL     1       9.063   0.584  -0.171  0.00  0.00    +0.229 C 
ATOM     24  C   UNL     1       9.519  -0.799  -0.638  0.00  0.00    +0.048 C 
ENDBRANCH  22  23
ENDBRANCH  20  22
ENDBRANCH  16  20
ENDBRANCH   1  13
BRANCH   1  25
ATOM     25  C   UNL     1       2.488   3.534   4.858  0.00  0.00    -0.056 A 
ATOM     26  C   UNL     1       2.420   4.438   3.813  0.00  0.00    +0.003 A 
ATOM     27  C   UNL     1       2.039   5.744   4.051  0.00  0.00    +0.015 A 
ATOM     28  C   UNL     1       1.734   6.152   5.344  0.00  0.00    +0.008 A 
ATOM     29  C   UNL     1       1.809   5.243   6.393  0.00  0.00    +0.015 A 
ATOM     30  C   UNL     1       2.185   3.937   6.146  0.00  0.00    +0.003 A 
BRANCH  28  31
ATOM     31  S   UNL     1       1.256   7.819   5.654  0.00  0.00    -0.129 S 
ATOM     32  C   UNL     1       1.304   8.601   4.018  0.00  0.00    +0.090 C 
ENDBRANCH  28  31
ENDBRANCH   1  25
TORSDOF 8
