REMARK  Name = ZINC59378858
REMARK  10 active torsions:
REMARK  status: ('A' for Active; 'I' for Inactive)
REMARK    1  A    between atoms: C_4  and  C_7
REMARK    2  A    between atoms: C_12  and  O_13
REMARK    3  A    between atoms: O_13  and  C_14
REMARK    4  A    between atoms: C_14  and  C_15
REMARK    5  A    between atoms: C_15  and  N_16
REMARK    6  A    between atoms: C_17  and  C_32
REMARK    7  A    between atoms: N_18  and  N_19
REMARK    8  A    between atoms: N_19  and  C_20
REMARK    9  A    between atoms: C_23  and  N_29
REMARK   10  A    between atoms: C_25  and  N_26
REMARK                            x       y       z     vdW  Elec       q    Type
REMARK                         _______ _______ _______ _____ _____    ______ ____
ROOT
ATOM      1  N   UNL     1       1.080  -5.057   3.286  0.00  0.00    -0.323 N 
ATOM      2  C   UNL     1      -0.159  -5.093   3.907  0.00  0.00    +0.191 C 
ATOM      3  N   UNL     1      -0.285  -4.671   5.123  0.00  0.00    -0.290 N 
ATOM      4  H   UNL     1       1.174  -5.374   2.374  0.00  0.00    +0.148 HD
ATOM      5  H   UNL     1       0.499  -4.409   5.630  0.00  0.00    +0.186 HD
ENDROOT
BRANCH   2   6
ATOM      6  C   UNL     1      -1.359  -5.624   3.166  0.00  0.00    +0.447 C 
ATOM      7  F   UNL     1      -0.959  -6.102   1.913  0.00  0.00    -0.163 F 
ATOM      8  F   UNL     1      -1.937  -6.666   3.900  0.00  0.00    -0.163 F 
ATOM      9  F   UNL     1      -2.294  -4.598   2.996  0.00  0.00    -0.163 F 
ENDBRANCH   2   6
BRANCH   3  10
ATOM     10  N   UNL     1      -1.556  -4.593   5.709  0.00  0.00    -0.257 N 
ATOM     11  H   UNL     1      -2.332  -4.921   5.230  0.00  0.00    +0.172 HD
BRANCH  10  12
ATOM     12  C   UNL     1      -1.704  -4.042   6.982  0.00  0.00    +0.077 A 
ATOM     13  C   UNL     1      -0.582  -3.682   7.720  0.00  0.00    +0.029 A 
ATOM     14  C   UNL     1      -0.732  -3.137   8.979  0.00  0.00    +0.035 A 
ATOM     15  C   UNL     1      -1.997  -2.950   9.507  0.00  0.00    +0.128 A 
ATOM     16  C   UNL     1      -3.115  -3.308   8.777  0.00  0.00    +0.067 A 
ATOM     17  C   UNL     1      -2.973  -3.847   7.513  0.00  0.00    +0.151 A 
BRANCH  17  18
ATOM     18  N   UNL     1      -4.171  -4.224   6.729  0.00  0.00    +0.058 N 
ATOM     19  O   UNL     1      -4.194  -4.039   5.534  0.00  0.00    -0.126 OA
ATOM     20  O   UNL     1      -5.127  -4.716   7.283  0.00  0.00    -0.126 OA
ENDBRANCH  17  18
BRANCH  15  21
ATOM     21  N   UNL     1      -2.154  -2.365  10.860  0.00  0.00    +0.056 N 
ATOM     22  O   UNL     1      -1.177  -2.052  11.500  0.00  0.00    -0.126 OA
ATOM     23  O   UNL     1      -3.259  -2.201  11.322  0.00  0.00    -0.126 OA
ENDBRANCH  15  21
ENDBRANCH  10  12
ENDBRANCH   3  10
BRANCH   1  24
ATOM     24  C   UNL     1       2.246  -4.541   4.007  0.00  0.00    +0.144 C 
BRANCH  24  25
ATOM     25  C   UNL     1       3.477  -4.611   3.102  0.00  0.00    +0.247 C 
BRANCH  25  26
ATOM     26  O   UNL     1       3.301  -3.732   1.989  0.00  0.00    -0.490 OA
BRANCH  26  32
ATOM     27  C   UNL     1       4.207  -2.837  -0.032  0.00  0.00    +0.024 A 
ATOM     28  C   UNL     1       5.251  -2.781  -0.953  0.00  0.00    +0.012 A 
ATOM     29  C   UNL     1       6.377  -3.556  -0.765  0.00  0.00    +0.001 A 
ATOM     30  C   UNL     1       6.475  -4.389   0.335  0.00  0.00    +0.004 A 
ATOM     31  C   UNL     1       5.446  -4.453   1.255  0.00  0.00    +0.046 A 
ATOM     32  C   UNL     1       4.311  -3.675   1.082  0.00  0.00    +0.128 A 
BRANCH  27  36
ATOM     33  C   UNL     1       0.730  -0.457  -0.598  0.00  0.00    +0.000 A 
ATOM     34  C   UNL     1       1.983   0.123  -0.680  0.00  0.00    +0.001 A 
ATOM     35  C   UNL     1       3.115  -0.644  -0.497  0.00  0.00    +0.008 A 
ATOM     36  C   UNL     1       2.994  -2.007  -0.229  0.00  0.00    -0.014 A 
ATOM     37  C   UNL     1       1.729  -2.586  -0.147  0.00  0.00    +0.008 A 
ATOM     38  C   UNL     1       0.604  -1.808  -0.332  0.00  0.00    +0.001 A 
ENDBRANCH  27  36
ENDBRANCH  26  32
ENDBRANCH  25  26
ENDBRANCH  24  25
ENDBRANCH   1  24
TORSDOF 10
