REMARK  Name = ZINC63284729
REMARK  4 active torsions:
REMARK  status: ('A' for Active; 'I' for Inactive)
REMARK    1  A    between atoms: N_9  and  C_25
REMARK    2  A    between atoms: C_10  and  C_13
REMARK    3  A    between atoms: C_13  and  S_14
REMARK    4  A    between atoms: S_14  and  C_15
REMARK                            x       y       z     vdW  Elec       q    Type
REMARK                         _______ _______ _______ _____ _____    ______ ____
ROOT
ATOM      1  C   UNL     1       0.594   1.476   1.085  0.00  0.00    +0.001 A 
ATOM      2  C   UNL     1       1.610   2.149   0.425  0.00  0.00    +0.002 A 
ATOM      3  C   UNL     1       2.625   1.451  -0.200  0.00  0.00    +0.024 A 
ATOM      4  C   UNL     1       2.627   0.067  -0.164  0.00  0.00    +0.041 A 
ATOM      5  C   UNL     1       1.600  -0.619   0.507  0.00  0.00    +0.058 A 
ATOM      6  C   UNL     1       0.581   0.097   1.131  0.00  0.00    +0.015 A 
ATOM      7  C   UNL     1       1.640  -2.092   0.533  0.00  0.00    +0.254 C 
ATOM      8  O   UNL     1       0.929  -2.714   1.298  0.00  0.00    -0.270 OA
ATOM      9  N   UNL     1       2.475  -2.743  -0.304  0.00  0.00    -0.248 N 
ATOM     10  C   UNL     1       3.280  -2.019  -1.287  0.00  0.00    +0.176 C 
ATOM     11  N   UNL     1       3.622  -0.684  -0.781  0.00  0.00    -0.324 N 
ATOM     12  H   UNL     1       4.521  -0.334  -0.875  0.00  0.00    +0.148 HD
ENDROOT
BRANCH   9  13
ATOM     13  C   UNL     1       2.573  -4.137  -0.229  0.00  0.00    +0.040 A 
ATOM     14  C   UNL     1       1.694  -4.936  -0.950  0.00  0.00    +0.025 A 
ATOM     15  C   UNL     1       1.793  -6.311  -0.876  0.00  0.00    +0.023 A 
ATOM     16  C   UNL     1       2.766  -6.894  -0.084  0.00  0.00    +0.059 A 
ATOM     17  C   UNL     1       3.643  -6.101   0.637  0.00  0.00    +0.061 A 
ATOM     18  C   UNL     1       3.552  -4.724   0.561  0.00  0.00    +0.045 A 
ATOM     19 CL   UNL     1       4.863  -6.837   1.630  0.00  0.00    -0.082 Cl
ATOM     20 CL   UNL     1       2.887  -8.624   0.008  0.00  0.00    -0.082 Cl
ENDBRANCH   9  13
BRANCH  10  21
ATOM     21  C   UNL     1       2.485  -1.875  -2.586  0.00  0.00    +0.118 C 
BRANCH  21  22
ATOM     22  S   UNL     1       0.954  -0.958  -2.260  0.00  0.00    -0.104 S 
BRANCH  22  23
ATOM     23  C   UNL     1       0.208  -0.882  -3.741  0.00  0.00    +0.108 C 
ATOM     24  N   UNL     1       0.753  -1.433  -4.812  0.00  0.00    -0.231 NA
ATOM     25  C   UNL     1       0.153  -1.518  -5.992  0.00  0.00    +0.224 C 
ATOM     26  N   UNL     1      -1.135  -1.247  -6.164  0.00  0.00    -0.218 NA
ATOM     27  C   UNL     1      -1.809  -0.889  -5.077  0.00  0.00    +0.163 C 
ATOM     28  N   UNL     1      -3.036  -1.048  -4.676  0.00  0.00    -0.219 NA
ATOM     29  C   UNL     1      -3.146  -0.848  -3.356  0.00  0.00    +0.218 C 
ATOM     30  N   UNL     1      -2.056  -0.378  -2.816  0.00  0.00    -0.254 NA
ATOM     31  C   UNL     1      -1.117  -0.192  -3.913  0.00  0.00    +0.229 C 
ENDBRANCH  22  23
ENDBRANCH  21  22
ENDBRANCH  10  21
TORSDOF 4
