REMARK  Name = ZINC22129152
REMARK  13 active torsions:
REMARK  status: ('A' for Active; 'I' for Inactive)
REMARK    1  A    between atoms: C_1  and  C_2
REMARK    2  A    between atoms: C_5  and  N_8
REMARK    3  A    between atoms: C_9  and  C_27
REMARK    4  A    between atoms: C_12  and  S_13
REMARK    5  A    between atoms: S_13  and  C_14
REMARK    6  A    between atoms: C_14  and  C_16
REMARK    7  A    between atoms: C_14  and  C_17
REMARK    8  A    between atoms: N_19  and  C_20
REMARK    9  A    between atoms: C_20  and  C_21
REMARK   10  A    between atoms: C_20  and  C_22
REMARK   11  A    between atoms: C_20  and  C_24
REMARK   12  A    between atoms: C_24  and  C_25
REMARK   13  A    between atoms: C_24  and  C_26
REMARK                            x       y       z     vdW  Elec       q    Type
REMARK                         _______ _______ _______ _____ _____    ______ ____
ROOT
ATOM      1  N   UNL     1       0.000  -0.001  -0.038  0.00  0.00    -0.270 N 
ATOM      2  C   UNL     1       1.328  -0.346  -0.169  0.00  0.00    +0.169 A 
ATOM      3  N   UNL     1       2.025   0.762  -0.067  0.00  0.00    -0.128 NA
ATOM      4  N   UNL     1       1.238   1.762   0.116  0.00  0.00    -0.122 NA
ATOM      5  C   UNL     1      -0.011   1.355   0.143  0.00  0.00    +0.197 A 
ENDROOT
BRANCH   1  10
ATOM      6  C   UNL     1      -4.482  -3.478  -0.210  0.00  0.00    +0.044 C 
ATOM      7  C   UNL     1      -3.292  -2.555  -0.165  0.00  0.00    -0.050 A 
ATOM      8  C   UNL     1      -3.090  -1.639  -1.180  0.00  0.00    +0.005 A 
ATOM      9  C   UNL     1      -2.000  -0.791  -1.141  0.00  0.00    +0.026 A 
ATOM     10  C   UNL     1      -1.107  -0.860  -0.081  0.00  0.00    +0.051 A 
ATOM     11  C   UNL     1      -1.309  -1.785   0.935  0.00  0.00    +0.026 A 
ATOM     12  C   UNL     1      -2.404  -2.626   0.893  0.00  0.00    +0.005 A 
ENDBRANCH   1  10
BRANCH   2  13
ATOM     13  C   UNL     1       1.865  -1.706  -0.384  0.00  0.00    +0.020 A 
ATOM     14  C   UNL     1       3.214  -1.973  -0.139  0.00  0.00    +0.013 A 
ATOM     15  C   UNL     1       3.709  -3.245  -0.337  0.00  0.00    +0.021 A 
ATOM     16  C   UNL     1       2.873  -4.254  -0.786  0.00  0.00    +0.041 A 
ATOM     17  C   UNL     1       1.536  -3.994  -1.036  0.00  0.00    +0.021 A 
ATOM     18  C   UNL     1       1.028  -2.727  -0.837  0.00  0.00    +0.013 A 
ATOM     19 CL   UNL     1       3.505  -5.851  -1.040  0.00  0.00    -0.084 Cl
ENDBRANCH   2  13
BRANCH   5  20
ATOM     20  S   UNL     1      -1.436   2.369   0.362  0.00  0.00    -0.073 S 
BRANCH  20  21
ATOM     21  C   UNL     1      -0.646   3.989   0.530  0.00  0.00    +0.137 C 
ATOM     22  C   UNL     1       0.046   4.357  -0.783  0.00  0.00    +0.029 C 
BRANCH  21  23
ATOM     23  C   UNL     1      -1.691   5.025   0.855  0.00  0.00    +0.227 C 
ATOM     24  O   UNL     1      -2.859   4.806   0.614  0.00  0.00    -0.275 OA
ATOM     25  N   UNL     1      -1.327   6.196   1.415  0.00  0.00    -0.296 N 
ATOM     26  H   UNL     1      -0.267   6.395   1.634  0.00  0.00    +0.150 HD
BRANCH  25  27
ATOM     27  C   UNL     1      -2.342   7.204   1.731  0.00  0.00    +0.121 C 
ATOM     28  C   UNL     1      -3.350   6.619   2.721  0.00  0.00    +0.048 C 
BRANCH  27  29
ATOM     29  C   UNL     1      -1.668   8.429   2.352  0.00  0.00    +0.020 C 
ATOM     30  C   UNL     1      -0.753   9.088   1.318  0.00  0.00    +0.010 C 
ATOM     31  C   UNL     1      -2.738   9.429   2.796  0.00  0.00    +0.010 C 
ENDBRANCH  27  29
BRANCH  27  32
ATOM     32  C   UNL     1      -3.040   7.601   0.497  0.00  0.00    +0.088 C 
ATOM     33  N   UNL     1      -3.579   7.907  -0.455  0.00  0.00    -0.194 NA
ENDBRANCH  27  32
ENDBRANCH  25  27
ENDBRANCH  21  23
ENDBRANCH  20  21
ENDBRANCH   5  20
TORSDOF 8
