REMARK  Name = ZINC36648009
REMARK  9 active torsions:
REMARK  status: ('A' for Active; 'I' for Inactive)
REMARK    1  A    between atoms: C_1  and  N_2
REMARK    2  A    between atoms: N_2  and  C_3
REMARK    3  A    between atoms: N_2  and  C_4
REMARK    4  A    between atoms: C_4  and  C_5
REMARK    5  A    between atoms: C_5  and  C_6
REMARK    6  A    between atoms: C_6  and  N_7
REMARK    7  A    between atoms: C_17  and  C_19
REMARK    8  A    between atoms: N_24  and  S_26
REMARK    9  A    between atoms: S_26  and  C_29
REMARK                            x       y       z     vdW  Elec       q    Type
REMARK                         _______ _______ _______ _____ _____    ______ ____
ROOT
ATOM      1  N   UNL     1      -3.333  -3.978  -0.376  0.00  0.00    -0.250 N 
ATOM      2  C   UNL     1      -3.828  -4.786   0.635  0.00  0.00    +0.168 A 
ATOM      3  N   UNL     1      -4.303  -4.439   1.808  0.00  0.00    -0.224 NA
ATOM      4  C   UNL     1      -4.755  -5.342   2.705  0.00  0.00    +0.080 A 
ATOM      5  C   UNL     1      -5.288  -5.103   3.993  0.00  0.00    +0.029 A 
ATOM      6  C   UNL     1      -5.704  -6.143   4.782  0.00  0.00    +0.002 A 
ATOM      7  C   UNL     1      -5.621  -7.459   4.352  0.00  0.00    +0.001 A 
ATOM      8  C   UNL     1      -5.105  -7.729   3.097  0.00  0.00    +0.017 A 
ATOM      9  C   UNL     1      -4.686  -6.694   2.300  0.00  0.00    +0.041 A 
ATOM     10  S   UNL     1      -3.988  -6.566   0.671  0.00  0.00    -0.052 S 
ATOM     11  C   UNL     1      -3.029  -4.510  -1.576  0.00  0.00    +0.226 C 
ATOM     12  O   UNL     1      -2.500  -3.826  -2.426  0.00  0.00    -0.275 OA
ENDROOT
BRANCH  11  13
ATOM     13  C   UNL     1      -3.345  -5.956  -1.861  0.00  0.00    +0.091 C 
ATOM     14  C   UNL     1      -2.216  -6.840  -1.326  0.00  0.00    +0.015 C 
ATOM     15  C   UNL     1      -2.552  -8.311  -1.586  0.00  0.00    +0.018 C 
ATOM     16  C   UNL     1      -2.675  -8.544  -3.095  0.00  0.00    +0.109 C 
ATOM     17  N   UNL     1      -3.655  -7.596  -3.641  0.00  0.00    -0.175 NA
ATOM     18  C   UNL     1      -3.478  -6.162  -3.373  0.00  0.00    +0.122 C 
BRANCH  17  19
ATOM     19  S   UNL     1      -4.936  -8.132  -4.543  0.00  0.00    +0.067 S 
ATOM     20  O   UNL     1      -5.344  -7.043  -5.359  0.00  0.00    -0.152 OA
ATOM     21  O   UNL     1      -4.553  -9.389  -5.085  0.00  0.00    -0.152 OA
BRANCH  19  22
ATOM     22  C   UNL     1      -6.262  -8.449  -3.426  0.00  0.00    +0.144 A 
ATOM     23  C   UNL     1      -7.242  -7.612  -3.006  0.00  0.00    +0.038 A 
ATOM     24  C   UNL     1      -8.190  -8.082  -2.116  0.00  0.00    +0.030 A 
ATOM     25  C   UNL     1      -8.110  -9.368  -1.690  0.00  0.00    +0.080 A 
ATOM     26  S   UNL     1      -6.668  -9.957  -2.562  0.00  0.00    -0.057 S 
ATOM     27 CL   UNL     1      -9.146 -10.221  -0.589  0.00  0.00    -0.076 Cl
ENDBRANCH  19  22
ENDBRANCH  17  19
ENDBRANCH  11  13
BRANCH   1  28
ATOM     28  C   UNL     1      -3.142  -2.545  -0.141  0.00  0.00    +0.114 C 
BRANCH  28  29
ATOM     29  C   UNL     1      -1.730  -2.300   0.396  0.00  0.00    +0.001 C 
BRANCH  29  30
ATOM     30  C   UNL     1      -1.530  -0.803   0.642  0.00  0.00    -0.078 C 
BRANCH  30  32
ATOM     31  C   UNL     1       0.059   0.877   1.279  0.00  0.00    -0.097 C 
ATOM     32  N   UNL     1      -0.175  -0.568   1.157  0.00  0.00    +0.376 N 
ATOM     33  C   UNL     1      -0.036  -1.200   2.475  0.00  0.00    -0.097 C 
ATOM     34  H   UNL     1       0.500  -0.965   0.520  0.00  0.00    -0.083 HD
ENDBRANCH  30  32
ENDBRANCH  29  30
ENDBRANCH  28  29
ENDBRANCH   1  28
TORSDOF 7
