REMARK  Name = ZINC39979266
REMARK  5 active torsions:
REMARK  status: ('A' for Active; 'I' for Inactive)
REMARK    1  A    between atoms: C_1  and  C_2
REMARK    2  A    between atoms: C_5  and  S_8
REMARK    3  A    between atoms: S_8  and  N_11
REMARK    4  A    between atoms: C_13  and  N_23
REMARK    5  A    between atoms: N_23  and  C_24
REMARK                            x       y       z     vdW  Elec       q    Type
REMARK                         _______ _______ _______ _____ _____    ______ ____
ROOT
ATOM      1  N   UNL     1       1.499  -5.144  -0.239  0.00  0.00    -0.110 NA
ATOM      2  C   UNL     1       1.912  -6.374  -0.144  0.00  0.00    +0.192 C 
ATOM      3  C   UNL     1       3.389  -6.682  -0.043  0.00  0.00    +0.237 C 
ATOM      4  N   UNL     1       3.790  -8.094   0.062  0.00  0.00    -0.359 N 
ATOM      5  C   UNL     1       2.860  -9.007   0.065  0.00  0.00    +0.063 A 
ATOM      6  C   UNL     1       3.209 -10.431   0.168  0.00  0.00    +0.027 A 
ATOM      7  C   UNL     1       2.216 -11.349   0.168  0.00  0.00    +0.002 A 
ATOM      8  C   UNL     1       0.866 -10.976   0.071  0.00  0.00    +0.002 A 
ATOM      9  C   UNL     1       0.469  -9.688  -0.028  0.00  0.00    +0.030 A 
ATOM     10  C   UNL     1       1.425  -8.642  -0.036  0.00  0.00    +0.089 A 
ATOM     11  N   UNL     1       1.032  -7.388  -0.128  0.00  0.00    -0.226 NA
ATOM     12  H   UNL     1       4.726  -8.339   0.129  0.00  0.00    +0.162 HD
ENDROOT
BRANCH   1  13
ATOM     13  S   UNL     1      -0.122  -4.821  -0.341  0.00  0.00    +0.100 S 
ATOM     14  O   UNL     1      -0.692  -5.205   0.902  0.00  0.00    -0.146 OA
ATOM     15  O   UNL     1      -0.565  -5.355  -1.581  0.00  0.00    -0.146 OA
BRANCH  13  20
ATOM     16  C   UNL     1      -0.726   1.170  -0.733  0.00  0.00    +0.044 C 
ATOM     17  C   UNL     1      -0.575  -0.326  -0.635  0.00  0.00    -0.050 A 
ATOM     18  C   UNL     1      -0.443  -1.084  -1.784  0.00  0.00    +0.005 A 
ATOM     19  C   UNL     1      -0.305  -2.457  -1.694  0.00  0.00    +0.029 A 
ATOM     20  C   UNL     1      -0.297  -3.071  -0.456  0.00  0.00    +0.113 A 
ATOM     21  C   UNL     1      -0.427  -2.313   0.693  0.00  0.00    +0.029 A 
ATOM     22  C   UNL     1      -0.562  -0.940   0.603  0.00  0.00    +0.005 A 
ENDBRANCH  13  20
ENDBRANCH   1  13
BRANCH   3  23
ATOM     23  N   UNL     1       4.044  -6.119  -1.226  0.00  0.00    -0.318 N 
ATOM     24  H   UNL     1       3.640  -6.225  -2.101  0.00  0.00    +0.148 HD
BRANCH  23  25
ATOM     25  C   UNL     1       5.247  -5.432  -1.094  0.00  0.00    +0.038 A 
ATOM     26  C   UNL     1       5.893  -5.385   0.125  0.00  0.00    +0.024 A 
ATOM     27  C   UNL     1       7.095  -4.700   0.264  0.00  0.00    +0.004 A 
ATOM     28  C   UNL     1       7.668  -4.059  -0.793  0.00  0.00    +0.026 A 
ATOM     29  C   UNL     1       7.044  -4.080  -2.051  0.00  0.00    +0.048 A 
ATOM     30  C   UNL     1       5.822  -4.780  -2.206  0.00  0.00    +0.019 A 
ATOM     31  C   UNL     1       5.204  -4.805  -3.467  0.00  0.00    +0.013 A 
ATOM     32  C   UNL     1       5.817  -4.152  -4.499  0.00  0.00    +0.018 A 
ATOM     33  C   UNL     1       7.021  -3.487  -4.283  0.00  0.00    +0.083 A 
ATOM     34  N   UNL     1       7.589  -3.456  -3.101  0.00  0.00    -0.361 N 
ATOM     35  H   UNL     1       8.428  -2.982  -2.989  0.00  0.00    +0.165 HD
ENDBRANCH  23  25
ENDBRANCH   3  23
TORSDOF 4
