REMARK  Name = ZINC36059164
REMARK  6 active torsions:
REMARK  status: ('A' for Active; 'I' for Inactive)
REMARK    1  A    between atoms: C_4  and  C_7
REMARK    2  A    between atoms: C_10  and  C_13
REMARK    3  A    between atoms: C_25  and  C_27
REMARK    4  A    between atoms: C_27  and  N_28
REMARK    5  A    between atoms: N_28  and  C_29
REMARK    6  A    between atoms: C_29  and  C_30
REMARK                            x       y       z     vdW  Elec       q    Type
REMARK                         _______ _______ _______ _____ _____    ______ ____
ROOT
ATOM      1  C   UNL     1       7.415  -2.759  -0.067  0.00  0.00    +0.093 A 
ATOM      2  C   UNL     1       7.447  -4.136  -0.315  0.00  0.00    +0.033 A 
ATOM      3  C   UNL     1       8.680  -4.762  -0.339  0.00  0.00    +0.047 A 
ATOM      4  C   UNL     1       9.816  -3.982  -0.114  0.00  0.00    +0.144 A 
ATOM      5  N   UNL     1       9.691  -2.682   0.114  0.00  0.00    -0.134 NA
ATOM      6  N   UNL     1       8.548  -2.098   0.131  0.00  0.00    -0.147 NA
ATOM      7  N   UNL     1      11.076  -4.567  -0.128  0.00  0.00    -0.311 N 
ATOM      8  C   UNL     1      12.288  -3.736  -0.118  0.00  0.00    +0.125 C 
ATOM      9  C   UNL     1      13.164  -4.162   1.067  0.00  0.00    +0.126 C 
ATOM     10  N   UNL     1      13.309  -5.624   1.041  0.00  0.00    -0.300 N 
ATOM     11  C   UNL     1      12.098  -6.456   1.030  0.00  0.00    +0.126 C 
ATOM     12  C   UNL     1      11.221  -6.030  -0.148  0.00  0.00    +0.125 C 
ATOM     13  C   UNL     1      14.532  -6.192   1.027  0.00  0.00    +0.199 C 
ATOM     14  O   UNL     1      15.524  -5.495   1.036  0.00  0.00    -0.278 OA
ENDROOT
BRANCH   1  18
ATOM     15  C   UNL     1       3.696  -0.696   0.037  0.00  0.00    -0.018 A 
ATOM     16  C   UNL     1       4.886   0.001   0.246  0.00  0.00    +0.009 A 
ATOM     17  C   UNL     1       6.090  -0.667   0.212  0.00  0.00    +0.010 A 
ATOM     18  C   UNL     1       6.119  -2.040  -0.030  0.00  0.00    +0.002 A 
ATOM     19  C   UNL     1       4.929  -2.737  -0.239  0.00  0.00    +0.010 A 
ATOM     20  C   UNL     1       3.724  -2.070  -0.200  0.00  0.00    +0.009 A 
BRANCH  15  24
ATOM     21  C   UNL     1      -0.021   1.366   0.141  0.00  0.00    +0.000 A 
ATOM     22  C   UNL     1       1.158   2.061   0.343  0.00  0.00    +0.001 A 
ATOM     23  C   UNL     1       2.367   1.397   0.310  0.00  0.00    +0.008 A 
ATOM     24  C   UNL     1       2.399   0.023   0.074  0.00  0.00    -0.018 A 
ATOM     25  C   UNL     1       1.208  -0.671  -0.129  0.00  0.00    +0.008 A 
ATOM     26  C   UNL     1       0.004   0.003  -0.095  0.00  0.00    +0.001 A 
ENDBRANCH  15  24
ENDBRANCH   1  18
BRANCH  13  27
ATOM     27  C   UNL     1      14.665  -7.693   1.001  0.00  0.00    +0.015 C 
BRANCH  27  28
ATOM     28  N   UNL     1      16.088  -8.058   0.990  0.00  0.00    +0.386 N 
ATOM     29  H   UNL     1      16.529  -7.667   0.171  0.00  0.00    -0.085 HD
ATOM     30  H   UNL     1      16.535  -7.695   1.819  0.00  0.00    -0.085 HD
BRANCH  28  31
ATOM     31  C   UNL     1      16.218  -9.521   0.964  0.00  0.00    -0.050 C 
BRANCH  31  32
ATOM     32  C   UNL     1      17.700  -9.901   0.953  0.00  0.00    +0.101 C 
ATOM     33  C   UNL     1      17.846 -11.431   0.804  0.00  0.00    +0.032 C 
ATOM     34  C   UNL     1      19.033 -11.742   1.757  0.00  0.00    +0.030 C 
ATOM     35  C   UNL     1      18.796 -10.695   2.874  0.00  0.00    +0.160 C 
ATOM     36  O   UNL     1      18.307  -9.525   2.194  0.00  0.00    -0.378 OA
ENDBRANCH  31  32
ENDBRANCH  28  31
ENDBRANCH  27  28
ENDBRANCH  13  27
TORSDOF 6
