REMARK  Name = ZINC22370655
REMARK  9 active torsions:
REMARK  status: ('A' for Active; 'I' for Inactive)
REMARK    1  A    between atoms: C_1  and  C_2
REMARK    2  A    between atoms: C_7  and  N_8
REMARK    3  A    between atoms: N_8  and  C_9
REMARK    4  A    between atoms: N_8  and  S_26
REMARK    5  A    between atoms: C_9  and  C_10
REMARK    6  A    between atoms: N_12  and  C_13
REMARK    7  A    between atoms: C_16  and  C_24
REMARK    8  A    between atoms: C_16  and  C_25
REMARK    9  A    between atoms: S_26  and  C_29
REMARK                            x       y       z     vdW  Elec       q    Type
REMARK                         _______ _______ _______ _____ _____    ______ ____
ROOT
ATOM      1  N   UNL     1      -3.503   0.414   2.124  0.00  0.00    -0.194 N 
ENDROOT
BRANCH   1   8
ATOM      2  C   UNL     1      -6.184  -0.445   1.717  0.00  0.00    +0.046 C 
ATOM      3  C   UNL     1      -5.809   0.495   2.833  0.00  0.00    -0.028 A 
ATOM      4  C   UNL     1      -6.779   0.966   3.697  0.00  0.00    +0.005 A 
ATOM      5  C   UNL     1      -6.435   1.828   4.722  0.00  0.00    +0.000 A 
ATOM      6  C   UNL     1      -5.119   2.222   4.886  0.00  0.00    +0.002 A 
ATOM      7  C   UNL     1      -4.144   1.751   4.029  0.00  0.00    +0.025 A 
ATOM      8  C   UNL     1      -4.487   0.889   2.995  0.00  0.00    +0.055 A 
ENDBRANCH   1   8
BRANCH   1   9
ATOM      9  S   UNL     1      -3.233   1.183   0.683  0.00  0.00    +0.075 S 
ATOM     10  O   UNL     1      -4.412   1.920   0.388  0.00  0.00    -0.150 OA
ATOM     11  O   UNL     1      -2.702   0.208  -0.204  0.00  0.00    -0.150 OA
BRANCH   9  12
ATOM     12  C   UNL     1      -1.955   2.366   0.954  0.00  0.00    +0.109 A 
ATOM     13  C   UNL     1      -0.636   2.024   0.719  0.00  0.00    +0.030 A 
ATOM     14  C   UNL     1       0.366   2.953   0.925  0.00  0.00    +0.022 A 
ATOM     15  C   UNL     1       0.050   4.223   1.374  0.00  0.00    +0.041 A 
ATOM     16  C   UNL     1      -1.270   4.562   1.615  0.00  0.00    +0.022 A 
ATOM     17  C   UNL     1      -2.271   3.633   1.408  0.00  0.00    +0.030 A 
ATOM     18 CL   UNL     1       1.308   5.391   1.634  0.00  0.00    -0.084 Cl
ENDBRANCH   9  12
ENDBRANCH   1   9
BRANCH   1  19
ATOM     19  C   UNL     1      -2.711  -0.763   2.486  0.00  0.00    +0.227 C 
BRANCH  19  20
ATOM     20  C   UNL     1      -1.524  -0.336   3.312  0.00  0.00    +0.233 C 
ATOM     21  O   UNL     1      -1.342   0.839   3.549  0.00  0.00    -0.274 OA
ATOM     22  N   UNL     1      -0.666  -1.260   3.787  0.00  0.00    -0.307 N 
ATOM     23  H   UNL     1      -0.778  -2.316   3.497  0.00  0.00    +0.149 HD
BRANCH  22  24
ATOM     24  C   UNL     1       0.417  -0.859   4.688  0.00  0.00    +0.110 C 
ATOM     25  C   UNL     1       0.628  -1.946   5.746  0.00  0.00    +0.074 C 
ATOM     26  C   UNL     1       1.940  -1.650   6.484  0.00  0.00    +0.107 C 
ATOM     27  O   UNL     1       3.018  -1.772   5.555  0.00  0.00    -0.486 OA
ATOM     28  C   UNL     1       2.905  -1.127   4.364  0.00  0.00    +0.126 A 
ATOM     29  C   UNL     1       1.686  -0.671   3.895  0.00  0.00    +0.015 A 
ATOM     30  C   UNL     1       1.617  -0.022   2.673  0.00  0.00    +0.009 A 
ATOM     31  C   UNL     1       2.760   0.172   1.922  0.00  0.00    +0.001 A 
ATOM     32  C   UNL     1       3.979  -0.281   2.389  0.00  0.00    +0.004 A 
ATOM     33  C   UNL     1       4.054  -0.929   3.606  0.00  0.00    +0.046 A 
ATOM     34  C   UNL     1       1.905  -0.229   7.049  0.00  0.00    +0.055 C 
ATOM     35  C   UNL     1       2.127  -2.654   7.624  0.00  0.00    +0.055 C 
ENDBRANCH  22  24
ENDBRANCH  19  20
ENDBRANCH   1  19
TORSDOF 6
