REMARK  Name = ZINC38546003
REMARK  11 active torsions:
REMARK  status: ('A' for Active; 'I' for Inactive)
REMARK    1  A    between atoms: C_1  and  C_2
REMARK    2  A    between atoms: C_3  and  C_33
REMARK    3  A    between atoms: C_5  and  N_25
REMARK    4  A    between atoms: C_6  and  C_7
REMARK    5  A    between atoms: C_7  and  C_9
REMARK    6  A    between atoms: C_7  and  N_19
REMARK    7  A    between atoms: C_13  and  O_17
REMARK    8  A    between atoms: C_14  and  O_15
REMARK    9  A    between atoms: O_15  and  C_16
REMARK   10  A    between atoms: O_17  and  C_18
REMARK   11  A    between atoms: C_26  and  C_28
REMARK                            x       y       z     vdW  Elec       q    Type
REMARK                         _______ _______ _______ _____ _____    ______ ____
ROOT
ATOM      1  C   UNL     1      -0.041  -0.076   2.544  0.00  0.00    -0.000 C 
ENDROOT
BRANCH   1   7
ATOM      2  C   UNL     1      -0.488   1.469   0.115  0.00  0.00    +0.045 C 
ATOM      3  C   UNL     1      -0.232  -0.014   0.041  0.00  0.00    -0.037 A 
ATOM      4  C   UNL     1      -0.201  -0.647  -1.156  0.00  0.00    -0.008 A 
ATOM      5  S   UNL     1       0.129  -2.335  -0.677  0.00  0.00    -0.078 S 
ATOM      6  C   UNL     1       0.204  -2.087   1.089  0.00  0.00    +0.074 A 
ATOM      7  C   UNL     1      -0.020  -0.747   1.195  0.00  0.00    -0.025 A 
ATOM      8  C   UNL     1      -0.395  -0.074  -2.536  0.00  0.00    +0.052 C 
BRANCH   6   9
ATOM      9  N   UNL     1       0.436  -3.022   2.100  0.00  0.00    -0.275 N 
ATOM     10  C   UNL     1       0.511  -4.334   1.800  0.00  0.00    +0.255 C 
ATOM     11  O   UNL     1       0.376  -4.703   0.648  0.00  0.00    -0.269 OA
ATOM     12  H   UNL     1       0.544  -2.727   3.018  0.00  0.00    +0.156 HD
BRANCH  10  13
ATOM     13  C   UNL     1       0.755  -5.315   2.861  0.00  0.00    +0.074 A 
ATOM     14  C   UNL     1       0.871  -6.694   2.766  0.00  0.00    +0.021 A 
ATOM     15  C   UNL     1       1.102  -7.356   3.948  0.00  0.00    +0.008 A 
ATOM     16  C   UNL     1       1.198  -6.641   5.096  0.00  0.00    +0.046 A 
ATOM     17  S   UNL     1       0.986  -5.048   4.608  0.00  0.00    -0.092 S 
ENDBRANCH  10  13
ENDBRANCH   6   9
ENDBRANCH   1   7
BRANCH   1  18
ATOM     18  N   UNL     1      -0.902  -0.839   3.457  0.00  0.00    +0.387 N 
ATOM     19  C   UNL     1      -2.228  -1.008   2.850  0.00  0.00    -0.078 C 
ATOM     20  C   UNL     1      -3.104  -1.871   3.760  0.00  0.00    -0.019 C 
ATOM     21  C   UNL     1      -3.248  -1.185   5.121  0.00  0.00    -0.004 C 
ATOM     22  C   UNL     1      -1.855  -0.947   5.712  0.00  0.00    -0.019 C 
ATOM     23  C   UNL     1      -1.025  -0.118   4.729  0.00  0.00    -0.078 C 
ATOM     24  H   UNL     1      -0.493  -1.746   3.624  0.00  0.00    -0.080 HD
ENDBRANCH   1  18
BRANCH   1  25
ATOM     25  C   UNL     1       1.359  -0.024   3.101  0.00  0.00    -0.011 A 
ATOM     26  C   UNL     1       1.799  -1.013   3.961  0.00  0.00    +0.006 A 
ATOM     27  C   UNL     1       3.082  -0.968   4.473  0.00  0.00    +0.004 A 
ATOM     28  C   UNL     1       3.931   0.067   4.128  0.00  0.00    +0.049 A 
ATOM     29  C   UNL     1       3.497   1.062   3.267  0.00  0.00    +0.162 A 
ATOM     30  C   UNL     1       2.207   1.013   2.746  0.00  0.00    +0.163 A 
BRANCH  30  31
ATOM     31  O   UNL     1       1.778   1.984   1.897  0.00  0.00    -0.491 OA
ATOM     32  C   UNL     1       1.154   3.129   2.481  0.00  0.00    +0.277 C 
ENDBRANCH  30  31
BRANCH  29  33
ATOM     33  O   UNL     1       4.331   2.081   2.927  0.00  0.00    -0.491 OA
ATOM     34  C   UNL     1       5.642   2.063   3.495  0.00  0.00    +0.277 C 
ENDBRANCH  29  33
ENDBRANCH   1  25
TORSDOF 7
