REMARK  Name = ZINC42802404
REMARK  3 active torsions:
REMARK  status: ('A' for Active; 'I' for Inactive)
REMARK    1  A    between atoms: C_3  and  N_11
REMARK    2  A    between atoms: C_4  and  C_8
REMARK    3  A    between atoms: N_11  and  C_12
REMARK                            x       y       z     vdW  Elec       q    Type
REMARK                         _______ _______ _______ _____ _____    ______ ____
ROOT
ATOM      1  N   UNL     1       3.581   2.122   0.146  0.00  0.00    -0.342 N 
ATOM      2  H   UNL     1       4.423   1.644   0.207  0.00  0.00    +0.146 HD
ENDROOT
BRANCH   1   3
ATOM      3  C   UNL     1       3.570   3.586   0.132  0.00  0.00    +0.057 C 
ATOM      4  C   UNL     1       3.545   4.086  -1.314  0.00  0.00    -0.056 C 
ATOM      5  N   UNL     1       4.730   4.904  -1.583  0.00  0.00    +0.381 N 
ATOM      6  C   UNL     1       4.750   6.083  -0.712  0.00  0.00    -0.078 C 
ATOM      7  C   UNL     1       4.815   5.650   0.754  0.00  0.00    -0.014 C 
ATOM      8  C   UNL     1       4.835   4.117   0.820  0.00  0.00    +0.004 C 
ATOM      9  C   UNL     1       6.057   3.618   0.038  0.00  0.00    -0.014 C 
ATOM     10  C   UNL     1       5.952   4.115  -1.412  0.00  0.00    -0.078 C 
ATOM     11  H   UNL     1       4.687   5.224  -2.539  0.00  0.00    -0.082 HD
ENDBRANCH   1   3
BRANCH   1  14
ATOM     12  C   UNL     1       0.006   1.391  -0.213  0.00  0.00    +0.022 A 
ATOM     13  C   UNL     1       1.191   2.092  -0.138  0.00  0.00    +0.025 A 
ATOM     14  C   UNL     1       2.388   1.418   0.071  0.00  0.00    +0.042 A 
ATOM     15  C   UNL     1       2.383   0.019   0.204  0.00  0.00    +0.085 A 
ATOM     16  C   UNL     1       1.172  -0.678   0.126  0.00  0.00    +0.037 A 
ATOM     17  C   UNL     1      -0.004   0.010  -0.082  0.00  0.00    +0.042 A 
ATOM     18 CL   UNL     1      -1.505  -0.857  -0.179  0.00  0.00    -0.084 Cl
BRANCH  15  19
ATOM     19  C   UNL     1       3.642  -0.708   0.425  0.00  0.00    +0.388 C 
ATOM     20  O   UNL     1       3.928  -1.665  -0.282  0.00  0.00    -0.241 OA
ATOM     21  O   UNL     1       4.404  -0.356   1.315  0.00  0.00    -0.241 OA
ENDBRANCH  15  19
ENDBRANCH   1  14
TORSDOF 3
