REMARK  Name = ZINC25308392
REMARK  6 active torsions:
REMARK  status: ('A' for Active; 'I' for Inactive)
REMARK    1  A    between atoms: C_1  and  C_2
REMARK    2  A    between atoms: C_4  and  C_25
REMARK    3  A    between atoms: C_6  and  C_20
REMARK    4  A    between atoms: C_10  and  C_11
REMARK    5  A    between atoms: N_13  and  C_14
REMARK    6  A    between atoms: N_17  and  C_19
REMARK                            x       y       z     vdW  Elec       q    Type
REMARK                         _______ _______ _______ _____ _____    ______ ____
ROOT
ATOM      1  C   UNL     1       1.607   1.437  -0.702  0.00  0.00    +0.046 C 
ATOM      2  C   UNL     1       1.483  -0.064  -0.647  0.00  0.00    -0.020 A 
ATOM      3  C   UNL     1       0.615  -0.731  -1.524  0.00  0.00    +0.032 A 
ATOM      4  C   UNL     1      -0.231  -0.193  -2.529  0.00  0.00    +0.051 A 
ATOM      5  N   UNL     1      -0.974  -1.000  -3.249  0.00  0.00    -0.229 NA
ATOM      6  C   UNL     1      -0.967  -2.321  -3.073  0.00  0.00    +0.197 A 
ATOM      7  N   UNL     1      -0.198  -2.887  -2.147  0.00  0.00    -0.217 NA
ATOM      8  C   UNL     1       0.575  -2.144  -1.387  0.00  0.00    +0.113 A 
ATOM      9  S   UNL     1       1.724  -2.460  -0.073  0.00  0.00    -0.064 S 
ATOM     10  C   UNL     1       2.217  -0.776   0.251  0.00  0.00    +0.080 A 
ATOM     11  C   UNL     1      -0.275   1.295  -2.768  0.00  0.00    +0.066 C 
ENDROOT
BRANCH   6  12
ATOM     12  C   UNL     1      -1.828  -3.169  -3.917  0.00  0.00    +0.172 A 
ATOM     13  C   UNL     1      -1.929  -4.525  -3.847  0.00  0.00    +0.053 A 
ATOM     14  C   UNL     1      -2.858  -4.913  -4.830  0.00  0.00    +0.042 A 
ATOM     15  C   UNL     1      -3.275  -3.788  -5.446  0.00  0.00    +0.196 A 
ATOM     16  O   UNL     1      -2.656  -2.737  -4.889  0.00  0.00    -0.460 OA
ENDBRANCH   6  12
BRANCH  10  17
ATOM     17  C   UNL     1       3.179  -0.280   1.244  0.00  0.00    +0.255 C 
ATOM     18  O   UNL     1       3.400   0.913   1.334  0.00  0.00    -0.269 OA
ATOM     19  N   UNL     1       3.817  -1.146   2.055  0.00  0.00    -0.279 N 
ATOM     20  H   UNL     1       3.642  -2.098   1.984  0.00  0.00    +0.155 HD
BRANCH  19  21
ATOM     21  C   UNL     1       4.739  -0.671   3.006  0.00  0.00    +0.072 A 
ATOM     22  C   UNL     1       5.084   0.671   3.223  0.00  0.00    +0.157 A 
ATOM     23  N   UNL     1       5.968   0.718   4.186  0.00  0.00    -0.178 NA
ATOM     24  N   UNL     1       6.220  -0.590   4.619  0.00  0.00    -0.273 N 
ATOM     25  C   UNL     1       5.447  -1.429   3.882  0.00  0.00    +0.131 A 
ATOM     26  C   UNL     1       7.147  -0.983   5.683  0.00  0.00    +0.172 C 
ENDBRANCH  19  21
ENDBRANCH  10  17
TORSDOF 3
