REMARK  Name = ZINC28058378
REMARK  4 active torsions:
REMARK  status: ('A' for Active; 'I' for Inactive)
REMARK    1  A    between atoms: C_1  and  O_2
REMARK    2  A    between atoms: O_2  and  C_3
REMARK    3  A    between atoms: C_8  and  C_9
REMARK    4  A    between atoms: C_20  and  C_22
REMARK                            x       y       z     vdW  Elec       q    Type
REMARK                         _______ _______ _______ _____ _____    ______ ____
ROOT
ATOM      1  C   UNL     1       0.741  -1.728  -1.792  0.00  0.00    +0.177 C 
ATOM      2  C   UNL     1       0.982  -0.426  -1.069  0.00  0.00    +0.026 C 
ATOM      3  C   UNL     1       2.024   0.361  -1.344  0.00  0.00    +0.050 C 
ATOM      4  C   UNL     1       2.157   1.640  -0.606  0.00  0.00    +0.039 A 
ATOM      5  C   UNL     1       3.353   2.346  -0.586  0.00  0.00    +0.033 A 
ATOM      6  C   UNL     1       3.431   3.534   0.116  0.00  0.00    +0.042 A 
ATOM      7  C   UNL     1       2.325   4.019   0.794  0.00  0.00    +0.023 A 
ATOM      8  C   UNL     1       1.131   3.322   0.778  0.00  0.00    +0.048 A 
ATOM      9  C   UNL     1       1.039   2.132   0.081  0.00  0.00    +0.131 A 
ATOM     10  O   UNL     1      -0.115   1.418   0.043  0.00  0.00    -0.479 OA
ATOM     11  C   UNL     1       0.002  -0.004   0.002  0.00  0.00    +0.234 C 
ATOM     12 CL   UNL     1       4.922   4.423   0.147  0.00  0.00    -0.084 Cl
ATOM     13  N   UNL     1       2.981   0.025  -2.309  0.00  0.00    -0.282 N 
ATOM     14  C   UNL     1       2.970  -1.274  -2.790  0.00  0.00    +0.240 A 
ATOM     15  N   UNL     1       1.926  -2.109  -2.547  0.00  0.00    -0.201 N 
ATOM     16  N   UNL     1       2.264  -3.314  -3.161  0.00  0.00    -0.042 NA
ATOM     17  N   UNL     1       3.423  -3.136  -3.709  0.00  0.00    -0.021 NA
ATOM     18  N   UNL     1       3.842  -1.936  -3.494  0.00  0.00    -0.092 NA
ATOM     19  H   UNL     1       3.702   0.781  -2.655  0.00  0.00    +0.155 HD
ENDROOT
BRANCH  11  20
ATOM     20  C   UNL     1       0.484  -0.502   1.340  0.00  0.00    -0.002 A 
ATOM     21  C   UNL     1       1.523   0.143   1.985  0.00  0.00    +0.007 A 
ATOM     22  C   UNL     1       1.962  -0.310   3.215  0.00  0.00    +0.002 A 
ATOM     23  C   UNL     1       1.369  -1.415   3.796  0.00  0.00    +0.020 A 
ATOM     24  C   UNL     1       0.333  -2.064   3.150  0.00  0.00    +0.041 A 
ATOM     25  C   UNL     1      -0.110  -1.607   1.921  0.00  0.00    +0.027 A 
ATOM     26 CL   UNL     1      -0.412  -3.452   3.879  0.00  0.00    -0.084 Cl
ENDBRANCH  11  20
BRANCH   1  32
ATOM     27  C   UNL     1      -1.547  -2.367  -2.594  0.00  0.00    +0.126 A 
ATOM     28  C   UNL     1      -2.619  -2.213  -3.462  0.00  0.00    +0.046 A 
ATOM     29  C   UNL     1      -2.559  -1.272  -4.472  0.00  0.00    +0.004 A 
ATOM     30  C   UNL     1      -1.434  -0.480  -4.615  0.00  0.00    +0.001 A 
ATOM     31  C   UNL     1      -0.367  -0.628  -3.748  0.00  0.00    +0.009 A 
ATOM     32  C   UNL     1      -0.422  -1.568  -2.736  0.00  0.00    +0.023 A 
BRANCH  27  34
ATOM     33  C   UNL     1      -2.791  -4.083  -1.517  0.00  0.00    +0.277 C 
ATOM     34  O   UNL     1      -1.601  -3.296  -1.604  0.00  0.00    -0.495 OA
ENDBRANCH  27  34
ENDBRANCH   1  32
TORSDOF 3
