REMARK  Name = ZINC13757634
REMARK  4 active torsions:
REMARK  status: ('A' for Active; 'I' for Inactive)
REMARK    1  A    between atoms: C_1  and  C_2
REMARK    2  A    between atoms: C_5  and  C_8
REMARK    3  A    between atoms: C_14  and  C_16
REMARK    4  A    between atoms: C_19  and  C_21
REMARK                            x       y       z     vdW  Elec       q    Type
REMARK                         _______ _______ _______ _____ _____    ______ ____
ROOT
ATOM      1  C   UNL     1      -4.819   2.734   0.380  0.00  0.00    +0.310 C 
ATOM      2  N   UNL     1      -3.378   2.812   0.078  0.00  0.00    -0.205 N 
ATOM      3  C   UNL     1      -2.720   4.126  -0.100  0.00  0.00    +0.136 C 
ATOM      4  C   UNL     1      -1.232   3.787   0.069  0.00  0.00    +0.090 C 
ATOM      5  C   UNL     1      -1.204   2.273   0.043  0.00  0.00    +0.103 C 
ATOM      6  N   UNL     1      -2.417   1.818   0.026  0.00  0.00    -0.181 NA
ATOM      7  C   UNL     1      -3.220   5.028   0.999  0.00  0.00    +0.018 A 
ATOM      8  C   UNL     1      -2.535   6.196   1.277  0.00  0.00    +0.024 A 
ATOM      9  C   UNL     1      -2.983   7.048   2.268  0.00  0.00    +0.018 A 
ATOM     10  C   UNL     1      -4.123   6.728   2.983  0.00  0.00    +0.019 A 
ATOM     11  C   UNL     1      -4.804   5.561   2.714  0.00  0.00    +0.047 A 
ATOM     12  C   UNL     1      -4.354   4.690   1.721  0.00  0.00    +0.129 A 
ATOM     13  O   UNL     1      -5.050   3.538   1.542  0.00  0.00    -0.465 OA
ATOM     14 BR   UNL     1      -2.041   8.645   2.646  0.00  0.00    -0.050 Br
ENDROOT
BRANCH   1  19
ATOM     15  C   UNL     1      -7.830   4.804  -4.098  0.00  0.00    +0.044 C 
ATOM     16  C   UNL     1      -7.044   4.264  -2.930  0.00  0.00    -0.050 A 
ATOM     17  C   UNL     1      -5.915   3.498  -3.151  0.00  0.00    +0.004 A 
ATOM     18  C   UNL     1      -5.195   3.002  -2.080  0.00  0.00    +0.009 A 
ATOM     19  C   UNL     1      -5.604   3.274  -0.788  0.00  0.00    +0.013 A 
ATOM     20  C   UNL     1      -6.736   4.036  -0.567  0.00  0.00    +0.009 A 
ATOM     21  C   UNL     1      -7.453   4.536  -1.638  0.00  0.00    +0.004 A 
ENDBRANCH   1  19
BRANCH   5  22
ATOM     22  C   UNL     1       0.010   1.448   0.033  0.00  0.00    +0.151 A 
ATOM     23  C   UNL     1       0.052   0.085   0.010  0.00  0.00    +0.051 A 
ATOM     24  C   UNL     1       1.413  -0.278   0.001  0.00  0.00    +0.045 A 
ATOM     25  C   UNL     1       2.127   0.865   0.019  0.00  0.00    +0.103 A 
ATOM     26  O   UNL     1       1.278   1.906   0.039  0.00  0.00    -0.459 OA
ATOM     27  C   UNL     1       3.631   0.960   0.019  0.00  0.00    +0.086 C 
ENDBRANCH   5  22
TORSDOF 2
