REMARK  Name = ZINC40035362
REMARK  6 active torsions:
REMARK  status: ('A' for Active; 'I' for Inactive)
REMARK    1  A    between atoms: C_1  and  C_2
REMARK    2  A    between atoms: C_2  and  C_3
REMARK    3  A    between atoms: C_3  and  C_35
REMARK    4  A    between atoms: N_15  and  C_29
REMARK    5  A    between atoms: N_18  and  N_19
REMARK    6  A    between atoms: C_20  and  C_21
REMARK                            x       y       z     vdW  Elec       q    Type
REMARK                         _______ _______ _______ _____ _____    ______ ____
ROOT
ATOM      1  C   UNL     1      -0.783  -0.036   0.635  0.00  0.00    +0.004 C 
ATOM      2  C   UNL     1      -0.298  -1.427   0.238  0.00  0.00    +0.047 C 
ATOM      3  C   UNL     1      -0.145  -2.301   1.453  0.00  0.00    -0.037 A 
ATOM      4  C   UNL     1       0.873  -3.230   1.523  0.00  0.00    +0.004 A 
ATOM      5  C   UNL     1       1.004  -4.032   2.642  0.00  0.00    +0.000 A 
ATOM      6  C   UNL     1       0.119  -3.911   3.699  0.00  0.00    +0.001 A 
ATOM      7  C   UNL     1      -0.903  -2.984   3.643  0.00  0.00    +0.010 A 
ATOM      8  C   UNL     1      -1.037  -2.174   2.519  0.00  0.00    +0.004 A 
ATOM      9  C   UNL     1      -2.116  -1.164   2.434  0.00  0.00    +0.084 A 
ATOM     10  C   UNL     1      -1.996  -0.129   1.517  0.00  0.00    +0.050 A 
ATOM     11  C   UNL     1      -3.022   0.820   1.432  0.00  0.00    +0.264 A 
ATOM     12  O   UNL     1      -2.952   1.743   0.636  0.00  0.00    -0.267 OA
ATOM     13  N   UNL     1      -4.090   0.693   2.249  0.00  0.00    -0.248 N 
ATOM     14  C   UNL     1      -4.156  -0.340   3.137  0.00  0.00    +0.223 A 
ATOM     15  N   UNL     1      -3.195  -1.237   3.220  0.00  0.00    -0.214 NA
ATOM     16  N   UNL     1      -5.247  -0.448   3.960  0.00  0.00    -0.206 N 
ATOM     17  C   UNL     1      -1.137   0.754  -0.627  0.00  0.00    +0.016 C 
ATOM     18  H   UNL     1      -5.955   0.214   3.916  0.00  0.00    +0.177 HD
ENDROOT
BRANCH  13  19
ATOM     19  C   UNL     1      -5.132   1.626   2.184  0.00  0.00    +0.053 A 
ATOM     20  C   UNL     1      -5.099   2.762   2.982  0.00  0.00    +0.026 A 
ATOM     21  C   UNL     1      -6.129   3.680   2.916  0.00  0.00    +0.002 A 
ATOM     22  C   UNL     1      -7.192   3.469   2.057  0.00  0.00    +0.000 A 
ATOM     23  C   UNL     1      -7.228   2.337   1.262  0.00  0.00    +0.002 A 
ATOM     24  C   UNL     1      -6.199   1.419   1.319  0.00  0.00    +0.026 A 
ENDBRANCH  13  19
BRANCH   1  26
ATOM     25  C   UNL     1      -0.138   2.098   1.764  0.00  0.00    +0.005 C 
ATOM     26  C   UNL     1       0.333   0.692   1.388  0.00  0.00    +0.008 C 
ENDBRANCH   1  26
BRANCH  16  27
ATOM     27  N   UNL     1      -5.340  -1.513   4.865  0.00  0.00    -0.188 NA
ATOM     28  C   UNL     1      -6.373  -1.615   5.644  0.00  0.00    +0.138 C 
BRANCH  28  29
ATOM     29  C   UNL     1      -6.470  -2.737   6.596  0.00  0.00    -0.004 A 
ATOM     30  C   UNL     1      -5.449  -3.688   6.667  0.00  0.00    +0.011 A 
ATOM     31  C   UNL     1      -5.545  -4.734   7.560  0.00  0.00    +0.022 A 
ATOM     32  C   UNL     1      -6.651  -4.844   8.386  0.00  0.00    +0.059 A 
ATOM     33  C   UNL     1      -7.668  -3.904   8.322  0.00  0.00    +0.060 A 
ATOM     34  C   UNL     1      -7.580  -2.849   7.436  0.00  0.00    +0.031 A 
ATOM     35 CL   UNL     1      -9.050  -4.051   9.362  0.00  0.00    -0.082 Cl
ATOM     36 CL   UNL     1      -6.765  -6.165   9.507  0.00  0.00    -0.082 Cl
ENDBRANCH  28  29
ENDBRANCH  16  27
TORSDOF 4
