REMARK  Name = ZINC08997316
REMARK  12 active torsions:
REMARK  status: ('A' for Active; 'I' for Inactive)
REMARK    1  A    between atoms: C_1  and  C_2
REMARK    2  A    between atoms: C_4  and  C_31
REMARK    3  A    between atoms: C_5  and  C_29
REMARK    4  A    between atoms: C_6  and  N_8
REMARK    5  A    between atoms: N_8  and  N_9
REMARK    6  A    between atoms: C_10  and  C_11
REMARK    7  A    between atoms: C_14  and  O_18
REMARK    8  A    between atoms: O_18  and  C_19
REMARK    9  A    between atoms: C_19  and  C_20
REMARK   10  A    between atoms: C_23  and  N_26
REMARK   11  A    between atoms: C_31  and  O_32
REMARK   12  A    between atoms: O_32  and  C_33
REMARK                            x       y       z     vdW  Elec       q    Type
REMARK                         _______ _______ _______ _____ _____    ______ ____
ROOT
ATOM      1  C   UNL     1       0.002  -0.004   0.002  0.00  0.00    -0.004 A 
ATOM      2  C   UNL     1       1.224  -0.682  -0.013  0.00  0.00    +0.013 A 
ATOM      3  C   UNL     1       2.405   0.029  -0.021  0.00  0.00    +0.047 A 
ATOM      4  C   UNL     1       2.381   1.417  -0.013  0.00  0.00    +0.135 A 
ATOM      5  C   UNL     1       1.169   2.096   0.002  0.00  0.00    +0.060 A 
ATOM      6  C   UNL     1      -0.017   1.393   0.010  0.00  0.00    +0.028 A 
ATOM      7 BR   UNL     1       1.146   3.987   0.013  0.00  0.00    -0.046 Br
ENDROOT
BRANCH   1   9
ATOM      8  N   UNL     1      -1.243  -2.059   0.002  0.00  0.00    -0.189 NA
ATOM      9  C   UNL     1      -1.263  -0.761   0.009  0.00  0.00    +0.138 C 
BRANCH   8  10
ATOM     10  N   UNL     1      -2.446  -2.778   0.009  0.00  0.00    -0.220 N 
ATOM     11  H   UNL     1      -3.293  -2.306   0.020  0.00  0.00    +0.176 HD
BRANCH  10  17
ATOM     12  C   UNL     1       0.147  -6.793  -0.037  0.00  0.00    +0.065 C 
ATOM     13  C   UNL     1      -1.201  -6.119  -0.021  0.00  0.00    +0.041 A 
ATOM     14  C   UNL     1      -2.347  -6.894  -0.014  0.00  0.00    +0.030 A 
ATOM     15  C   UNL     1      -3.586  -6.278   0.001  0.00  0.00    +0.000 A 
ATOM     16  C   UNL     1      -3.634  -4.879   0.009  0.00  0.00    +0.098 A 
ATOM     17  C   UNL     1      -2.425  -4.161   0.002  0.00  0.00    +0.156 A 
ATOM     18  N   UNL     1      -1.266  -4.802  -0.018  0.00  0.00    -0.234 NA
BRANCH  16  19
ATOM     19  C   UNL     1      -4.890  -4.192   0.024  0.00  0.00    +0.103 C 
ATOM     20  N   UNL     1      -5.886  -3.647   0.036  0.00  0.00    -0.191 NA
ENDBRANCH  16  19
BRANCH  15  21
ATOM     21  C   UNL     1      -4.854  -7.093   0.008  0.00  0.00    +0.196 C 
BRANCH  21  22
ATOM     22  O   UNL     1      -4.526  -8.484  -0.003  0.00  0.00    -0.378 OA
ATOM     23  C   UNL     1      -5.663  -9.349   0.003  0.00  0.00    +0.194 C 
ENDBRANCH  21  22
ENDBRANCH  15  21
ENDBRANCH  10  17
ENDBRANCH   8  10
ENDBRANCH   1   9
BRANCH   4  24
ATOM     24  O   UNL     1       3.548   2.114  -0.021  0.00  0.00    -0.486 OA
BRANCH  24  25
ATOM     25  C   UNL     1       4.758   1.354  -0.037  0.00  0.00    +0.264 C 
BRANCH  25  26
ATOM     26  C   UNL     1       5.939   2.290  -0.044  0.00  0.00    -0.010 A 
ATOM     27  C   UNL     1       6.473   2.720  -1.244  0.00  0.00    +0.009 A 
ATOM     28  C   UNL     1       7.554   3.582  -1.250  0.00  0.00    +0.033 A 
ATOM     29  C   UNL     1       8.107   4.005  -0.056  0.00  0.00    +0.126 A 
ATOM     30  C   UNL     1       7.576   3.571   1.144  0.00  0.00    +0.033 A 
ATOM     31  C   UNL     1       6.493   2.713   1.150  0.00  0.00    +0.009 A 
BRANCH  29  32
ATOM     32  N   UNL     1       9.267   4.925  -0.063  0.00  0.00    +0.056 N 
ATOM     33  O   UNL     1       9.754   5.298   0.989  0.00  0.00    -0.126 OA
ATOM     34  O   UNL     1       9.735   5.307  -1.120  0.00  0.00    -0.126 OA
ENDBRANCH  29  32
ENDBRANCH  25  26
ENDBRANCH  24  25
ENDBRANCH   4  24
TORSDOF 10
