REMARK  Name = ZINC61424564
REMARK  6 active torsions:
REMARK  status: ('A' for Active; 'I' for Inactive)
REMARK    1  A    between atoms: C_1  and  C_2
REMARK    2  A    between atoms: C_2  and  C_3
REMARK    3  A    between atoms: C_2  and  N_13
REMARK    4  A    between atoms: N_16  and  C_17
REMARK    5  A    between atoms: C_17  and  C_18
REMARK    6  A    between atoms: C_17  and  C_24
REMARK                            x       y       z     vdW  Elec       q    Type
REMARK                         _______ _______ _______ _____ _____    ______ ____
ROOT
ATOM      1  N   UNL     1      -1.372  -0.511   0.012  0.00  0.00    -0.293 N 
ATOM      2  C   UNL     1      -2.051  -0.643  -1.145  0.00  0.00    +0.301 C 
ATOM      3  O   UNL     1      -1.522  -0.341  -2.197  0.00  0.00    -0.253 OA
ATOM      4  N   UNL     1      -3.315  -1.109  -1.135  0.00  0.00    -0.284 N 
ATOM      5  H   UNL     1      -1.794  -0.752   0.852  0.00  0.00    +0.151 HD
ATOM      6  H   UNL     1      -3.737  -1.350  -0.295  0.00  0.00    +0.151 HD
ENDROOT
BRANCH   1   8
ATOM      7  C   UNL     1      -0.019   1.526   0.010  0.00  0.00    +0.033 C 
ATOM      8  C   UNL     1       0.002  -0.004   0.002  0.00  0.00    +0.102 C 
BRANCH   8   9
ATOM      9  C   UNL     1       0.731  -0.503   1.223  0.00  0.00    -0.027 A 
ATOM     10  C   UNL     1       0.083  -0.559   2.443  0.00  0.00    +0.006 A 
ATOM     11  C   UNL     1       0.758  -1.015   3.557  0.00  0.00    +0.004 A 
ATOM     12  C   UNL     1       2.083  -1.419   3.462  0.00  0.00    -0.044 A 
ATOM     13  C   UNL     1       2.727  -1.368   2.247  0.00  0.00    -0.044 A 
ATOM     14  C   UNL     1       2.045  -0.911   1.126  0.00  0.00    +0.009 A 
ATOM     15  C   UNL     1       4.157  -1.805   2.067  0.00  0.00    +0.035 C 
ATOM     16  C   UNL     1       4.873  -1.866   3.415  0.00  0.00    +0.005 C 
ATOM     17  C   UNL     1       4.019  -2.696   4.380  0.00  0.00    +0.005 C 
ATOM     18  C   UNL     1       2.762  -1.898   4.719  0.00  0.00    +0.035 C 
ENDBRANCH   8   9
ENDBRANCH   1   8
BRANCH   4  19
ATOM     19  C   UNL     1      -4.053  -1.252  -2.393  0.00  0.00    +0.190 C 
BRANCH  19  20
ATOM     20  C   UNL     1      -5.120  -2.304  -2.232  0.00  0.00    -0.018 A 
ATOM     21  C   UNL     1      -5.851  -2.375  -1.061  0.00  0.00    +0.006 A 
ATOM     22  C   UNL     1      -6.829  -3.340  -0.914  0.00  0.00    +0.000 A 
ATOM     23  C   UNL     1      -7.078  -4.234  -1.939  0.00  0.00    +0.000 A 
ATOM     24  C   UNL     1      -6.348  -4.163  -3.110  0.00  0.00    +0.000 A 
ATOM     25  C   UNL     1      -5.372  -3.195  -3.259  0.00  0.00    +0.006 A 
ENDBRANCH  19  20
BRANCH  19  26
ATOM     26  C   UNL     1      -4.694   0.063  -2.751  0.00  0.00    +0.235 C 
ATOM     27  O   UNL     1      -4.550   1.026  -2.027  0.00  0.00    -0.274 OA
ATOM     28  N   UNL     1      -5.429   0.171  -3.876  0.00  0.00    -0.328 N 
ATOM     29  H   UNL     1      -5.544  -0.599  -4.455  0.00  0.00    +0.145 HD
ATOM     30  H   UNL     1      -5.842   1.017  -4.107  0.00  0.00    +0.145 HD
ENDBRANCH  19  26
ENDBRANCH   4  19
TORSDOF 5
