REMARK  Name = ZINC09848866
REMARK  10 active torsions:
REMARK  status: ('A' for Active; 'I' for Inactive)
REMARK    1  A    between atoms: C_1  and  C_2
REMARK    2  A    between atoms: C_4  and  C_15
REMARK    3  A    between atoms: C_5  and  C_14
REMARK    4  A    between atoms: N_6  and  C_7
REMARK    5  A    between atoms: C_16  and  C_17
REMARK    6  A    between atoms: C_16  and  C_19
REMARK    7  A    between atoms: C_19  and  O_21
REMARK    8  A    between atoms: O_21  and  C_22
REMARK    9  A    between atoms: C_22  and  C_24
REMARK   10  A    between atoms: C_22  and  C_25
REMARK                            x       y       z     vdW  Elec       q    Type
REMARK                         _______ _______ _______ _____ _____    ______ ____
ROOT
ATOM      1  C   UNL     1      -1.630  -7.783   2.742  0.00  0.00    +0.035 C 
ATOM      2  C   UNL     1      -0.893  -6.617   2.662  0.00  0.00    +0.136 C 
ENDROOT
BRANCH   1   6
ATOM      3  C   UNL     1      -1.297  -8.995   7.634  0.00  0.00    +0.064 C 
ATOM      4  C   UNL     1      -1.710  -8.919   6.187  0.00  0.00    +0.022 A 
ATOM      5  C   UNL     1      -1.149  -8.128   5.258  0.00  0.00    +0.031 A 
ATOM      6  C   UNL     1      -1.869  -8.386   4.002  0.00  0.00    -0.003 A 
ATOM      7  C   UNL     1      -2.832  -9.335   4.305  0.00  0.00    +0.028 A 
ATOM      8  N   UNL     1      -2.717  -9.644   5.612  0.00  0.00    -0.317 N 
ATOM      9  C   UNL     1      -3.830  -9.922   3.341  0.00  0.00    +0.064 C 
BRANCH   8  10
ATOM     10  C   UNL     1      -3.520 -10.573   6.287  0.00  0.00    +0.048 A 
ATOM     11  C   UNL     1      -4.374 -10.150   7.297  0.00  0.00    +0.026 A 
ATOM     12  C   UNL     1      -5.165 -11.068   7.961  0.00  0.00    +0.003 A 
ATOM     13  C   UNL     1      -5.107 -12.407   7.621  0.00  0.00    +0.020 A 
ATOM     14  C   UNL     1      -4.258 -12.832   6.615  0.00  0.00    +0.043 A 
ATOM     15  C   UNL     1      -3.467 -11.917   5.944  0.00  0.00    +0.046 A 
ATOM     16 CL   UNL     1      -4.189 -14.514   6.191  0.00  0.00    -0.083 Cl
ENDBRANCH   8  10
ENDBRANCH   1   6
BRANCH   2  17
ATOM     17  C   UNL     1      -0.494  -5.938   3.859  0.00  0.00    +0.106 C 
ATOM     18  N   UNL     1      -0.178  -5.400   4.808  0.00  0.00    -0.191 NA
ENDBRANCH   2  17
BRANCH   2  19
ATOM     19  C   UNL     1      -0.518  -6.073   1.351  0.00  0.00    +0.350 C 
ATOM     20  O   UNL     1      -0.857  -6.649   0.335  0.00  0.00    -0.244 OA
BRANCH  19  21
ATOM     21  O   UNL     1       0.201  -4.935   1.273  0.00  0.00    -0.450 OA
BRANCH  21  22
ATOM     22  C   UNL     1       0.536  -4.457  -0.056  0.00  0.00    +0.239 C 
ATOM     23  C   UNL     1       1.873  -5.058  -0.493  0.00  0.00    +0.060 C 
BRANCH  22  24
ATOM     24  C   UNL     1       0.643  -2.953  -0.036  0.00  0.00    +0.151 A 
ATOM     25  N   UNL     1      -0.503  -2.226   0.022  0.00  0.00    -0.307 N 
ATOM     26  H   UNL     1      -1.360  -2.680   0.050  0.00  0.00    +0.170 HD
ATOM     27  C   UNL     1      -0.460  -0.874   0.043  0.00  0.00    +0.259 A 
ATOM     28  O   UNL     1      -1.479  -0.209   0.095  0.00  0.00    -0.267 OA
ATOM     29  C   UNL     1       0.865  -0.237  -0.001  0.00  0.00    +0.065 A 
ATOM     30  C   UNL     1       1.018   1.147   0.017  0.00  0.00    +0.015 A 
ATOM     31  C   UNL     1       2.284   1.690  -0.025  0.00  0.00    +0.001 A 
ATOM     32  C   UNL     1       3.403   0.870  -0.084  0.00  0.00    +0.002 A 
ATOM     33  C   UNL     1       3.273  -0.500  -0.102  0.00  0.00    +0.028 A 
ATOM     34  C   UNL     1       2.001  -1.075  -0.060  0.00  0.00    +0.078 A 
ATOM     35  N   UNL     1       1.826  -2.420  -0.075  0.00  0.00    -0.230 NA
ENDBRANCH  22  24
ENDBRANCH  21  22
ENDBRANCH  19  21
ENDBRANCH   2  19
TORSDOF 7
