REMARK  Name = ZINC40288250
REMARK  3 active torsions:
REMARK  status: ('A' for Active; 'I' for Inactive)
REMARK    1  A    between atoms: C_4  and  N_11
REMARK    2  A    between atoms: C_5  and  C_7
REMARK    3  A    between atoms: C_12  and  C_14
REMARK                            x       y       z     vdW  Elec       q    Type
REMARK                         _______ _______ _______ _____ _____    ______ ____
ROOT
ATOM      1  C   UNL     1       5.996  -0.859  -0.161  0.00  0.00    +0.122 C 
ATOM      2  C   UNL     1       6.010  -1.667  -1.460  0.00  0.00    +0.114 C 
ATOM      3  C   UNL     1       7.382  -2.247  -1.680  0.00  0.00    +0.219 C 
ATOM      4  O   UNL     1       7.495  -3.356  -2.159  0.00  0.00    -0.275 OA
ATOM      5  N   UNL     1       8.483  -1.549  -1.353  0.00  0.00    -0.270 N 
ATOM      6  C   UNL     1       8.385  -0.328  -0.709  0.00  0.00    +0.138 A 
ATOM      7  C   UNL     1       7.191   0.055  -0.124  0.00  0.00    +0.069 A 
ATOM      8  C   UNL     1       7.110   1.303   0.502  0.00  0.00    +0.258 A 
ATOM      9  O   UNL     1       6.068   1.674   1.018  0.00  0.00    -0.267 OA
ATOM     10  N   UNL     1       8.208   2.088   0.525  0.00  0.00    -0.295 N 
ATOM     11  H   UNL     1       8.169   2.964   0.941  0.00  0.00    +0.172 HD
ATOM     12  C   UNL     1       9.369   1.652  -0.035  0.00  0.00    +0.200 A 
ATOM     13  N   UNL     1       9.449   0.479  -0.626  0.00  0.00    -0.200 NA
ATOM     14  N   UNL     1      10.480   2.451   0.020  0.00  0.00    -0.301 N 
ATOM     15  C   UNL     1      10.551   3.778   0.650  0.00  0.00    +0.108 C 
ATOM     16  C   UNL     1      11.986   4.307   0.443  0.00  0.00    +0.020 C 
ATOM     17  C   UNL     1      12.482   3.494  -0.782  0.00  0.00    +0.020 C 
ATOM     18  C   UNL     1      11.804   2.121  -0.538  0.00  0.00    +0.108 C 
ATOM     19  H   UNL     1       9.358  -1.907  -1.570  0.00  0.00    +0.156 HD
ENDROOT
BRANCH   1  21
ATOM     20  N   UNL     1       3.916  -0.147   0.973  0.00  0.00    -0.284 N 
ATOM     21  C   UNL     1       4.734  -0.038  -0.093  0.00  0.00    +0.225 C 
ATOM     22  O   UNL     1       4.455   0.720  -0.997  0.00  0.00    -0.275 OA
ATOM     23  H   UNL     1       4.178  -0.692   1.732  0.00  0.00    +0.155 HD
BRANCH  20  27
ATOM     24  C   UNL     1       0.262   1.855   1.007  0.00  0.00    +0.001 A 
ATOM     25  C   UNL     1       0.858   1.527  -0.197  0.00  0.00    +0.002 A 
ATOM     26  C   UNL     1       2.069   0.864  -0.212  0.00  0.00    +0.024 A 
ATOM     27  C   UNL     1       2.689   0.526   0.984  0.00  0.00    +0.045 A 
ATOM     28  C   UNL     1       2.088   0.856   2.192  0.00  0.00    +0.076 A 
ATOM     29  C   UNL     1       0.877   1.520   2.200  0.00  0.00    +0.014 A 
BRANCH  28  30
ATOM     30  C   UNL     1       2.757   0.492   3.492  0.00  0.00    +0.419 C 
ATOM     31  F   UNL     1       1.967   0.926   4.561  0.00  0.00    -0.166 F 
ATOM     32  F   UNL     1       2.914  -0.897   3.562  0.00  0.00    -0.166 F 
ATOM     33  F   UNL     1       4.012   1.107   3.560  0.00  0.00    -0.166 F 
ENDBRANCH  28  30
ENDBRANCH  20  27
ENDBRANCH   1  21
TORSDOF 3
