REMARK  Name = ZINC20320599
REMARK  12 active torsions:
REMARK  status: ('A' for Active; 'I' for Inactive)
REMARK    1  A    between atoms: C_1  and  C_2
REMARK    2  A    between atoms: C_2  and  C_3
REMARK    3  A    between atoms: C_3  and  C_5
REMARK    4  A    between atoms: C_3  and  N_6
REMARK    5  A    between atoms: N_6  and  C_7
REMARK    6  A    between atoms: N_6  and  C_8
REMARK    7  A    between atoms: C_8  and  C_9
REMARK    8  A    between atoms: C_13  and  C_15
REMARK    9  A    between atoms: C_15  and  O_33
REMARK   10  A    between atoms: N_18  and  S_21
REMARK   11  A    between atoms: S_21  and  C_24
REMARK   12  A    between atoms: C_27  and  N_30
REMARK                            x       y       z     vdW  Elec       q    Type
REMARK                         _______ _______ _______ _____ _____    ______ ____
ROOT
ATOM      1  C   UNL     1       1.921   0.005   3.120  0.00  0.00    +0.093 C 
ATOM      2  C   UNL     1       0.678  -0.635   3.742  0.00  0.00    +0.056 C 
ATOM      3  C   UNL     1      -0.558  -0.241   2.926  0.00  0.00    +0.112 C 
ATOM      4  N   UNL     1      -0.616   1.224   2.833  0.00  0.00    -0.176 NA
ATOM      5  C   UNL     1       0.561   1.947   2.332  0.00  0.00    +0.112 C 
ATOM      6  C   UNL     1       1.784   1.529   3.155  0.00  0.00    +0.056 C 
ENDROOT
BRANCH   1  11
ATOM      7  C   UNL     1       5.486  -0.891   3.980  0.00  0.00    -0.064 A 
ATOM      8  C   UNL     1       5.383  -1.163   5.332  0.00  0.00    +0.002 A 
ATOM      9  C   UNL     1       4.160  -1.057   5.967  0.00  0.00    +0.001 A 
ATOM     10  C   UNL     1       3.041  -0.674   5.252  0.00  0.00    +0.006 A 
ATOM     11  C   UNL     1       3.142  -0.407   3.900  0.00  0.00    -0.016 A 
ATOM     12  C   UNL     1       4.365  -0.513   3.264  0.00  0.00    +0.008 A 
BRANCH   7  13
ATOM     13  C   UNL     1       6.819  -1.006   3.287  0.00  0.00    -0.043 C 
BRANCH  13  14
ATOM     14  N   UNL     1       7.517   0.285   3.350  0.00  0.00    +0.382 N 
ATOM     15  C   UNL     1       6.805   1.306   2.571  0.00  0.00    -0.095 C 
ATOM     16  H   UNL     1       7.531   0.611   4.401  0.00  0.00    -0.081 HD
BRANCH  14  17
ATOM     17  C   UNL     1       8.909   0.153   2.899  0.00  0.00    -0.072 C 
ATOM     18  C   UNL     1       9.646  -0.836   3.803  0.00  0.00    -0.013 C 
BRANCH  17  20
ATOM     19  C   UNL     1      11.023   1.397   2.425  0.00  0.00    +0.002 C 
ATOM     20  C   UNL     1       9.598   1.518   2.967  0.00  0.00    -0.019 C 
ENDBRANCH  17  20
ENDBRANCH  14  17
ENDBRANCH  13  14
ENDBRANCH   7  13
ENDBRANCH   1  11
BRANCH   4  21
ATOM     21  S   UNL     1      -1.984   2.044   3.278  0.00  0.00    +0.061 S 
ATOM     22  O   UNL     1      -1.959   3.283   2.582  0.00  0.00    -0.153 OA
ATOM     23  O   UNL     1      -3.063   1.127   3.162  0.00  0.00    -0.153 OA
BRANCH  21  24
ATOM     24  C   UNL     1      -1.829   2.425   4.991  0.00  0.00    +0.106 A 
ATOM     25  C   UNL     1      -2.304   1.541   5.942  0.00  0.00    +0.031 A 
ATOM     26  C   UNL     1      -2.179   1.839   7.286  0.00  0.00    +0.034 A 
ATOM     27  C   UNL     1      -1.587   3.024   7.679  0.00  0.00    +0.126 A 
ATOM     28  C   UNL     1      -1.116   3.910   6.729  0.00  0.00    +0.034 A 
ATOM     29  C   UNL     1      -1.238   3.611   5.385  0.00  0.00    +0.031 A 
BRANCH  27  30
ATOM     30  N   UNL     1      -1.457   3.344   9.119  0.00  0.00    +0.056 N 
ATOM     31  O   UNL     1      -0.935   4.389   9.465  0.00  0.00    -0.126 OA
ATOM     32  O   UNL     1      -1.872   2.563   9.956  0.00  0.00    -0.126 OA
ENDBRANCH  27  30
ENDBRANCH  21  24
ENDBRANCH   4  21
BRANCH   1  33
ATOM     33  O   UNL     1       2.052  -0.430   1.765  0.00  0.00    -0.384 OA
ATOM     34  H   UNL     1       1.253  -0.218   1.039  0.00  0.00    +0.211 HD
ENDBRANCH   1  33
TORSDOF 9
