REMARK  Name = ZINC16904498
REMARK  4 active torsions:
REMARK  status: ('A' for Active; 'I' for Inactive)
REMARK    1  A    between atoms: C_1  and  N_2
REMARK    2  A    between atoms: C_6  and  C_7
REMARK    3  A    between atoms: N_15  and  C_16
REMARK    4  A    between atoms: C_19  and  O_22
REMARK                            x       y       z     vdW  Elec       q    Type
REMARK                         _______ _______ _______ _____ _____    ______ ____
ROOT
ATOM      1  C   UNL     1      -4.952   5.707  -0.789  0.00  0.00    +0.140 C 
ATOM      2  N   UNL     1      -4.565   4.485  -1.499  0.00  0.00    -0.249 N 
ATOM      3  C   UNL     1      -5.490   3.759  -2.103  0.00  0.00    +0.259 C 
ATOM      4  O   UNL     1      -6.664   4.081  -2.088  0.00  0.00    -0.269 OA
ATOM      5  C   UNL     1      -5.034   2.535  -2.795  0.00  0.00    +0.078 C 
ATOM      6  C   UNL     1      -5.756   1.615  -3.482  0.00  0.00    +0.028 C 
ATOM      7  S   UNL     1      -3.276   2.593  -2.481  0.00  0.00    -0.049 S 
ATOM      8  C   UNL     1      -3.241   4.105  -1.533  0.00  0.00    +0.168 C 
ATOM      9  N   UNL     1      -2.205   4.706  -0.994  0.00  0.00    -0.226 NA
ENDROOT
BRANCH   6  10
ATOM     10  C   UNL     1      -5.070   0.557  -4.236  0.00  0.00    -0.024 A 
ATOM     11  C   UNL     1      -3.681   0.599  -4.402  0.00  0.00    +0.008 A 
ATOM     12  C   UNL     1      -3.045  -0.401  -5.106  0.00  0.00    +0.001 A 
ATOM     13  C   UNL     1      -3.777  -1.439  -5.658  0.00  0.00    +0.000 A 
ATOM     14  C   UNL     1      -5.152  -1.484  -5.503  0.00  0.00    +0.001 A 
ATOM     15  C   UNL     1      -5.803  -0.495  -4.796  0.00  0.00    +0.008 A 
ENDBRANCH   6  10
BRANCH   9  16
ATOM     16  C   UNL     1      -0.953   4.168  -1.131  0.00  0.00    +0.067 A 
ATOM     17  C   UNL     1      -0.754   2.799  -0.943  0.00  0.00    +0.031 A 
ATOM     18  C   UNL     1       0.509   2.263  -1.077  0.00  0.00    +0.047 A 
ATOM     19  C   UNL     1       1.581   3.080  -1.410  0.00  0.00    +0.117 A 
ATOM     20  C   UNL     1       1.387   4.441  -1.603  0.00  0.00    +0.047 A 
ATOM     21  C   UNL     1       0.128   4.987  -1.465  0.00  0.00    +0.031 A 
BRANCH  19  22
ATOM     22  O   UNL     1       2.824   2.546  -1.546  0.00  0.00    -0.507 OA
ATOM     23  H   UNL     1       3.027   2.248  -2.443  0.00  0.00    +0.292 HD
ENDBRANCH  19  22
ENDBRANCH   9  16
TORSDOF 3
