REMARK  Name = ZINC63600944
REMARK  12 active torsions:
REMARK  status: ('A' for Active; 'I' for Inactive)
REMARK    1  A    between atoms: C_1  and  O_2
REMARK    2  A    between atoms: O_2  and  C_3
REMARK    3  A    between atoms: C_3  and  C_4
REMARK    4  A    between atoms: C_4  and  C_5
REMARK    5  A    between atoms: C_5  and  N_6
REMARK    6  A    between atoms: C_7  and  C_9
REMARK    7  A    between atoms: C_9  and  N_10
REMARK    8  A    between atoms: N_13  and  C_16
REMARK    9  A    between atoms: C_19  and  N_25
REMARK   10  A    between atoms: C_21  and  C_22
REMARK   11  A    between atoms: N_25  and  S_26
REMARK   12  A    between atoms: S_26  and  C_29
REMARK                            x       y       z     vdW  Elec       q    Type
REMARK                         _______ _______ _______ _____ _____    ______ ____
ROOT
ATOM      1  C   UNL     1       5.193  -9.492  -6.019  0.00  0.00    +0.044 A 
ATOM      2  C   UNL     1       5.853 -10.152  -4.990  0.00  0.00    +0.026 A 
ATOM      3  C   UNL     1       6.844 -11.067  -5.276  0.00  0.00    +0.028 A 
ATOM      4  C   UNL     1       7.192 -11.338  -6.597  0.00  0.00    +0.075 A 
ATOM      5  C   UNL     1       6.546 -10.690  -7.634  0.00  0.00    +0.043 A 
ATOM      6  C   UNL     1       5.535  -9.764  -7.354  0.00  0.00    +0.086 A 
ENDROOT
BRANCH   1  10
ATOM      7  N   UNL     1       2.458  -7.001  -4.216  0.00  0.00    -0.291 NA
ATOM      8  C   UNL     1       3.891  -6.680  -4.218  0.00  0.00    +0.104 C 
ATOM      9  C   UNL     1       4.513  -7.146  -5.539  0.00  0.00    +0.120 C 
ATOM     10  N   UNL     1       4.194  -8.569  -5.729  0.00  0.00    -0.327 N 
ATOM     11  C   UNL     1       2.791  -8.991  -5.605  0.00  0.00    +0.120 C 
ATOM     12  C   UNL     1       2.236  -8.452  -4.282  0.00  0.00    +0.104 C 
BRANCH   7  13
ATOM     13  C   UNL     1       1.790  -6.419  -3.044  0.00  0.00    +0.180 C 
BRANCH  13  15
ATOM     14  N   UNL     1       1.272  -4.165  -2.169  0.00  0.00    -0.314 N 
ATOM     15  C   UNL     1       1.828  -4.916  -3.140  0.00  0.00    +0.227 C 
ATOM     16  O   UNL     1       2.359  -4.382  -4.090  0.00  0.00    -0.274 OA
ATOM     17  H   UNL     1       0.847  -4.592  -1.409  0.00  0.00    +0.149 HD
BRANCH  14  18
ATOM     18  C   UNL     1       1.309  -2.703  -2.261  0.00  0.00    +0.106 C 
BRANCH  18  19
ATOM     19  C   UNL     1       0.613  -2.097  -1.041  0.00  0.00    +0.047 C 
BRANCH  19  20
ATOM     20  C   UNL     1       0.652  -0.570  -1.138  0.00  0.00    +0.161 C 
BRANCH  20  22
ATOM     21  C   UNL     1      -0.017   1.425   0.010  0.00  0.00    +0.193 C 
ATOM     22  O   UNL     1       0.002  -0.004   0.002  0.00  0.00    -0.383 OA
ENDBRANCH  20  22
ENDBRANCH  19  20
ENDBRANCH  18  19
ENDBRANCH  14  18
ENDBRANCH  13  15
ENDBRANCH   7  13
ENDBRANCH   1  10
BRANCH   6  23
ATOM     23  C   UNL     1       4.838  -9.075  -8.451  0.00  0.00    +0.388 C 
ATOM     24  O   UNL     1       5.139  -9.315  -9.612  0.00  0.00    -0.241 OA
ATOM     25  O   UNL     1       3.958  -8.263  -8.202  0.00  0.00    -0.241 OA
ENDBRANCH   6  23
BRANCH   4  26
ATOM     26  N   UNL     1       8.200 -12.268  -6.876  0.00  0.00    -0.097 NA
BRANCH  26  27
ATOM     27  S   UNL     1       8.976 -13.045  -5.636  0.00  0.00    +0.098 S 
ATOM     28  O   UNL     1       9.707 -12.052  -4.929  0.00  0.00    -0.148 OA
ATOM     29  O   UNL     1       8.008 -13.871  -5.005  0.00  0.00    -0.148 OA
BRANCH  27  30
ATOM     30  C   UNL     1      10.165 -14.125  -6.360  0.00  0.00    +0.148 A 
ATOM     31  C   UNL     1      11.460 -13.881  -6.674  0.00  0.00    +0.037 A 
ATOM     32  C   UNL     1      12.214 -14.891  -7.242  0.00  0.00    +0.010 A 
ATOM     33  C   UNL     1      11.635 -16.096  -7.468  0.00  0.00    +0.047 A 
ATOM     34  S   UNL     1       9.977 -15.827  -6.864  0.00  0.00    -0.077 S 
ENDBRANCH  27  30
ENDBRANCH  26  27
ENDBRANCH   4  26
TORSDOF 11
