REMARK  Name = ZINC39467517
REMARK  5 active torsions:
REMARK  status: ('A' for Active; 'I' for Inactive)
REMARK    1  A    between atoms: C_1  and  C_2
REMARK    2  A    between atoms: C_2  and  O_3
REMARK    3  A    between atoms: O_3  and  C_4
REMARK    4  A    between atoms: P_13  and  C_23
REMARK    5  A    between atoms: C_28  and  O_29
REMARK                            x       y       z     vdW  Elec       q    Type
REMARK                         _______ _______ _______ _____ _____    ______ ____
ROOT
ATOM      1  C   UNL     1      -1.498  -1.848   0.006  0.00  0.00    +0.130 C 
ATOM      2  C   UNL     1      -0.431  -2.650  -0.003  0.00  0.00    +0.024 C 
ATOM      3  C   UNL     1      -0.624  -4.148   0.002  0.00  0.00    +0.019 C 
ATOM      4  C   UNL     1      -0.916  -4.610  -1.426  0.00  0.00    -0.002 C 
ATOM      5  C   UNL     1      -1.247  -6.107  -1.450  0.00  0.00    -0.020 C 
ATOM      6  C   UNL     1      -1.526  -6.484  -2.911  0.00  0.00    +0.157 C 
ATOM      7  O   UNL     1      -1.794  -7.894  -3.001  0.00  0.00    -0.316 OA
ATOM      8  P   UNL     1      -2.899  -8.520  -1.984  0.00  0.00    +0.291 P 
ATOM      9  O   UNL     1      -2.678  -9.974  -1.817  0.00  0.00    -0.269 OA
ATOM     10  N   UNL     1      -2.662  -7.736  -0.552  0.00  0.00    -0.288 NA
ATOM     11  N   UNL     1      -2.408  -6.381  -0.599  0.00  0.00    +0.398 N 
ATOM     12  C   UNL     1      -2.132  -5.976   0.789  0.00  0.00    -0.046 C 
ATOM     13  C   UNL     1      -1.821  -4.488   0.895  0.00  0.00    +0.006 C 
ATOM     14  C   UNL     1      -3.018  -3.687   0.459  0.00  0.00    -0.006 C 
ATOM     15  C   UNL     1      -2.853  -2.435   0.016  0.00  0.00    +0.055 C 
ATOM     16 BR   UNL     1      -4.338  -1.415  -0.562  0.00  0.00    -0.047 Br
ATOM     17  H   UNL     1      -2.702  -8.212   0.292  0.00  0.00    +0.111 HD
ATOM     18  H   UNL     1      -3.215  -5.892  -0.956  0.00  0.00    -0.055 HD
ENDROOT
BRANCH   8  19
ATOM     19  C   UNL     1      -4.574  -8.208  -2.607  0.00  0.00    +0.091 A 
ATOM     20  C   UNL     1      -5.242  -7.053  -2.247  0.00  0.00    +0.018 A 
ATOM     21  C   UNL     1      -6.518  -6.815  -2.720  0.00  0.00    +0.001 A 
ATOM     22  C   UNL     1      -7.130  -7.731  -3.556  0.00  0.00    +0.004 A 
ATOM     23  C   UNL     1      -6.467  -8.887  -3.919  0.00  0.00    +0.046 A 
ATOM     24  C   UNL     1      -5.184  -9.126  -3.449  0.00  0.00    +0.131 A 
BRANCH  24  25
ATOM     25  O   UNL     1      -4.527 -10.260  -3.810  0.00  0.00    -0.506 OA
ATOM     26  H   UNL     1      -4.675 -11.007  -3.213  0.00  0.00    +0.292 HD
ENDBRANCH  24  25
ENDBRANCH   8  19
BRANCH   1  27
ATOM     27  O   UNL     1      -1.339  -0.499   0.012  0.00  0.00    -0.491 OA
BRANCH  27  29
ATOM     28  C   UNL     1      -0.019   1.526   0.010  0.00  0.00    +0.048 C 
ATOM     29  C   UNL     1       0.002  -0.004   0.002  0.00  0.00    +0.226 C 
ENDBRANCH  27  29
ENDBRANCH   1  27
TORSDOF 4
