REMARK  Name = ZINC23336440
REMARK  5 active torsions:
REMARK  status: ('A' for Active; 'I' for Inactive)
REMARK    1  A    between atoms: C_8  and  C_21
REMARK    2  A    between atoms: N_10  and  C_12
REMARK    3  A    between atoms: C_12  and  C_13
REMARK    4  A    between atoms: C_18  and  O_19
REMARK    5  A    between atoms: C_26  and  C_29
REMARK                            x       y       z     vdW  Elec       q    Type
REMARK                         _______ _______ _______ _____ _____    ______ ____
ROOT
ATOM      1  C   UNL     1       1.682   2.513  -0.606  0.00  0.00    +0.000 A 
ATOM      2  C   UNL     1       0.778   1.574  -0.145  0.00  0.00    +0.000 A 
ATOM      3  C   UNL     1      -0.516   1.952   0.148  0.00  0.00    +0.002 A 
ATOM      4  C   UNL     1      -0.913   3.273  -0.006  0.00  0.00    -0.061 A 
ATOM      5  C   UNL     1      -0.013   4.208  -0.468  0.00  0.00    -0.047 A 
ATOM      6  C   UNL     1       1.287   3.826  -0.768  0.00  0.00    +0.004 A 
ATOM      7  C   UNL     1      -0.401   5.651  -0.664  0.00  0.00    +0.029 C 
ATOM      8  C   UNL     1      -1.695   5.950   0.092  0.00  0.00    +0.025 C 
ATOM      9  N   UNL     1      -2.691   4.927  -0.263  0.00  0.00    +0.393 N 
ATOM     10  C   UNL     1      -2.333   3.639   0.339  0.00  0.00    -0.041 C 
ATOM     11  H   UNL     1      -2.696   4.808  -1.357  0.00  0.00    -0.080 HD
ENDROOT
BRANCH   8  12
ATOM     12  C   UNL     1      -2.204   7.315  -0.295  0.00  0.00    +0.202 C 
ATOM     13  O   UNL     1      -2.895   7.446  -1.283  0.00  0.00    -0.277 OA
ATOM     14  N   UNL     1      -1.891   8.389   0.455  0.00  0.00    -0.303 N 
ATOM     15  C   UNL     1      -0.966   8.266   1.590  0.00  0.00    +0.108 C 
ATOM     16  C   UNL     1      -1.636   8.830   2.842  0.00  0.00    +0.032 C 
ATOM     17  C   UNL     1      -2.105  10.260   2.566  0.00  0.00    +0.078 C 
ATOM     18  C   UNL     1      -3.130  10.252   1.429  0.00  0.00    +0.032 C 
ATOM     19  C   UNL     1      -2.472   9.706   0.158  0.00  0.00    +0.108 C 
BRANCH  17  20
ATOM     20  C   UNL     1      -2.739  10.829   3.809  0.00  0.00    +0.214 C 
ATOM     21  O   UNL     1      -3.896  11.192   3.788  0.00  0.00    -0.276 OA
ATOM     22  N   UNL     1      -2.020  10.934   4.944  0.00  0.00    -0.329 N 
ATOM     23  H   UNL     1      -2.482  11.349   5.852  0.00  0.00    +0.145 HD
ATOM     24  H   UNL     1      -0.971  10.605   4.963  0.00  0.00    +0.145 HD
ENDBRANCH  17  20
ENDBRANCH   8  12
BRANCH   9  25
ATOM     25  C   UNL     1      -4.040   5.342   0.144  0.00  0.00    -0.038 C 
BRANCH  25  26
ATOM     26  C   UNL     1      -5.018   4.234  -0.153  0.00  0.00    -0.021 A 
ATOM     27  C   UNL     1      -5.806   4.293  -1.286  0.00  0.00    +0.025 A 
ATOM     28  C   UNL     1      -6.703   3.276  -1.559  0.00  0.00    +0.041 A 
ATOM     29  C   UNL     1      -6.813   2.198  -0.699  0.00  0.00    +0.023 A 
ATOM     30  C   UNL     1      -6.026   2.135   0.435  0.00  0.00    +0.047 A 
ATOM     31  C   UNL     1      -5.122   3.151   0.708  0.00  0.00    +0.118 A 
ATOM     32 CL   UNL     1      -7.692   3.352  -2.984  0.00  0.00    -0.084 Cl
BRANCH  31  33
ATOM     33  O   UNL     1      -4.344   3.089   1.821  0.00  0.00    -0.507 OA
ATOM     34  H   UNL     1      -4.427   2.230   2.503  0.00  0.00    +0.292 HD
ENDBRANCH  31  33
ENDBRANCH  25  26
ENDBRANCH   9  25
TORSDOF 5
