REMARK  Name = ZINC23563401
REMARK  9 active torsions:
REMARK  status: ('A' for Active; 'I' for Inactive)
REMARK    1  A    between atoms: C_1  and  C_2
REMARK    2  A    between atoms: C_5  and  N_9
REMARK    3  A    between atoms: C_6  and  C_8
REMARK    4  A    between atoms: C_13  and  C_15
REMARK    5  A    between atoms: C_15  and  S_16
REMARK    6  A    between atoms: S_16  and  C_17
REMARK    7  A    between atoms: C_20  and  C_28
REMARK    8  A    between atoms: N_21  and  C_22
REMARK    9  A    between atoms: C_28  and  C_29
REMARK                            x       y       z     vdW  Elec       q    Type
REMARK                         _______ _______ _______ _____ _____    ______ ____
ROOT
ATOM      1  S   UNL     1      -0.438  -8.955  -4.061  0.00  0.00    -0.077 S 
ENDROOT
BRANCH   1   2
ATOM      2  C   UNL     1      -0.539 -10.706  -3.894  0.00  0.00    +0.192 A 
ATOM      3  N   UNL     1      -0.531 -11.384  -2.770  0.00  0.00    -0.122 NA
ATOM      4  N   UNL     1      -0.620 -12.642  -3.019  0.00  0.00    -0.133 NA
ATOM      5  C   UNL     1      -0.688 -12.840  -4.305  0.00  0.00    +0.139 A 
ATOM      6  N   UNL     1      -0.645 -11.614  -4.908  0.00  0.00    -0.303 N 
BRANCH   6   7
ATOM      7  C   UNL     1      -0.698 -11.333  -6.345  0.00  0.00    +0.091 C 
ATOM      8  C   UNL     1       0.580 -10.606  -6.770  0.00  0.00    +0.025 C 
ATOM      9  C   UNL     1       0.524 -10.313  -8.271  0.00  0.00    +0.002 C 
ATOM     10  C   UNL     1      -0.689  -9.430  -8.573  0.00  0.00    +0.000 C 
ATOM     11  C   UNL     1      -1.966 -10.157  -8.148  0.00  0.00    +0.002 C 
ATOM     12  C   UNL     1      -1.911 -10.450  -6.647  0.00  0.00    +0.025 C 
ENDBRANCH   6   7
BRANCH   5  13
ATOM     13  C   UNL     1      -0.801 -14.173  -4.998  0.00  0.00    +0.118 C 
BRANCH  13  14
ATOM     14  C   UNL     1      -2.255 -14.530  -5.168  0.00  0.00    -0.003 A 
ATOM     15  C   UNL     1      -3.088 -14.250  -6.200  0.00  0.00    +0.011 A 
ATOM     16  C   UNL     1      -4.399 -14.683  -6.140  0.00  0.00    +0.008 A 
ATOM     17  C   UNL     1      -4.814 -15.375  -5.050  0.00  0.00    +0.045 A 
ATOM     18  S   UNL     1      -3.326 -15.438  -4.065  0.00  0.00    -0.101 S 
ENDBRANCH  13  14
ENDBRANCH   5  13
ENDBRANCH   1   2
BRANCH   1  19
ATOM     19  C   UNL     1      -0.317  -8.357  -2.353  0.00  0.00    +0.173 C 
BRANCH  19  24
ATOM     20  N   UNL     1       0.059  -4.170  -0.021  0.00  0.00    -0.269 N 
ATOM     21  C   UNL     1      -0.040  -4.839  -1.187  0.00  0.00    +0.310 C 
ATOM     22  O   UNL     1      -0.054  -4.229  -2.238  0.00  0.00    -0.252 OA
ATOM     23  N   UNL     1      -0.124  -6.184  -1.187  0.00  0.00    -0.239 N 
ATOM     24  C   UNL     1      -0.223  -6.853  -2.353  0.00  0.00    +0.231 C 
ATOM     25  O   UNL     1      -0.237  -6.244  -3.401  0.00  0.00    -0.274 OA
ATOM     26  H   UNL     1       0.135  -4.658   0.814  0.00  0.00    +0.156 HD
ATOM     27  H   UNL     1      -0.113  -6.671  -0.348  0.00  0.00    +0.159 HD
BRANCH  20  32
ATOM     28  C   UNL     1       0.025   1.503   0.005  0.00  0.00    +0.044 C 
ATOM     29  C   UNL     1       0.034  -0.004  -0.002  0.00  0.00    -0.050 A 
ATOM     30  C   UNL     1       0.632  -0.685  -1.046  0.00  0.00    +0.005 A 
ATOM     31  C   UNL     1       0.641  -2.066  -1.055  0.00  0.00    +0.024 A 
ATOM     32  C   UNL     1       0.051  -2.771  -0.014  0.00  0.00    +0.038 A 
ATOM     33  C   UNL     1      -0.548  -2.083   1.033  0.00  0.00    -0.029 A 
ATOM     34  C   UNL     1      -0.551  -0.702   1.039  0.00  0.00    +0.008 A 
ATOM     35  C   UNL     1      -1.191  -2.843   2.165  0.00  0.00    +0.045 C 
ENDBRANCH  20  32
ENDBRANCH  19  24
ENDBRANCH   1  19
TORSDOF 7
