REMARK  Name = ZINC64034473
REMARK  2 active torsions:
REMARK  status: ('A' for Active; 'I' for Inactive)
REMARK    1  A    between atoms: C_1  and  C_2
REMARK    2  A    between atoms: C_5  and  C_12
REMARK                            x       y       z     vdW  Elec       q    Type
REMARK                         _______ _______ _______ _____ _____    ______ ____
ROOT
ATOM      1  C   UNL     1      -0.018   1.503   0.010  0.00  0.00    +0.065 C 
ATOM      2  C   UNL     1       0.002  -0.004   0.002  0.00  0.00    +0.041 A 
ATOM      3  C   UNL     1       0.008  -0.813  -1.121  0.00  0.00    +0.023 A 
ATOM      4  C   UNL     1      -0.002  -0.578  -2.510  0.00  0.00    +0.022 A 
ATOM      5  C   UNL     1       0.009  -1.652  -3.377  0.00  0.00    +0.009 A 
ATOM      6  C   UNL     1       0.029  -2.977  -2.899  0.00  0.00    +0.013 A 
ATOM      7  C   UNL     1       0.038  -3.255  -1.575  0.00  0.00    +0.031 A 
ATOM      8  C   UNL     1       0.029  -2.201  -0.634  0.00  0.00    +0.093 A 
ATOM      9  N   UNL     1       0.034  -2.141   0.685  0.00  0.00    -0.174 NA
ATOM     10  N   UNL     1       0.024  -0.799   1.081  0.00  0.00    -0.281 N 
ATOM     11  H   UNL     1       0.029  -0.489   2.000  0.00  0.00    +0.189 HD
ENDROOT
BRANCH   5  12
ATOM     12  C   UNL     1      -0.001  -1.407  -4.835  0.00  0.00    +0.125 C 
ATOM     13  N   UNL     1      -0.013  -0.264  -5.455  0.00  0.00    -0.178 NA
ATOM     14  N   UNL     1      -0.022  -0.151  -6.827  0.00  0.00    -0.240 N 
ATOM     15  C   UNL     1      -0.015  -1.433  -7.567  0.00  0.00    +0.244 C 
ATOM     16  S   UNL     1       0.010  -2.611  -6.153  0.00  0.00    -0.064 S 
ATOM     17 CL   UNL     1      -1.506  -1.624  -8.562  0.00  0.00    -0.087 Cl
ATOM     18  H   UNL     1      -0.031   0.708  -7.277  0.00  0.00    +0.171 HD
ENDBRANCH   5  12
TORSDOF 1
