REMARK  Name = ZINC63698219
REMARK  8 active torsions:
REMARK  status: ('A' for Active; 'I' for Inactive)
REMARK    1  A    between atoms: C_1  and  C_2
REMARK    2  A    between atoms: C_2  and  C_19
REMARK    3  A    between atoms: C_5  and  C_10
REMARK    4  A    between atoms: C_7  and  C_8
REMARK    5  A    between atoms: C_7  and  C_9
REMARK    6  A    between atoms: N_21  and  N_22
REMARK    7  A    between atoms: C_23  and  C_24
REMARK    8  A    between atoms: C_29  and  O_30
REMARK                            x       y       z     vdW  Elec       q    Type
REMARK                         _______ _______ _______ _____ _____    ______ ____
ROOT
ATOM      1  C   UNL     1       0.066   1.531   0.056  0.00  0.00    +0.021 C 
ATOM      2  C   UNL     1       0.005   0.003   0.017  0.00  0.00    +0.051 C 
ATOM      3  C   UNL     1      -1.463  -0.469   0.080  0.00  0.00    +0.017 C 
ATOM      4  C   UNL     1      -1.413  -1.749   0.950  0.00  0.00    +0.009 C 
ATOM      5  C   UNL     1      -0.356  -1.392   2.025  0.00  0.00    +0.038 C 
ATOM      6  C   UNL     1       0.708  -0.584   1.254  0.00  0.00    -0.015 C 
ATOM      7  C   UNL     1       1.249   0.545   2.134  0.00  0.00    +0.012 C 
ATOM      8  C   UNL     1       1.851  -1.503   0.819  0.00  0.00    +0.012 C 
ENDROOT
BRANCH   5   9
ATOM      9  C   UNL     1       0.258  -2.662   2.616  0.00  0.00    +0.178 C 
ATOM     10  N   UNL     1      -0.768  -3.430   3.334  0.00  0.00    -0.363 N 
ATOM     11  C   UNL     1      -0.393  -3.517   4.577  0.00  0.00    +0.060 A 
ATOM     12  C   UNL     1      -0.991  -4.151   5.760  0.00  0.00    +0.027 A 
ATOM     13  C   UNL     1      -0.358  -4.076   6.947  0.00  0.00    +0.002 A 
ATOM     14  C   UNL     1       0.868  -3.407   7.112  0.00  0.00    +0.002 A 
ATOM     15  C   UNL     1       1.502  -2.791   6.093  0.00  0.00    +0.027 A 
ATOM     16  C   UNL     1       0.905  -2.809   4.751  0.00  0.00    +0.060 A 
ATOM     17  N   UNL     1       1.282  -2.312   3.608  0.00  0.00    -0.363 N 
ATOM     18  H   UNL     1      -1.577  -3.804   2.951  0.00  0.00    +0.162 HD
ATOM     19  H   UNL     1       2.092  -1.805   3.442  0.00  0.00    +0.162 HD
ENDBRANCH   5   9
BRANCH   2  20
ATOM     20  C   UNL     1       0.659  -0.508  -1.240  0.00  0.00    +0.239 C 
ATOM     21  O   UNL     1       0.065  -1.280  -1.962  0.00  0.00    -0.273 OA
ATOM     22  N   UNL     1       1.905  -0.107  -1.562  0.00  0.00    -0.207 N 
ATOM     23  H   UNL     1       2.407   0.453  -0.951  0.00  0.00    +0.177 HD
BRANCH  22  24
ATOM     24  N   UNL     1       2.474  -0.499  -2.781  0.00  0.00    -0.188 NA
ATOM     25  C   UNL     1       3.674  -0.113  -3.091  0.00  0.00    +0.142 C 
BRANCH  25  26
ATOM     26  C   UNL     1       4.272  -0.526  -4.373  0.00  0.00    +0.036 A 
ATOM     27  C   UNL     1       5.565  -0.117  -4.708  0.00  0.00    +0.013 A 
ATOM     28  C   UNL     1       6.120  -0.507  -5.909  0.00  0.00    +0.001 A 
ATOM     29  C   UNL     1       5.400  -1.303  -6.785  0.00  0.00    +0.004 A 
ATOM     30  C   UNL     1       4.120  -1.713  -6.465  0.00  0.00    +0.046 A 
ATOM     31  C   UNL     1       3.550  -1.335  -5.260  0.00  0.00    +0.125 A 
BRANCH  31  32
ATOM     32  O   UNL     1       2.294  -1.743  -4.942  0.00  0.00    -0.506 OA
ATOM     33  H   UNL     1       1.598  -1.140  -5.238  0.00  0.00    +0.292 HD
ENDBRANCH  31  32
ENDBRANCH  25  26
ENDBRANCH  22  24
ENDBRANCH   2  20
TORSDOF 5
