REMARK  Name = ZINC10108316
REMARK  10 active torsions:
REMARK  status: ('A' for Active; 'I' for Inactive)
REMARK    1  A    between atoms: C_1  and  C_2
REMARK    2  A    between atoms: C_3  and  C_36
REMARK    3  A    between atoms: N_9  and  C_10
REMARK    4  A    between atoms: N_17  and  C_35
REMARK    5  A    between atoms: N_20  and  C_23
REMARK    6  A    between atoms: C_23  and  C_24
REMARK    7  A    between atoms: C_24  and  C_26
REMARK    8  A    between atoms: C_24  and  C_27
REMARK    9  A    between atoms: C_27  and  N_68
REMARK   10  A    between atoms: C_32  and  C_34
REMARK                            x       y       z     vdW  Elec       q    Type
REMARK                         _______ _______ _______ _____ _____    ______ ____
ROOT
ATOM      1  C   UNL     1      -5.866   1.773   7.916  0.00  0.00    +0.066 C 
ATOM      2  C   UNL     1      -5.259   0.881   6.864  0.00  0.00    +0.043 A 
ATOM      3  C   UNL     1      -4.169   1.147   6.150  0.00  0.00    +0.044 A 
ATOM      4  N   UNL     1      -3.938   0.084   5.294  0.00  0.00    -0.274 N 
ATOM      5  C   UNL     1      -3.103  -0.414   4.306  0.00  0.00    +0.157 A 
ATOM      6  C   UNL     1      -3.622  -1.656   3.943  0.00  0.00    +0.170 A 
ATOM      7  N   UNL     1      -4.706  -1.868   4.685  0.00  0.00    -0.193 NA
ATOM      8  C   UNL     1      -4.907  -0.839   5.495  0.00  0.00    +0.223 A 
ATOM      9  N   UNL     1      -5.740  -0.356   6.473  0.00  0.00    -0.282 N 
ATOM     10  N   UNL     1      -2.975  -2.388   2.958  0.00  0.00    -0.279 N 
ATOM     11  C   UNL     1      -1.867  -1.897   2.373  0.00  0.00    +0.333 A 
ATOM     12  O   UNL     1      -1.312  -2.552   1.511  0.00  0.00    -0.246 OA
ATOM     13  N   UNL     1      -1.359  -0.701   2.716  0.00  0.00    -0.259 N 
ATOM     14  C   UNL     1      -1.942   0.055   3.669  0.00  0.00    +0.283 A 
ATOM     15  O   UNL     1      -1.467   1.136   3.973  0.00  0.00    -0.265 OA
ATOM     16  C   UNL     1      -3.498  -3.696   2.556  0.00  0.00    +0.155 C 
ATOM     17  C   UNL     1      -3.328   2.393   6.256  0.00  0.00    +0.066 C 
ENDROOT
BRANCH   9  18
ATOM     18  C   UNL     1      -6.875  -1.000   6.983  0.00  0.00    +0.050 A 
ATOM     19  C   UNL     1      -6.903  -1.412   8.309  0.00  0.00    +0.029 A 
ATOM     20  C   UNL     1      -8.024  -2.042   8.811  0.00  0.00    +0.040 A 
ATOM     21  C   UNL     1      -9.116  -2.273   7.991  0.00  0.00    +0.124 A 
ATOM     22  C   UNL     1      -9.088  -1.867   6.667  0.00  0.00    +0.040 A 
ATOM     23  C   UNL     1      -7.970  -1.232   6.162  0.00  0.00    +0.029 A 
ATOM     24  F   UNL     1     -10.210  -2.894   8.483  0.00  0.00    -0.205 F 
ENDBRANCH   9  18
BRANCH  13  25
ATOM     25  C   UNL     1      -0.151  -0.212   2.047  0.00  0.00    +0.131 C 
BRANCH  25  26
ATOM     26  C   UNL     1      -0.544   0.592   0.806  0.00  0.00    -0.011 C 
ATOM     27  C   UNL     1      -1.306   1.849   1.233  0.00  0.00    +0.007 C 
BRANCH  26  28
ATOM     28  C   UNL     1       0.717   0.997   0.040  0.00  0.00    -0.074 C 
BRANCH  28  35
ATOM     29  C   UNL     1      -0.817   0.904  -1.831  0.00  0.00    -0.078 C 
ATOM     30  C   UNL     1      -1.093   1.461  -3.229  0.00  0.00    -0.019 C 
ATOM     31  C   UNL     1      -1.374   2.962  -3.130  0.00  0.00    -0.003 C 
ATOM     32  C   UNL     1      -0.177   3.655  -2.472  0.00  0.00    -0.016 C 
ATOM     33  C   UNL     1       0.072   3.035  -1.096  0.00  0.00    -0.072 C 
ATOM     34  C   UNL     1       1.280   3.711  -0.443  0.00  0.00    -0.013 C 
ATOM     35  N   UNL     1       0.360   1.595  -1.263  0.00  0.00    +0.382 N 
ATOM     36  H   UNL     1       1.153   1.486  -1.907  0.00  0.00    -0.081 HD
ENDBRANCH  28  35
ENDBRANCH  26  28
ENDBRANCH  25  26
ENDBRANCH  13  25
TORSDOF 5
