REMARK  Name = ZINC02975859
REMARK  7 active torsions:
REMARK  status: ('A' for Active; 'I' for Inactive)
REMARK    1  A    between atoms: C_1  and  C_2
REMARK    2  A    between atoms: C_8  and  C_10
REMARK    3  A    between atoms: C_10  and  S_11
REMARK    4  A    between atoms: S_11  and  C_12
REMARK    5  A    between atoms: N_22  and  C_23
REMARK    6  A    between atoms: C_23  and  C_24
REMARK    7  A    between atoms: C_24  and  C_25
REMARK                            x       y       z     vdW  Elec       q    Type
REMARK                         _______ _______ _______ _____ _____    ______ ____
ROOT
ATOM      1  C   UNL     1      -6.268  -5.421   0.001  0.00  0.00    +0.173 A 
ATOM      2  N   UNL     1      -5.580  -6.536  -0.003  0.00  0.00    -0.223 NA
ATOM      3  C   UNL     1      -6.192  -7.745  -0.007  0.00  0.00    +0.083 A 
ATOM      4  C   UNL     1      -5.458  -8.933  -0.012  0.00  0.00    +0.078 A 
ATOM      5  C   UNL     1      -6.115 -10.148  -0.016  0.00  0.00    +0.168 A 
ATOM      6  C   UNL     1      -7.516 -10.199  -0.014  0.00  0.00    +0.167 A 
ATOM      7  C   UNL     1      -8.256  -9.037  -0.009  0.00  0.00    +0.065 A 
ATOM      8  C   UNL     1      -7.605  -7.802  -0.005  0.00  0.00    +0.069 A 
ATOM      9  C   UNL     1      -8.349  -6.537  -0.000  0.00  0.00    +0.263 A 
ATOM     10  O   UNL     1      -9.566  -6.521   0.002  0.00  0.00    -0.267 OA
ATOM     11  N   UNL     1      -7.633  -5.389   0.008  0.00  0.00    -0.287 N 
ATOM     12  O   UNL     1      -7.901 -11.510  -0.018  0.00  0.00    -0.453 OA
ATOM     13  C   UNL     1      -6.739 -12.250  -0.437  0.00  0.00    +0.466 C 
ATOM     14  O   UNL     1      -5.636 -11.425  -0.021  0.00  0.00    -0.453 OA
ENDROOT
BRANCH   1  15
ATOM     15  S   UNL     1      -5.390  -3.893   0.006  0.00  0.00    -0.078 S 
BRANCH  15  16
ATOM     16  C   UNL     1      -3.646  -4.389  -0.006  0.00  0.00    +0.173 C 
BRANCH  16  24
ATOM     17  C   UNL     1      -0.018   1.503   0.010  0.00  0.00    +0.089 C 
ATOM     18  C   UNL     1       0.002  -0.004   0.002  0.00  0.00    +0.136 A 
ATOM     19  C   UNL     1      -1.076  -0.808   0.003  0.00  0.00    +0.091 A 
ATOM     20  C   UNL     1      -0.625  -2.147  -0.007  0.00  0.00    +0.168 A 
ATOM     21  N   UNL     1       0.683  -2.130  -0.013  0.00  0.00    -0.063 NA
ATOM     22  O   UNL     1       1.100  -0.776  -0.013  0.00  0.00    -0.358 OA
ATOM     23  N   UNL     1      -1.432  -3.285  -0.010  0.00  0.00    -0.267 N 
ATOM     24  C   UNL     1      -2.774  -3.159  -0.003  0.00  0.00    +0.229 C 
ATOM     25  O   UNL     1      -3.280  -2.057   0.006  0.00  0.00    -0.275 OA
ATOM     26  H   UNL     1      -1.027  -4.166  -0.017  0.00  0.00    +0.156 HD
ENDBRANCH  16  24
ENDBRANCH  15  16
ENDBRANCH   1  15
BRANCH  11  27
ATOM     27  C   UNL     1      -8.329  -4.099   0.018  0.00  0.00    +0.132 C 
BRANCH  27  28
ATOM     28  C   UNL     1      -8.578  -3.643  -1.421  0.00  0.00    +0.057 C 
BRANCH  28  29
ATOM     29  C   UNL     1      -9.294  -2.317  -1.411  0.00  0.00    -0.046 A 
ATOM     30  C   UNL     1     -10.675  -2.277  -1.398  0.00  0.00    +0.004 A 
ATOM     31  C   UNL     1     -11.332  -1.061  -1.389  0.00  0.00    +0.000 A 
ATOM     32  C   UNL     1     -10.607   0.116  -1.391  0.00  0.00    +0.000 A 
ATOM     33  C   UNL     1      -9.225   0.076  -1.403  0.00  0.00    +0.000 A 
ATOM     34  C   UNL     1      -8.568  -1.140  -1.408  0.00  0.00    +0.004 A 
ENDBRANCH  28  29
ENDBRANCH  27  28
ENDBRANCH  11  27
TORSDOF 6
