REMARK  Name = ZINC15827260
REMARK  10 active torsions:
REMARK  status: ('A' for Active; 'I' for Inactive)
REMARK    1  A    between atoms: C_1  and  C_2
REMARK    2  A    between atoms: C_2  and  C_3
REMARK    3  A    between atoms: C_3  and  C_5
REMARK    4  A    between atoms: C_3  and  N_6
REMARK    5  A    between atoms: C_7  and  C_9
REMARK    6  A    between atoms: C_9  and  N_10
REMARK    7  A    between atoms: N_20  and  C_23
REMARK    8  A    between atoms: C_26  and  C_29
REMARK    9  A    between atoms: C_29  and  C_30
REMARK   10  A    between atoms: C_29  and  C_31
REMARK                            x       y       z     vdW  Elec       q    Type
REMARK                         _______ _______ _______ _____ _____    ______ ____
ROOT
ATOM      1  N   UNL     1       2.348   3.893   0.001  0.00  0.00    -0.243 N 
ATOM      2  C   UNL     1       1.169   3.163  -0.001  0.00  0.00    +0.065 A 
ATOM      3  C   UNL     1       1.179   1.773  -0.016  0.00  0.00    +0.025 A 
ATOM      4  C   UNL     1      -0.013   1.076  -0.017  0.00  0.00    +0.002 A 
ATOM      5  C   UNL     1      -1.225   1.742  -0.009  0.00  0.00    +0.002 A 
ATOM      6  C   UNL     1      -1.248   3.129   0.012  0.00  0.00    +0.031 A 
ATOM      7  C   UNL     1      -0.067   3.814   0.013  0.00  0.00    +0.131 A 
ATOM      8  S   UNL     1       0.016   5.587   0.032  0.00  0.00    +0.084 S 
ATOM      9  O   UNL     1      -0.538   5.984   1.279  0.00  0.00    -0.149 OA
ATOM     10  O   UNL     1      -0.550   6.010  -1.201  0.00  0.00    -0.149 OA
ATOM     11  N   UNL     1       1.595   6.162   0.030  0.00  0.00    -0.123 N 
ATOM     12  C   UNL     1       2.549   5.202   0.014  0.00  0.00    +0.333 C 
ATOM     13  O   UNL     1       3.705   5.578   0.013  0.00  0.00    -0.250 OA
ENDROOT
BRANCH  11  14
ATOM     14  C   UNL     1       1.899   7.527   0.045  0.00  0.00    +0.061 A 
ATOM     15  C   UNL     1       0.988   8.438   0.563  0.00  0.00    +0.025 A 
ATOM     16  C   UNL     1       1.294   9.785   0.581  0.00  0.00    +0.006 A 
ATOM     17  C   UNL     1       2.502  10.227   0.073  0.00  0.00    -0.045 A 
ATOM     18  C   UNL     1       3.409   9.324  -0.448  0.00  0.00    +0.006 A 
ATOM     19  C   UNL     1       3.111   7.975  -0.464  0.00  0.00    +0.025 A 
BRANCH  17  20
ATOM     20  C   UNL     1       2.830  11.698   0.089  0.00  0.00    +0.013 C 
ATOM     21  C   UNL     1       1.784  12.463  -0.725  0.00  0.00    +0.012 C 
ATOM     22  C   UNL     1       2.826  12.207   1.532  0.00  0.00    +0.012 C 
ENDBRANCH  17  20
ENDBRANCH  11  14
BRANCH   1  23
ATOM     23  C   UNL     1       3.570   3.085  -0.015  0.00  0.00    +0.211 C 
BRANCH  23  25
ATOM     24  N   UNL     1       4.998   1.965  -1.695  0.00  0.00    -0.311 N 
ATOM     25  C   UNL     1       3.907   2.713  -1.436  0.00  0.00    +0.231 C 
ATOM     26  O   UNL     1       3.197   3.085  -2.345  0.00  0.00    -0.274 OA
ATOM     27  H   UNL     1       5.566   1.667  -0.967  0.00  0.00    +0.149 HD
BRANCH  24  28
ATOM     28  C   UNL     1       5.327   1.603  -3.076  0.00  0.00    +0.070 C 
ATOM     29  C   UNL     1       4.551   0.344  -3.471  0.00  0.00    +0.028 C 
BRANCH  28  31
ATOM     30  C   UNL     1       7.601   2.625  -2.915  0.00  0.00    +0.005 C 
ATOM     31  C   UNL     1       6.829   1.333  -3.189  0.00  0.00    +0.018 C 
ENDBRANCH  28  31
ENDBRANCH  24  28
ENDBRANCH  23  25
ENDBRANCH   1  23
TORSDOF 6
