REMARK  Name = ZINC39481231
REMARK  9 active torsions:
REMARK  status: ('A' for Active; 'I' for Inactive)
REMARK    1  A    between atoms: C_1  and  C_2
REMARK    2  A    between atoms: C_2  and  C_3
REMARK    3  A    between atoms: C_6  and  N_25
REMARK    4  A    between atoms: C_7  and  N_9
REMARK    5  A    between atoms: C_13  and  S_16
REMARK    6  A    between atoms: S_16  and  C_19
REMARK    7  A    between atoms: N_25  and  S_26
REMARK    8  A    between atoms: S_26  and  C_29
REMARK    9  A    between atoms: C_34  and  O_35
REMARK                            x       y       z     vdW  Elec       q    Type
REMARK                         _______ _______ _______ _____ _____    ______ ____
ROOT
ATOM      1  C   UNL     1      -2.158   0.500  -0.228  0.00  0.00    -0.046 A 
ATOM      2  C   UNL     1      -2.580   0.068   1.015  0.00  0.00    +0.005 A 
ATOM      3  C   UNL     1      -3.724  -0.700   1.134  0.00  0.00    +0.026 A 
ATOM      4  C   UNL     1      -4.451  -1.038   0.003  0.00  0.00    +0.069 A 
ATOM      5  C   UNL     1      -4.026  -0.602  -1.252  0.00  0.00    +0.053 A 
ATOM      6  C   UNL     1      -2.880   0.172  -1.360  0.00  0.00    +0.028 A 
ENDROOT
BRANCH   5   7
ATOM      7  N   UNL     1      -4.756  -0.940  -2.397  0.00  0.00    -0.324 N 
ATOM      8  C   UNL     1      -5.837  -0.071  -2.888  0.00  0.00    +0.120 C 
ATOM      9  C   UNL     1      -7.092  -0.925  -3.096  0.00  0.00    +0.101 C 
ATOM     10  N   UNL     1      -6.767  -2.063  -3.966  0.00  0.00    -0.292 NA
ATOM     11  C   UNL     1      -5.772  -2.945  -3.340  0.00  0.00    +0.220 C 
ATOM     12  C   UNL     1      -4.459  -2.171  -3.146  0.00  0.00    +0.147 C 
ATOM     13  H   UNL     1      -7.599  -2.576  -4.216  0.00  0.00    +0.124 HD
BRANCH  11  14
ATOM     14  S   UNL     1      -5.475  -4.379  -4.412  0.00  0.00    +0.014 S 
ATOM     15  O   UNL     1      -5.160  -3.948  -5.729  0.00  0.00    -0.168 OA
ATOM     16  O   UNL     1      -4.654  -5.327  -3.744  0.00  0.00    -0.168 OA
BRANCH  14  17
ATOM     17  C   UNL     1      -7.044  -5.167  -4.559  0.00  0.00    +0.090 A 
ATOM     18  C   UNL     1      -7.416  -6.141  -3.652  0.00  0.00    +0.027 A 
ATOM     19  C   UNL     1      -8.647  -6.759  -3.768  0.00  0.00    +0.002 A 
ATOM     20  C   UNL     1      -9.506  -6.403  -4.791  0.00  0.00    +0.000 A 
ATOM     21  C   UNL     1      -9.134  -5.429  -5.698  0.00  0.00    +0.002 A 
ATOM     22  C   UNL     1      -7.905  -4.808  -5.580  0.00  0.00    +0.027 A 
ENDBRANCH  14  17
ENDBRANCH  11  14
ENDBRANCH   5   7
BRANCH   1  24
ATOM     23  C   UNL     1      -1.276   2.818  -0.235  0.00  0.00    +0.009 C 
ATOM     24  C   UNL     1      -0.910   1.337  -0.350  0.00  0.00    +0.032 C 
ENDBRANCH   1  24
BRANCH   4  25
ATOM     25  N   UNL     1      -5.610  -1.816   0.120  0.00  0.00    -0.214 N 
ATOM     26  H   UNL     1      -5.833  -2.460  -0.569  0.00  0.00    +0.174 HD
BRANCH  25  27
ATOM     27  S   UNL     1      -6.599  -1.635   1.436  0.00  0.00    +0.076 S 
ATOM     28  O   UNL     1      -6.777  -0.237   1.622  0.00  0.00    -0.150 OA
ATOM     29  O   UNL     1      -7.691  -2.524   1.248  0.00  0.00    -0.150 OA
BRANCH  27  30
ATOM     30  C   UNL     1      -5.709  -2.220   2.841  0.00  0.00    +0.150 A 
ATOM     31  C   UNL     1      -5.386  -1.351   3.865  0.00  0.00    +0.032 A 
ATOM     32  C   UNL     1      -4.688  -1.809   4.967  0.00  0.00    +0.002 A 
ATOM     33  C   UNL     1      -4.312  -3.138   5.047  0.00  0.00    +0.004 A 
ATOM     34  C   UNL     1      -4.633  -4.010   4.025  0.00  0.00    +0.047 A 
ATOM     35  C   UNL     1      -5.338  -3.554   2.921  0.00  0.00    +0.143 A 
BRANCH  35  36
ATOM     36  O   UNL     1      -5.661  -4.412   1.917  0.00  0.00    -0.505 OA
ATOM     37  H   UNL     1      -4.984  -4.486   1.231  0.00  0.00    +0.292 HD
ENDBRANCH  35  36
ENDBRANCH  27  30
ENDBRANCH  25  27
ENDBRANCH   4  25
TORSDOF 8
