REMARK  Name = ZINC39724346
REMARK  9 active torsions:
REMARK  status: ('A' for Active; 'I' for Inactive)
REMARK    1  A    between atoms: C_1  and  O_2
REMARK    2  A    between atoms: O_2  and  C_3
REMARK    3  A    between atoms: C_3  and  C_4
REMARK    4  A    between atoms: C_4  and  C_5
REMARK    5  A    between atoms: C_5  and  N_6
REMARK    6  A    between atoms: C_11  and  S_22
REMARK    7  A    between atoms: S_22  and  C_23
REMARK    8  A    between atoms: C_23  and  C_24
REMARK    9  A    between atoms: C_32  and  C_36
REMARK                            x       y       z     vdW  Elec       q    Type
REMARK                         _______ _______ _______ _____ _____    ______ ____
ROOT
ATOM      1  N   UNL     1       1.272  -4.165  -2.169  0.00  0.00    -0.259 N 
ATOM      2  C   UNL     1       2.356  -4.875  -1.493  0.00  0.00    +0.311 C 
ATOM      3  N   UNL     1       2.898  -4.127  -0.364  0.00  0.00    -0.146 NA
ATOM      4  N   UNL     1       2.875  -4.790   0.677  0.00  0.00    -0.155 NA
ATOM      5  C   UNL     1       2.284  -6.118   0.463  0.00  0.00    +0.277 C 
ATOM      6  N   UNL     1       1.801  -6.126  -0.930  0.00  0.00    -0.259 N 
ATOM      7  C   UNL     1       0.967  -6.957  -1.642  0.00  0.00    +0.047 A 
ATOM      8  C   UNL     1       0.893  -8.324  -1.477  0.00  0.00    +0.024 A 
ATOM      9  C   UNL     1       0.028  -9.061  -2.265  0.00  0.00    +0.002 A 
ATOM     10  C   UNL     1      -0.762  -8.436  -3.217  0.00  0.00    +0.001 A 
ATOM     11  C   UNL     1      -0.705  -7.069  -3.391  0.00  0.00    +0.015 A 
ATOM     12  C   UNL     1       0.154  -6.311  -2.602  0.00  0.00    +0.058 A 
ATOM     13  C   UNL     1       0.232  -4.843  -2.704  0.00  0.00    +0.251 C 
ATOM     14  O   UNL     1      -0.648  -4.234  -3.281  0.00  0.00    -0.270 OA
ENDROOT
BRANCH   1  15
ATOM     15  C   UNL     1       1.309  -2.703  -2.261  0.00  0.00    +0.114 C 
BRANCH  15  16
ATOM     16  C   UNL     1       0.613  -2.097  -1.041  0.00  0.00    +0.047 C 
BRANCH  16  17
ATOM     17  C   UNL     1       0.652  -0.570  -1.138  0.00  0.00    +0.161 C 
BRANCH  17  19
ATOM     18  C   UNL     1      -0.017   1.425   0.010  0.00  0.00    +0.193 C 
ATOM     19  O   UNL     1       0.002  -0.004   0.002  0.00  0.00    -0.383 OA
ENDBRANCH  17  19
ENDBRANCH  16  17
ENDBRANCH  15  16
ENDBRANCH   1  15
BRANCH   5  20
ATOM     20  S   UNL     1       0.911  -6.386   1.617  0.00  0.00    -0.106 S 
BRANCH  20  21
ATOM     21  C   UNL     1      -0.238  -5.030   1.255  0.00  0.00    +0.147 C 
BRANCH  21  22
ATOM     22  C   UNL     1      -1.440  -5.136   2.158  0.00  0.00    +0.120 A 
ATOM     23  N   UNL     1      -2.424  -4.207   2.033  0.00  0.00    -0.310 N 
ATOM     24  H   UNL     1      -2.336  -3.501   1.375  0.00  0.00    +0.170 HD
ATOM     25  C   UNL     1      -3.524  -4.258   2.820  0.00  0.00    +0.259 A 
ATOM     26  O   UNL     1      -4.412  -3.433   2.719  0.00  0.00    -0.267 OA
ATOM     27  C   UNL     1      -3.604  -5.353   3.803  0.00  0.00    +0.065 A 
ATOM     28  C   UNL     1      -4.696  -5.493   4.658  0.00  0.00    +0.016 A 
ATOM     29  C   UNL     1      -4.730  -6.523   5.554  0.00  0.00    +0.016 A 
ATOM     30  C   UNL     1      -3.676  -7.443   5.623  0.00  0.00    +0.065 A 
ATOM     31  C   UNL     1      -2.578  -7.321   4.779  0.00  0.00    +0.043 A 
ATOM     32  C   UNL     1      -2.533  -6.271   3.858  0.00  0.00    +0.079 A 
ATOM     33  N   UNL     1      -1.486  -6.114   3.011  0.00  0.00    -0.233 NA
BRANCH  30  34
ATOM     34  C   UNL     1      -3.731  -8.551   6.599  0.00  0.00    +0.387 C 
ATOM     35  O   UNL     1      -4.695  -8.662   7.344  0.00  0.00    -0.241 OA
ATOM     36  O   UNL     1      -2.814  -9.357   6.663  0.00  0.00    -0.241 OA
ENDBRANCH  30  34
ENDBRANCH  21  22
ENDBRANCH  20  21
ENDBRANCH   5  20
TORSDOF 8
