REMARK  Name = ZINC16890014
REMARK  14 active torsions:
REMARK  status: ('A' for Active; 'I' for Inactive)
REMARK    1  A    between atoms: C_1  and  C_2
REMARK    2  A    between atoms: C_4  and  O_39
REMARK    3  A    between atoms: C_14  and  C_15
REMARK    4  A    between atoms: C_14  and  O_28
REMARK    5  A    between atoms: C_15  and  C_17
REMARK    6  A    between atoms: C_17  and  O_18
REMARK    7  A    between atoms: O_18  and  C_19
REMARK    8  A    between atoms: C_19  and  C_21
REMARK    9  A    between atoms: C_21  and  C_22
REMARK   10  A    between atoms: C_22  and  C_23
REMARK   11  A    between atoms: C_22  and  C_24
REMARK   12  A    between atoms: C_22  and  C_25
REMARK   13  A    between atoms: C_25  and  C_26
REMARK   14  A    between atoms: C_37  and  C_38
REMARK                            x       y       z     vdW  Elec       q    Type
REMARK                         _______ _______ _______ _____ _____    ______ ____
ROOT
ATOM      1  C   UNL     1       2.870   7.947  -0.402  0.00  0.00    +0.015 C 
ATOM      2  C   UNL     1       4.270   7.383  -0.657  0.00  0.00    +0.009 C 
ATOM      3  C   UNL     1       4.490   7.257  -2.148  0.00  0.00    +0.041 C 
ATOM      4  C   UNL     1       4.240   8.636  -2.780  0.00  0.00    +0.120 C 
ATOM      5  C   UNL     1       5.138   9.707  -2.169  0.00  0.00    +0.035 C 
ATOM      6  C   UNL     1       5.009   9.752  -0.638  0.00  0.00    -0.000 C 
ATOM      7  C   UNL     1       5.341   8.367  -0.113  0.00  0.00    +0.002 C 
ATOM      8  C   UNL     1       5.198   8.175   1.401  0.00  0.00    +0.008 C 
ATOM      9  C   UNL     1       5.033   6.637   1.543  0.00  0.00    +0.043 C 
ATOM     10  C   UNL     1       4.485   6.130   0.186  0.00  0.00    +0.133 C 
ATOM     11  C   UNL     1       5.997  10.773  -0.070  0.00  0.00    +0.008 C 
ATOM     12  C   UNL     1       5.634  12.175  -0.571  0.00  0.00    +0.032 C 
ATOM     13  C   UNL     1       5.589  12.137  -2.087  0.00  0.00    -0.056 C 
ATOM     14  C   UNL     1       6.280  13.038  -2.772  0.00  0.00    +0.051 C 
ATOM     15  C   UNL     1       6.279  13.020  -4.243  0.00  0.00    +0.179 C 
ATOM     16  O   UNL     1       6.880  13.868  -4.876  0.00  0.00    -0.288 OA
ATOM     17  C   UNL     1       5.534  11.953  -4.933  0.00  0.00    +0.047 C 
ATOM     18  C   UNL     1       4.846  11.069  -4.228  0.00  0.00    -0.012 C 
ATOM     19  C   UNL     1       4.756  11.075  -2.741  0.00  0.00    +0.013 C 
ATOM     20  C   UNL     1       3.295  11.327  -2.360  0.00  0.00    +0.020 C 
ENDROOT
BRANCH  10  21
ATOM     21  C   UNL     1       3.178   5.407   0.388  0.00  0.00    +0.202 C 
ATOM     22  O   UNL     1       2.492   5.657   1.349  0.00  0.00    -0.291 OA
BRANCH  21  23
ATOM     23  C   UNL     1       2.728   4.371  -0.610  0.00  0.00    +0.309 C 
BRANCH  23  24
ATOM     24  O   UNL     1       1.449   3.823  -0.195  0.00  0.00    -0.457 OA
BRANCH  24  25
ATOM     25  C   UNL     1       0.906   2.880  -0.982  0.00  0.00    +0.308 C 
ATOM     26  O   UNL     1       1.480   2.525  -1.984  0.00  0.00    -0.251 OA
BRANCH  25  27
ATOM     27  C   UNL     1      -0.420   2.265  -0.615  0.00  0.00    +0.127 C 
BRANCH  27  28
ATOM     28  C   UNL     1      -0.810   1.228  -1.670  0.00  0.00    -0.015 C 
ATOM     29  C   UNL     1      -0.923   1.907  -3.036  0.00  0.00    +0.012 C 
ATOM     30  C   UNL     1       0.260   0.135  -1.731  0.00  0.00    +0.012 C 
BRANCH  28  31
ATOM     31  C   UNL     1      -2.156   0.603  -1.297  0.00  0.00    +0.132 C 
BRANCH  31  32
ATOM     32  C   UNL     1      -2.540  -0.419  -2.336  0.00  0.00    +0.357 C 
ATOM     33  O   UNL     1      -1.812  -0.626  -3.278  0.00  0.00    -0.246 OA
ATOM     34  O   UNL     1      -3.692  -1.098  -2.216  0.00  0.00    -0.246 OA
ENDBRANCH  31  32
ENDBRANCH  28  31
ENDBRANCH  27  28
ENDBRANCH  25  27
ENDBRANCH  24  25
ENDBRANCH  23  24
ENDBRANCH  21  23
ENDBRANCH  10  21
BRANCH  10  35
ATOM     35  O   UNL     1       5.436   5.267  -0.441  0.00  0.00    -0.380 OA
ATOM     36  H   UNL     1       5.628   4.463   0.061  0.00  0.00    +0.211 HD
ENDBRANCH  10  35
BRANCH   4  37
ATOM     37  O   UNL     1       4.494   8.559  -4.184  0.00  0.00    -0.391 OA
ATOM     38  H   UNL     1       3.959   7.898  -4.644  0.00  0.00    +0.210 HD
ENDBRANCH   4  37
TORSDOF 10
