REMARK  Name = ZINC41648612
REMARK  3 active torsions:
REMARK  status: ('A' for Active; 'I' for Inactive)
REMARK    1  A    between atoms: C_1  and  C_2
REMARK    2  A    between atoms: C_11  and  C_12
REMARK    3  A    between atoms: N_21  and  C_24
REMARK                            x       y       z     vdW  Elec       q    Type
REMARK                         _______ _______ _______ _____ _____    ______ ____
ROOT
ATOM      1  C   UNL     1      -0.082   1.509   0.016  0.00  0.00    +0.045 C 
ATOM      2  C   UNL     1      -0.072   0.002   0.006  0.00  0.00    -0.033 A 
ATOM      3  C   UNL     1      -0.095  -0.674  -1.180  0.00  0.00    +0.050 A 
ATOM      4  C   UNL     1      -0.084  -2.068  -1.196  0.00  0.00    +0.131 A 
ATOM      5  C   UNL     1      -0.050  -2.782  -0.010  0.00  0.00    +0.051 A 
ATOM      6  C   UNL     1      -0.029  -2.108   1.206  0.00  0.00    +0.148 A 
ATOM      7  C   UNL     1      -0.034  -0.705   1.208  0.00  0.00    +0.071 A 
ATOM      8  C   UNL     1       0.001  -0.290   2.622  0.00  0.00    +0.232 C 
ATOM      9  O   UNL     1       0.004   0.844   3.067  0.00  0.00    -0.283 OA
ATOM     10  C   UNL     1       0.030  -1.554   3.376  0.00  0.00    +0.176 C 
ATOM     11  C   UNL     1       0.068  -1.681   4.725  0.00  0.00    +0.058 C 
ATOM     12  O   UNL     1       0.002  -2.566   2.477  0.00  0.00    -0.451 OA
ATOM     13  C   UNL     1      -0.030  -4.289  -0.015  0.00  0.00    +0.130 C 
ATOM     14  N   UNL     1      -0.466  -4.784  -1.328  0.00  0.00    -0.263 NA
ATOM     15  C   UNL     1       0.267  -4.090  -2.400  0.00  0.00    +0.319 C 
ATOM     16  O   UNL     1      -0.111  -2.712  -2.393  0.00  0.00    -0.476 OA
ENDROOT
BRANCH  11  17
ATOM     17  C   UNL     1      -0.019  -3.013   5.340  0.00  0.00    -0.021 A 
ATOM     18  C   UNL     1      -0.116  -3.141   6.731  0.00  0.00    +0.009 A 
ATOM     19  C   UNL     1      -0.197  -4.394   7.300  0.00  0.00    +0.016 A 
ATOM     20  C   UNL     1      -0.182  -5.524   6.500  0.00  0.00    +0.018 A 
ATOM     21  C   UNL     1      -0.086  -5.406   5.123  0.00  0.00    +0.016 A 
ATOM     22  C   UNL     1      -0.011  -4.160   4.538  0.00  0.00    +0.009 A 
ATOM     23 BR   UNL     1      -0.292  -7.238   7.291  0.00  0.00    -0.050 Br
ENDBRANCH  11  17
BRANCH  14  24
ATOM     24  C   UNL     1      -0.291  -6.239  -1.427  0.00  0.00    +0.060 C 
ATOM     25  C   UNL     1       1.210  -6.592  -1.433  0.00  0.00    +0.019 C 
ATOM     26  C   UNL     1       1.317  -7.779  -2.423  0.00  0.00    +0.002 C 
ATOM     27  C   UNL     1       0.302  -7.395  -3.528  0.00  0.00    +0.002 C 
ATOM     28  C   UNL     1      -0.869  -6.750  -2.759  0.00  0.00    +0.019 C 
ENDBRANCH  14  24
TORSDOF 2
