REMARK  Name = ZINC11866926
REMARK  7 active torsions:
REMARK  status: ('A' for Active; 'I' for Inactive)
REMARK    1  A    between atoms: C_1  and  C_2
REMARK    2  A    between atoms: C_3  and  C_31
REMARK    3  A    between atoms: C_11  and  O_13
REMARK    4  A    between atoms: O_13  and  C_14
REMARK    5  A    between atoms: C_14  and  C_16
REMARK    6  A    between atoms: C_14  and  C_17
REMARK    7  A    between atoms: C_22  and  O_30
REMARK                            x       y       z     vdW  Elec       q    Type
REMARK                         _______ _______ _______ _____ _____    ______ ____
ROOT
ATOM      1  C   UNL     1      -2.388   1.246  -0.103  0.00  0.00    +0.256 C 
ATOM      2  C   UNL     1      -2.792   1.183   1.372  0.00  0.00    +0.062 C 
ENDROOT
BRANCH   1   3
ATOM      3  C   UNL     1      -3.446   1.984  -0.882  0.00  0.00    +0.256 C 
ATOM      4  O   UNL     1      -3.193   3.062  -1.378  0.00  0.00    -0.272 OA
ATOM      5  N   UNL     1      -4.673   1.447  -1.028  0.00  0.00    -0.298 N 
ATOM      6  C   UNL     1      -5.678   2.094  -1.884  0.00  0.00    +0.110 C 
ATOM      7  C   UNL     1      -6.193   1.069  -2.898  0.00  0.00    +0.054 C 
ATOM      8  C   UNL     1      -6.706  -0.168  -2.156  0.00  0.00    +0.072 C 
ATOM      9  C   UNL     1      -7.248  -1.176  -3.172  0.00  0.00    +0.035 C 
ATOM     10  C   UNL     1      -7.758  -2.418  -2.439  0.00  0.00    +0.003 C 
ATOM     11  C   UNL     1      -6.607  -3.054  -1.656  0.00  0.00    +0.001 C 
ATOM     12  C   UNL     1      -6.068  -2.049  -0.637  0.00  0.00    +0.008 C 
ATOM     13  C   UNL     1      -5.559  -0.803  -1.367  0.00  0.00    +0.038 C 
ATOM     14  C   UNL     1      -5.032   0.199  -0.341  0.00  0.00    +0.114 C 
BRANCH   8  15
ATOM     15  O   UNL     1      -7.751   0.214  -1.259  0.00  0.00    -0.388 OA
ATOM     16  H   UNL     1      -8.512   0.622  -1.693  0.00  0.00    +0.210 HD
ENDBRANCH   8  15
ENDBRANCH   1   3
BRANCH   1  17
ATOM     17  O   UNL     1      -1.141   1.932  -0.226  0.00  0.00    -0.480 OA
BRANCH  17  28
ATOM     18  C   UNL     1       3.421  -2.697  -0.004  0.00  0.00    +0.045 C 
ATOM     19  C   UNL     1       3.479  -1.211  -0.248  0.00  0.00    -0.030 A 
ATOM     20  C   UNL     1       4.664  -0.588  -0.482  0.00  0.00    +0.037 A 
ATOM     21  C   UNL     1       4.692   0.803  -0.708  0.00  0.00    +0.340 A 
ATOM     22  O   UNL     1       5.760   1.349  -0.917  0.00  0.00    -0.245 OA
ATOM     23  O   UNL     1       3.571   1.542  -0.698  0.00  0.00    -0.422 OA
ATOM     24  C   UNL     1       2.362   0.985  -0.470  0.00  0.00    +0.143 A 
ATOM     25  C   UNL     1       2.261  -0.399  -0.238  0.00  0.00    +0.021 A 
ATOM     26  C   UNL     1       1.010  -0.980  -0.002  0.00  0.00    +0.015 A 
ATOM     27  C   UNL     1      -0.110  -0.200   0.002  0.00  0.00    +0.046 A 
ATOM     28  C   UNL     1      -0.017   1.171  -0.227  0.00  0.00    +0.125 A 
ATOM     29  C   UNL     1       1.214   1.763  -0.463  0.00  0.00    +0.092 A 
ATOM     30  C   UNL     1       5.944  -1.383  -0.502  0.00  0.00    +0.051 C 
ENDBRANCH  17  28
ENDBRANCH   1  17
TORSDOF 4
