REMARK  Name = ZINC02408589
REMARK  9 active torsions:
REMARK  status: ('A' for Active; 'I' for Inactive)
REMARK    1  A    between atoms: C_1  and  C_2
REMARK    2  A    between atoms: C_2  and  C_3
REMARK    3  A    between atoms: C_2  and  C_4
REMARK    4  A    between atoms: C_7  and  C_10
REMARK    5  A    between atoms: C_24  and  S_37
REMARK    6  A    between atoms: C_27  and  C_29
REMARK    7  A    between atoms: C_32  and  O_35
REMARK    8  A    between atoms: O_35  and  C_36
REMARK    9  A    between atoms: S_37  and  C_38
REMARK                            x       y       z     vdW  Elec       q    Type
REMARK                         _______ _______ _______ _____ _____    ______ ____
ROOT
ATOM      1  C   UNL     1      -5.358  -2.059   0.002  0.00  0.00    +0.234 C 
ATOM      2  C   UNL     1      -5.392  -3.464   0.530  0.00  0.00    +0.025 C 
ATOM      3  C   UNL     1      -5.263  -4.515  -0.306  0.00  0.00    +0.058 C 
ATOM      4  C   UNL     1      -5.101  -4.223  -1.753  0.00  0.00    +0.040 A 
ATOM      5  C   UNL     1      -4.642  -5.187  -2.640  0.00  0.00    +0.013 A 
ATOM      6  C   UNL     1      -4.504  -4.872  -3.978  0.00  0.00    +0.001 A 
ATOM      7  C   UNL     1      -4.820  -3.603  -4.432  0.00  0.00    +0.004 A 
ATOM      8  C   UNL     1      -5.279  -2.638  -3.554  0.00  0.00    +0.046 A 
ATOM      9  C   UNL     1      -5.423  -2.940  -2.211  0.00  0.00    +0.131 A 
ATOM     10  O   UNL     1      -5.875  -2.018  -1.330  0.00  0.00    -0.479 OA
ATOM     11  N   UNL     1      -5.283  -5.790   0.152  0.00  0.00    -0.326 N 
ATOM     12  C   UNL     1      -5.434  -6.123   1.417  0.00  0.00    +0.216 C 
ATOM     13  N   UNL     1      -5.478  -7.322   2.026  0.00  0.00    -0.192 NA
ATOM     14  C   UNL     1      -5.648  -7.169   3.324  0.00  0.00    +0.174 C 
ATOM     15  N   UNL     1      -5.722  -5.831   3.612  0.00  0.00    -0.239 N 
ATOM     16  N   UNL     1      -5.584  -5.160   2.395  0.00  0.00    -0.209 N 
ATOM     17  C   UNL     1      -5.570  -3.744   2.005  0.00  0.00    +0.159 C 
ATOM     18  H   UNL     1      -5.180  -6.506  -0.495  0.00  0.00    +0.169 HD
ATOM     19  H   UNL     1      -5.846  -5.430   4.486  0.00  0.00    +0.172 HD
ENDROOT
BRANCH   1  23
ATOM     20  C   UNL     1      -1.327  -0.646  -0.005  0.00  0.00    -0.045 A 
ATOM     21  C   UNL     1      -1.729  -1.594  -0.928  0.00  0.00    +0.004 A 
ATOM     22  C   UNL     1      -3.034  -2.051  -0.926  0.00  0.00    +0.008 A 
ATOM     23  C   UNL     1      -3.936  -1.561  -0.000  0.00  0.00    -0.003 A 
ATOM     24  C   UNL     1      -3.534  -0.615   0.923  0.00  0.00    +0.008 A 
ATOM     25  C   UNL     1      -2.228  -0.161   0.924  0.00  0.00    +0.004 A 
BRANCH  20  27
ATOM     26  C   UNL     1       1.048  -1.323   0.222  0.00  0.00    +0.012 C 
ATOM     27  C   UNL     1       0.095  -0.148  -0.008  0.00  0.00    +0.013 C 
ATOM     28  C   UNL     1       0.405   0.503  -1.357  0.00  0.00    +0.012 C 
ENDBRANCH  20  27
ENDBRANCH   1  23
BRANCH  17  29
ATOM     29  C   UNL     1      -4.452  -3.062   2.752  0.00  0.00    -0.021 A 
ATOM     30  C   UNL     1      -3.168  -3.569   2.685  0.00  0.00    +0.009 A 
ATOM     31  C   UNL     1      -2.142  -2.946   3.368  0.00  0.00    +0.046 A 
ATOM     32  C   UNL     1      -2.401  -1.811   4.122  0.00  0.00    +0.120 A 
ATOM     33  C   UNL     1      -3.690  -1.304   4.187  0.00  0.00    +0.046 A 
ATOM     34  C   UNL     1      -4.712  -1.927   3.498  0.00  0.00    +0.009 A 
BRANCH  32  35
ATOM     35  O   UNL     1      -1.393  -1.196   4.796  0.00  0.00    -0.495 OA
ATOM     36  C   UNL     1      -1.733  -0.032   5.551  0.00  0.00    +0.277 C 
ENDBRANCH  32  35
ENDBRANCH  17  29
BRANCH  14  37
ATOM     37  S   UNL     1      -5.762  -8.475   4.501  0.00  0.00    -0.092 S 
ATOM     38  C   UNL     1      -5.592  -9.981   3.503  0.00  0.00    +0.093 C 
ENDBRANCH  14  37
TORSDOF 5
