REMARK  Name = ZINC03838868
REMARK  8 active torsions:
REMARK  status: ('A' for Active; 'I' for Inactive)
REMARK    1  A    between atoms: C_1  and  C_2
REMARK    2  A    between atoms: C_2  and  C_4
REMARK    3  A    between atoms: C_2  and  N_7
REMARK    4  A    between atoms: C_8  and  C_10
REMARK    5  A    between atoms: C_12  and  O_21
REMARK    6  A    between atoms: C_14  and  O_20
REMARK    7  A    between atoms: C_16  and  O_19
REMARK    8  A    between atoms: O_21  and  C_22
REMARK                            x       y       z     vdW  Elec       q    Type
REMARK                         _______ _______ _______ _____ _____    ______ ____
ROOT
ATOM      1  C   UNL     1       5.000   2.951  -2.126  0.00  0.00    +0.016 C 
ATOM      2  C   UNL     1       3.806   3.010  -1.577  0.00  0.00    +0.028 C 
ATOM      3  C   UNL     1       3.539   2.727  -0.127  0.00  0.00    +0.228 C 
ATOM      4  C   UNL     1       4.719   1.970   0.485  0.00  0.00    +0.188 C 
ATOM      5  C   UNL     1       6.012   2.714   0.131  0.00  0.00    +0.151 C 
ATOM      6  C   UNL     1       6.247   2.584  -1.376  0.00  0.00    +0.074 C 
ENDROOT
BRANCH   1   8
ATOM      7  N   UNL     1       6.324   3.213  -4.161  0.00  0.00    -0.301 N 
ATOM      8  C   UNL     1       5.120   3.262  -3.559  0.00  0.00    +0.241 C 
ATOM      9  O   UNL     1       4.131   3.564  -4.200  0.00  0.00    -0.271 OA
ATOM     10  H   UNL     1       7.113   2.973  -3.649  0.00  0.00    +0.150 HD
BRANCH   7  12
ATOM     11  C   UNL     1       6.146   2.268  -6.409  0.00  0.00    +0.038 C 
ATOM     12  C   UNL     1       6.444   3.523  -5.588  0.00  0.00    +0.156 C 
BRANCH  12  13
ATOM     13  C   UNL     1       7.843   3.997  -5.883  0.00  0.00    +0.231 C 
ATOM     14  O   UNL     1       8.661   4.069  -4.990  0.00  0.00    -0.274 OA
ATOM     15  N   UNL     1       8.187   4.341  -7.140  0.00  0.00    -0.328 N 
ATOM     16  H   UNL     1       7.533   4.284  -7.855  0.00  0.00    +0.145 HD
ATOM     17  H   UNL     1       9.088   4.646  -7.331  0.00  0.00    +0.145 HD
ENDBRANCH  12  13
ENDBRANCH   7  12
ENDBRANCH   1   8
BRANCH   5  18
ATOM     18  O   UNL     1       5.885   4.094   0.480  0.00  0.00    -0.389 OA
ATOM     19  H   UNL     1       6.663   4.627   0.267  0.00  0.00    +0.210 HD
ENDBRANCH   5  18
BRANCH   4  20
ATOM     20  O   UNL     1       4.572   1.918   1.905  0.00  0.00    -0.385 OA
ATOM     21  H   UNL     1       5.288   1.451   2.358  0.00  0.00    +0.210 HD
ENDBRANCH   4  20
BRANCH   3  22
ATOM     22  O   UNL     1       2.356   1.935  -0.009  0.00  0.00    -0.481 OA
BRANCH  22  23
ATOM     23  C   UNL     1       1.169   2.597  -0.001  0.00  0.00    +0.138 A 
ATOM     24  C   UNL     1       1.135   3.966  -0.220  0.00  0.00    +0.085 A 
ATOM     25  C   UNL     1      -0.074   4.637  -0.210  0.00  0.00    +0.127 A 
ATOM     26  C   UNL     1      -1.251   3.943   0.017  0.00  0.00    +0.039 A 
ATOM     27  C   UNL     1      -1.219   2.577   0.230  0.00  0.00    +0.022 A 
ATOM     28  C   UNL     1      -0.012   1.903   0.227  0.00  0.00    +0.060 A 
ATOM     29 BR   UNL     1       0.029   0.037   0.524  0.00  0.00    -0.047 Br
ATOM     30  F   UNL     1      -0.108   5.971  -0.423  0.00  0.00    -0.205 F 
ENDBRANCH  22  23
ENDBRANCH   3  22
TORSDOF 7
