REMARK  Name = ZINC02338388
REMARK  15 active torsions:
REMARK  status: ('A' for Active; 'I' for Inactive)
REMARK    1  A    between atoms: C_1  and  C_2
REMARK    2  A    between atoms: C_2  and  N_3
REMARK    3  A    between atoms: N_3  and  C_4
REMARK    4  A    between atoms: N_3  and  C_6
REMARK    5  A    between atoms: C_4  and  C_5
REMARK    6  A    between atoms: C_9  and  C_12
REMARK    7  A    between atoms: N_13  and  N_14
REMARK    8  A    between atoms: C_15  and  C_17
REMARK    9  A    between atoms: C_17  and  S_18
REMARK   10  A    between atoms: S_18  and  C_19
REMARK   11  A    between atoms: C_22  and  C_32
REMARK   12  A    between atoms: N_23  and  C_24
REMARK   13  A    between atoms: C_27  and  O_30
REMARK   14  A    between atoms: O_30  and  C_31
REMARK   15  A    between atoms: C_35  and  C_38
REMARK                            x       y       z     vdW  Elec       q    Type
REMARK                         _______ _______ _______ _____ _____    ______ ____
ROOT
ATOM      1  C   UNL     1      -0.016   1.310   0.009  0.00  0.00    +0.197 A 
ATOM      2  N   UNL     1       0.002  -0.004   0.002  0.00  0.00    -0.122 NA
ATOM      3  N   UNL     1       1.214  -0.430  -0.012  0.00  0.00    -0.128 NA
ATOM      4  C   UNL     1       2.047   0.585  -0.014  0.00  0.00    +0.169 A 
ATOM      5  N   UNL     1       1.285   1.733  -0.001  0.00  0.00    -0.270 N 
ENDROOT
BRANCH   4   6
ATOM      6  C   UNL     1       3.523   0.511  -0.028  0.00  0.00    +0.020 A 
ATOM      7  C   UNL     1       4.285   1.640   0.278  0.00  0.00    +0.012 A 
ATOM      8  C   UNL     1       5.662   1.563   0.267  0.00  0.00    +0.004 A 
ATOM      9  C   UNL     1       6.289   0.372  -0.056  0.00  0.00    -0.050 A 
ATOM     10  C   UNL     1       5.540  -0.750  -0.365  0.00  0.00    +0.004 A 
ATOM     11  C   UNL     1       4.162  -0.687  -0.353  0.00  0.00    +0.012 A 
ATOM     12  C   UNL     1       7.794   0.296  -0.070  0.00  0.00    +0.044 C 
ENDBRANCH   4   6
BRANCH   5  13
ATOM     13  C   UNL     1       1.747   3.058   0.001  0.00  0.00    +0.051 A 
ATOM     14  C   UNL     1       2.449   3.550  -1.090  0.00  0.00    +0.030 A 
ATOM     15  C   UNL     1       2.899   4.856  -1.090  0.00  0.00    +0.047 A 
ATOM     16  C   UNL     1       2.658   5.672   0.005  0.00  0.00    +0.120 A 
ATOM     17  C   UNL     1       1.961   5.179   1.099  0.00  0.00    +0.047 A 
ATOM     18  C   UNL     1       1.506   3.875   1.097  0.00  0.00    +0.030 A 
BRANCH  16  19
ATOM     19  O   UNL     1       3.106   6.956   0.007  0.00  0.00    -0.495 OA
ATOM     20  C   UNL     1       3.816   7.397  -1.151  0.00  0.00    +0.277 C 
ENDBRANCH  16  19
ENDBRANCH   5  13
BRANCH   1  21
ATOM     21  S   UNL     1      -1.448   2.337   0.022  0.00  0.00    -0.076 S 
BRANCH  21  22
ATOM     22  C   UNL     1      -2.742   1.070   0.022  0.00  0.00    +0.174 C 
BRANCH  22  24
ATOM     23  N   UNL     1      -5.214   0.984   0.035  0.00  0.00    -0.206 N 
ATOM     24  C   UNL     1      -4.094   1.734   0.033  0.00  0.00    +0.242 C 
ATOM     25  O   UNL     1      -4.176   2.945   0.039  0.00  0.00    -0.273 OA
ATOM     26  H   UNL     1      -5.149   0.016   0.029  0.00  0.00    +0.177 HD
BRANCH  23  28
ATOM     27  C   UNL     1      -7.549   0.878   0.046  0.00  0.00    +0.138 C 
ATOM     28  N   UNL     1      -6.471   1.601   0.044  0.00  0.00    -0.188 NA
BRANCH  27  32
ATOM     29  C   UNL     1     -11.360   2.748   0.077  0.00  0.00    +0.030 A 
ATOM     30  C   UNL     1     -11.269   1.361   0.069  0.00  0.00    +0.024 A 
ATOM     31  C   UNL     1     -10.034   0.750   0.059  0.00  0.00    +0.011 A 
ATOM     32  C   UNL     1      -8.872   1.527   0.057  0.00  0.00    -0.005 A 
ATOM     33  C   UNL     1      -8.968   2.922   0.070  0.00  0.00    +0.011 A 
ATOM     34  C   UNL     1     -10.206   3.525   0.075  0.00  0.00    +0.024 A 
BRANCH  29  35
ATOM     35  N   UNL     1     -12.612   3.363   0.087  0.00  0.00    -0.330 N 
BRANCH  35  37
ATOM     36  C   UNL     1     -12.753   5.341  -1.344  0.00  0.00    +0.024 C 
ATOM     37  C   UNL     1     -12.711   4.825   0.095  0.00  0.00    +0.102 C 
ENDBRANCH  35  37
BRANCH  35  38
ATOM     38  C   UNL     1     -13.829   2.547   0.089  0.00  0.00    +0.102 C 
ATOM     39  C   UNL     1     -14.245   2.255   1.532  0.00  0.00    +0.024 C 
ENDBRANCH  35  38
ENDBRANCH  29  35
ENDBRANCH  27  32
ENDBRANCH  23  28
ENDBRANCH  22  24
ENDBRANCH  21  22
ENDBRANCH   1  21
TORSDOF 11
