REMARK  Name = ZINC01084585
REMARK  5 active torsions:
REMARK  status: ('A' for Active; 'I' for Inactive)
REMARK    1  A    between atoms: C_1  and  C_2
REMARK    2  A    between atoms: C_7  and  O_34
REMARK    3  A    between atoms: C_8  and  C_14
REMARK    4  A    between atoms: C_16  and  C_28
REMARK    5  A    between atoms: N_19  and  C_22
REMARK                            x       y       z     vdW  Elec       q    Type
REMARK                         _______ _______ _______ _____ _____    ______ ____
ROOT
ATOM      1  C   UNL     1       1.373  -1.816   4.787  0.00  0.00    +0.004 C 
ATOM      2  C   UNL     1       1.224  -2.732   5.739  0.00  0.00    +0.036 C 
ATOM      3  C   UNL     1      -0.064  -3.380   6.210  0.00  0.00    +0.138 C 
ATOM      4  N   UNL     1       0.362  -4.308   7.273  0.00  0.00    -0.221 NA
ATOM      5  N   UNL     1       1.711  -4.224   7.416  0.00  0.00    -0.200 N 
ATOM      6  C   UNL     1       2.274  -3.349   6.570  0.00  0.00    +0.262 C 
ATOM      7  O   UNL     1       3.463  -3.102   6.502  0.00  0.00    -0.269 OA
ATOM      8  H   UNL     1       0.079  -5.253   7.063  0.00  0.00    +0.146 HD
ENDROOT
BRANCH   1  16
ATOM      9  C   UNL     1       0.147   3.444   1.891  0.00  0.00    +0.045 C 
ATOM     10  C   UNL     1       0.177   2.021   1.397  0.00  0.00    -0.029 A 
ATOM     11  C   UNL     1       0.210   1.764   0.059  0.00  0.00    +0.005 A 
ATOM     12  C   UNL     1       0.237   0.465  -0.438  0.00  0.00    +0.001 A 
ATOM     13  C   UNL     1       0.234  -0.612   0.395  0.00  0.00    +0.013 A 
ATOM     14  C   UNL     1       0.201  -0.410   1.791  0.00  0.00    +0.035 A 
ATOM     15  C   UNL     1       0.197  -1.497   2.668  0.00  0.00    +0.119 C 
ATOM     16  C   UNL     1       0.161  -1.184   4.152  0.00  0.00    +0.164 C 
ATOM     17  C   UNL     1       0.133   0.273   4.554  0.00  0.00    +0.231 C 
ATOM     18  O   UNL     1       0.105   0.578   5.732  0.00  0.00    -0.274 OA
ATOM     19  N   UNL     1       0.141   1.212   3.630  0.00  0.00    -0.284 N 
ATOM     20  C   UNL     1       0.178   0.957   2.316  0.00  0.00    +0.047 A 
ATOM     21  H   UNL     1       0.122   2.139   3.917  0.00  0.00    +0.155 HD
BRANCH  15  22
ATOM     22  O   UNL     1       0.223  -2.757   2.220  0.00  0.00    -0.509 OA
ATOM     23  H   UNL     1       0.244  -2.831   1.256  0.00  0.00    +0.292 HD
ENDBRANCH  15  22
ENDBRANCH   1  16
BRANCH   5  24
ATOM     24  C   UNL     1       2.438  -4.977   8.344  0.00  0.00    +0.053 A 
ATOM     25  C   UNL     1       2.000  -5.070   9.659  0.00  0.00    +0.025 A 
ATOM     26  C   UNL     1       2.720  -5.814  10.573  0.00  0.00    +0.002 A 
ATOM     27  C   UNL     1       3.875  -6.466  10.181  0.00  0.00    +0.000 A 
ATOM     28  C   UNL     1       4.313  -6.375   8.872  0.00  0.00    +0.002 A 
ATOM     29  C   UNL     1       3.594  -5.638   7.951  0.00  0.00    +0.025 A 
ENDBRANCH   5  24
BRANCH   3  30
ATOM     30  C   UNL     1      -0.717  -4.134   5.080  0.00  0.00    -0.024 A 
ATOM     31  C   UNL     1      -0.171  -5.324   4.636  0.00  0.00    +0.005 A 
ATOM     32  C   UNL     1      -0.771  -6.015   3.600  0.00  0.00    +0.000 A 
ATOM     33  C   UNL     1      -1.917  -5.517   3.009  0.00  0.00    +0.000 A 
ATOM     34  C   UNL     1      -2.463  -4.328   3.454  0.00  0.00    +0.000 A 
ATOM     35  C   UNL     1      -1.866  -3.639   4.493  0.00  0.00    +0.005 A 
ENDBRANCH   3  30
TORSDOF 4
