REMARK  Name = ZINC20355191
REMARK  11 active torsions:
REMARK  status: ('A' for Active; 'I' for Inactive)
REMARK    1  A    between atoms: C_1  and  C_2
REMARK    2  A    between atoms: C_6  and  C_8
REMARK    3  A    between atoms: C_8  and  N_9
REMARK    4  A    between atoms: C_18  and  C_19
REMARK    5  A    between atoms: C_22  and  C_25
REMARK    6  A    between atoms: N_27  and  C_28
REMARK    7  A    between atoms: C_28  and  C_29
REMARK    8  A    between atoms: C_29  and  C_30
REMARK    9  A    between atoms: C_30  and  N_31
REMARK   10  A    between atoms: N_31  and  C_32
REMARK   11  A    between atoms: N_31  and  C_33
REMARK                            x       y       z     vdW  Elec       q    Type
REMARK                         _______ _______ _______ _____ _____    ______ ____
ROOT
ATOM      1  C   UNL     1      -5.830   7.740  -4.280  0.00  0.00    -0.021 A 
ATOM      2  C   UNL     1      -5.128   8.569  -3.397  0.00  0.00    +0.009 A 
ATOM      3  C   UNL     1      -4.525   8.036  -2.294  0.00  0.00    +0.013 A 
ATOM      4  C   UNL     1      -4.608   6.662  -2.047  0.00  0.00    +0.037 A 
ATOM      5  C   UNL     1      -5.304   5.833  -2.931  0.00  0.00    +0.013 A 
ATOM      6  C   UNL     1      -5.912   6.365  -4.032  0.00  0.00    +0.009 A 
ENDROOT
BRANCH   1  16
ATOM      7  N   UNL     1      -6.107   5.503  -7.736  0.00  0.00    -0.257 N 
ATOM      8  C   UNL     1      -7.270   5.785  -8.463  0.00  0.00    +0.079 A 
ATOM      9  C   UNL     1      -7.880   4.789  -9.210  0.00  0.00    +0.027 A 
ATOM     10  C   UNL     1      -9.030   5.069  -9.924  0.00  0.00    +0.002 A 
ATOM     11  C   UNL     1      -9.574   6.340  -9.897  0.00  0.00    +0.004 A 
ATOM     12  C   UNL     1      -8.972   7.339  -9.155  0.00  0.00    +0.048 A 
ATOM     13  C   UNL     1      -7.819   7.066  -8.437  0.00  0.00    +0.150 A 
ATOM     14  O   UNL     1      -7.221   8.048  -7.705  0.00  0.00    -0.449 OA
ATOM     15  C   UNL     1      -6.482   7.630  -6.634  0.00  0.00    +0.191 C 
ATOM     16  C   UNL     1      -6.480   8.314  -5.468  0.00  0.00    +0.059 C 
ATOM     17  C   UNL     1      -5.679   6.399  -6.810  0.00  0.00    +0.287 C 
ATOM     18  O   UNL     1      -4.679   6.197  -6.147  0.00  0.00    -0.266 OA
BRANCH   7  19
ATOM     19  C   UNL     1      -5.360   4.265  -7.974  0.00  0.00    +0.149 C 
BRANCH  19  25
ATOM     20  C   UNL     1      -4.046   4.277 -12.803  0.00  0.00    +0.044 C 
ATOM     21  C   UNL     1      -3.697   4.506 -11.355  0.00  0.00    -0.050 A 
ATOM     22  C   UNL     1      -2.429   4.933 -11.009  0.00  0.00    +0.003 A 
ATOM     23  C   UNL     1      -2.109   5.143  -9.681  0.00  0.00    +0.001 A 
ATOM     24  C   UNL     1      -3.058   4.927  -8.699  0.00  0.00    +0.005 A 
ATOM     25  C   UNL     1      -4.326   4.501  -9.045  0.00  0.00    -0.029 A 
ATOM     26  C   UNL     1      -4.644   4.286 -10.373  0.00  0.00    +0.008 A 
ENDBRANCH  19  25
ENDBRANCH   7  19
ENDBRANCH   1  16
BRANCH   4  27
ATOM     27  C   UNL     1      -3.955   6.086  -0.854  0.00  0.00    +0.244 C 
ATOM     28  O   UNL     1      -3.345   6.806  -0.088  0.00  0.00    -0.270 OA
ATOM     29  N   UNL     1      -4.034   4.762  -0.616  0.00  0.00    -0.311 N 
ATOM     30  H   UNL     1      -4.586   4.111  -1.309  0.00  0.00    +0.149 HD
BRANCH  29  31
ATOM     31  C   UNL     1      -3.386   4.191   0.568  0.00  0.00    +0.102 C 
BRANCH  31  32
ATOM     32  C   UNL     1      -3.628   2.680   0.602  0.00  0.00    +0.000 C 
BRANCH  32  33
ATOM     33  C   UNL     1      -2.951   2.084   1.837  0.00  0.00    -0.077 C 
BRANCH  33  34
ATOM     34  N   UNL     1      -3.183   0.633   1.870  0.00  0.00    +0.380 N 
ATOM     35  C   UNL     1      -2.510  -0.033   0.747  0.00  0.00    -0.096 C 
ATOM     36  H   UNL     1      -4.264   0.462   1.766  0.00  0.00    -0.082 HD
BRANCH  34  37
ATOM     37  C   UNL     1      -2.756   0.061   3.154  0.00  0.00    -0.069 C 
ATOM     38  C   UNL     1      -1.241   0.214   3.302  0.00  0.00    -0.015 C 
ATOM     39  C   UNL     1      -0.796  -0.382   4.639  0.00  0.00    -0.002 C 
ATOM     40  C   UNL     1      -1.166  -1.866   4.684  0.00  0.00    -0.000 C 
ATOM     41  C   UNL     1      -2.681  -2.019   4.536  0.00  0.00    -0.002 C 
ATOM     42  C   UNL     1      -3.126  -1.423   3.199  0.00  0.00    -0.015 C 
ENDBRANCH  34  37
ENDBRANCH  33  34
ENDBRANCH  32  33
ENDBRANCH  31  32
ENDBRANCH  29  31
ENDBRANCH   4  27
TORSDOF 9
