REMARK  Name = ZINC24890746
REMARK  8 active torsions:
REMARK  status: ('A' for Active; 'I' for Inactive)
REMARK    1  A    between atoms: C_1  and  C_2
REMARK    2  A    between atoms: C_5  and  C_33
REMARK    3  A    between atoms: C_6  and  N_8
REMARK    4  A    between atoms: C_17  and  S_18
REMARK    5  A    between atoms: S_18  and  C_19
REMARK    6  A    between atoms: C_19  and  C_20
REMARK    7  A    between atoms: C_20  and  C_21
REMARK    8  A    between atoms: C_28  and  C_32
REMARK                            x       y       z     vdW  Elec       q    Type
REMARK                         _______ _______ _______ _____ _____    ______ ____
ROOT
ATOM      1  N   UNL     1      -1.201  -0.723   0.010  0.00  0.00    -0.255 N 
ATOM      2  C   UNL     1      -1.756  -1.067   1.187  0.00  0.00    +0.268 A 
ATOM      3  O   UNL     1      -1.220  -0.759   2.237  0.00  0.00    -0.267 OA
ATOM      4  C   UNL     1      -2.985  -1.800   1.188  0.00  0.00    +0.076 A 
ATOM      5  C   UNL     1      -3.757  -2.275   2.338  0.00  0.00    -0.023 A 
ATOM      6  C   UNL     1      -4.894  -2.949   2.075  0.00  0.00    -0.004 A 
ATOM      7  S   UNL     1      -5.005  -2.993   0.306  0.00  0.00    -0.073 S 
ATOM      8  C   UNL     1      -3.518  -2.103  -0.076  0.00  0.00    +0.117 A 
ATOM      9  N   UNL     1      -2.920  -1.734  -1.203  0.00  0.00    -0.216 NA
ATOM     10  C   UNL     1      -1.791  -1.055  -1.177  0.00  0.00    +0.177 A 
ATOM     11  C   UNL     1      -5.854  -3.534   3.067  0.00  0.00    +0.046 C 
ATOM     12  C   UNL     1      -5.163  -3.582   4.437  0.00  0.00    -0.009 C 
ATOM     13  C   UNL     1      -4.511  -2.222   4.705  0.00  0.00    +0.008 C 
ATOM     14  C   UNL     1      -3.311  -2.029   3.776  0.00  0.00    +0.037 C 
ATOM     15  C   UNL     1      -6.196  -3.878   5.526  0.00  0.00    +0.008 C 
ENDROOT
BRANCH   1  21
ATOM     16  C   UNL     1       3.717  -0.700  -0.037  0.00  0.00    +0.044 C 
ATOM     17  C   UNL     1       2.399   0.032  -0.021  0.00  0.00    -0.048 A 
ATOM     18  C   UNL     1       2.377   1.415  -0.013  0.00  0.00    +0.004 A 
ATOM     19  C   UNL     1       1.171   2.090   0.002  0.00  0.00    +0.005 A 
ATOM     20  C   UNL     1      -0.017   1.384   0.010  0.00  0.00    -0.026 A 
ATOM     21  C   UNL     1       0.002  -0.004   0.002  0.00  0.00    +0.055 A 
ATOM     22  C   UNL     1       1.216  -0.679  -0.013  0.00  0.00    +0.030 A 
ATOM     23  C   UNL     1      -1.331   2.120   0.020  0.00  0.00    +0.046 C 
ENDBRANCH   1  21
BRANCH  10  24
ATOM     24  S   UNL     1      -1.030  -0.575  -2.692  0.00  0.00    -0.087 S 
BRANCH  24  25
ATOM     25  C   UNL     1      -2.216  -1.264  -3.872  0.00  0.00    +0.086 C 
BRANCH  25  26
ATOM     26  C   UNL     1      -1.751  -0.962  -5.298  0.00  0.00    +0.107 C 
BRANCH  26  27
ATOM     27  C   UNL     1      -2.739  -1.536  -6.281  0.00  0.00    +0.221 C 
ATOM     28  O   UNL     1      -3.719  -2.127  -5.880  0.00  0.00    -0.275 OA
ATOM     29  N   UNL     1      -2.533  -1.391  -7.605  0.00  0.00    -0.240 N 
ATOM     30  C   UNL     1      -3.417  -1.904  -8.484  0.00  0.00    +0.303 C 
ATOM     31  O   UNL     1      -4.399  -2.496  -8.083  0.00  0.00    -0.253 OA
ATOM     32  N   UNL     1      -3.212  -1.759  -9.808  0.00  0.00    -0.313 N 
ATOM     33  H   UNL     1      -1.644  -0.855  -7.968  0.00  0.00    +0.159 HD
ATOM     34  H   UNL     1      -3.933  -2.177 -10.526  0.00  0.00    +0.146 HD
ATOM     35  H   UNL     1      -2.323  -1.222 -10.171  0.00  0.00    +0.146 HD
ENDBRANCH  26  27
ENDBRANCH  25  26
ENDBRANCH  24  25
ENDBRANCH  10  24
TORSDOF 5
