REMARK  Name = ZINC35200344
REMARK  9 active torsions:
REMARK  status: ('A' for Active; 'I' for Inactive)
REMARK    1  A    between atoms: C_1  and  C_2
REMARK    2  A    between atoms: C_5  and  N_8
REMARK    3  A    between atoms: C_17  and  S_18
REMARK    4  A    between atoms: S_18  and  C_19
REMARK    5  A    between atoms: C_19  and  C_20
REMARK    6  A    between atoms: N_22  and  N_23
REMARK    7  A    between atoms: C_24  and  C_25
REMARK    8  A    between atoms: C_25  and  C_32
REMARK    9  A    between atoms: C_26  and  C_27
REMARK                            x       y       z     vdW  Elec       q    Type
REMARK                         _______ _______ _______ _____ _____    ______ ____
ROOT
ATOM      1  N   UNL     1      -1.702  -5.583   0.184  0.00  0.00    -0.255 N 
ATOM      2  C   UNL     1      -1.273  -6.242   1.276  0.00  0.00    +0.268 A 
ATOM      3  O   UNL     1      -1.701  -5.953   2.380  0.00  0.00    -0.267 OA
ATOM      4  C   UNL     1      -0.307  -7.287   1.124  0.00  0.00    +0.076 A 
ATOM      5  C   UNL     1       0.294  -8.125   2.163  0.00  0.00    -0.023 A 
ATOM      6  C   UNL     1       1.189  -9.050   1.762  0.00  0.00    -0.004 A 
ATOM      7  S   UNL     1       1.285  -8.865   0.001  0.00  0.00    -0.073 S 
ATOM      8  C   UNL     1       0.119  -7.540  -0.191  0.00  0.00    +0.117 A 
ATOM      9  N   UNL     1      -0.343  -6.852  -1.228  0.00  0.00    -0.215 NA
ATOM     10  C   UNL     1      -1.237  -5.898  -1.062  0.00  0.00    +0.178 A 
ATOM     11  C   UNL     1       1.938 -10.022   2.622  0.00  0.00    +0.043 C 
ATOM     12  C   UNL     1       1.819  -9.567   4.083  0.00  0.00    +0.005 C 
ATOM     13  C   UNL     1       0.351  -9.247   4.380  0.00  0.00    +0.005 C 
ATOM     14  C   UNL     1      -0.063  -7.974   3.639  0.00  0.00    +0.037 C 
ENDROOT
BRANCH   1  19
ATOM     15  C   UNL     1      -5.531  -1.435   0.759  0.00  0.00    +0.044 C 
ATOM     16  C   UNL     1      -4.514  -2.537   0.606  0.00  0.00    -0.050 A 
ATOM     17  C   UNL     1      -3.277  -2.422   1.213  0.00  0.00    +0.005 A 
ATOM     18  C   UNL     1      -2.343  -3.430   1.075  0.00  0.00    +0.026 A 
ATOM     19  C   UNL     1      -2.648  -4.559   0.326  0.00  0.00    +0.052 A 
ATOM     20  C   UNL     1      -3.891  -4.671  -0.281  0.00  0.00    +0.026 A 
ATOM     21  C   UNL     1      -4.823  -3.662  -0.135  0.00  0.00    +0.005 A 
ENDBRANCH   1  19
BRANCH  10  22
ATOM     22  S   UNL     1      -1.834  -5.012  -2.463  0.00  0.00    -0.078 S 
BRANCH  22  23
ATOM     23  C   UNL     1      -0.956  -5.760  -3.863  0.00  0.00    +0.174 C 
BRANCH  23  24
ATOM     24  C   UNL     1      -1.381  -5.085  -5.141  0.00  0.00    +0.242 C 
ATOM     25  O   UNL     1      -2.196  -4.187  -5.111  0.00  0.00    -0.273 OA
ATOM     26  N   UNL     1      -0.855  -5.478  -6.318  0.00  0.00    -0.206 N 
ATOM     27  H   UNL     1      -0.203  -6.196  -6.342  0.00  0.00    +0.177 HD
BRANCH  26  28
ATOM     28  N   UNL     1      -1.250  -4.851  -7.507  0.00  0.00    -0.188 NA
ATOM     29  C   UNL     1      -1.109  -5.466  -8.647  0.00  0.00    +0.133 C 
BRANCH  29  30
ATOM     30  C   UNL     1      -0.987  -6.876  -8.680  0.00  0.00    -0.027 C 
ATOM     31  C   UNL     1      -1.248  -7.551  -9.824  0.00  0.00    +0.051 C 
ATOM     32  C   UNL     1      -0.568  -7.625  -7.441  0.00  0.00    +0.045 C 
BRANCH  31  33
ATOM     33  C   UNL     1      -1.489  -8.993  -9.783  0.00  0.00    +0.128 A 
ATOM     34  C   UNL     1      -1.615  -9.818 -10.866  0.00  0.00    +0.049 A 
ATOM     35  C   UNL     1      -1.837 -11.112 -10.365  0.00  0.00    +0.042 A 
ATOM     36  C   UNL     1      -1.836 -11.022  -9.018  0.00  0.00    +0.195 A 
ATOM     37  O   UNL     1      -1.620  -9.743  -8.670  0.00  0.00    -0.464 OA
ENDBRANCH  31  33
ENDBRANCH  29  30
ENDBRANCH  26  28
ENDBRANCH  23  24
ENDBRANCH  22  23
ENDBRANCH  10  22
TORSDOF 7
