REMARK  Name = ZINC39896771
REMARK  11 active torsions:
REMARK  status: ('A' for Active; 'I' for Inactive)
REMARK    1  A    between atoms: C_1  and  C_2
REMARK    2  A    between atoms: C_6  and  C_8
REMARK    3  A    between atoms: C_8  and  C_9
REMARK    4  A    between atoms: N_13  and  C_31
REMARK    5  A    between atoms: C_15  and  C_16
REMARK    6  A    between atoms: C_15  and  C_18
REMARK    7  A    between atoms: N_20  and  C_21
REMARK    8  A    between atoms: C_21  and  C_23
REMARK    9  A    between atoms: C_21  and  C_24
REMARK   10  A    between atoms: C_34  and  C_38
REMARK   11  A    between atoms: C_35  and  C_37
REMARK                            x       y       z     vdW  Elec       q    Type
REMARK                         _______ _______ _______ _____ _____    ______ ____
ROOT
ATOM      1  C   UNL     1       2.247  -2.964   2.993  0.00  0.00    +0.143 C 
ATOM      2  C   UNL     1       2.119  -3.722   4.305  0.00  0.00    +0.238 C 
ATOM      3  O   UNL     1       2.157  -3.162   5.380  0.00  0.00    -0.274 OA
ATOM      4  N   UNL     1       1.964  -5.031   4.199  0.00  0.00    -0.232 N 
ATOM      5  C   UNL     1       1.921  -5.676   2.987  0.00  0.00    +0.098 C 
ATOM      6  C   UNL     1       1.764  -7.041   2.742  0.00  0.00    +0.141 C 
ATOM      7  S   UNL     1       2.113  -4.356   1.796  0.00  0.00    -0.095 S 
ENDROOT
BRANCH   4   8
ATOM      8  C   UNL     1       1.841  -5.790   5.370  0.00  0.00    +0.042 A 
ATOM      9  C   UNL     1       2.974  -6.293   5.996  0.00  0.00    +0.024 A 
ATOM     10  C   UNL     1       2.848  -7.042   7.150  0.00  0.00    +0.005 A 
ATOM     11  C   UNL     1       1.596  -7.290   7.682  0.00  0.00    -0.047 A 
ATOM     12  C   UNL     1       0.466  -6.791   7.061  0.00  0.00    -0.046 A 
ATOM     13  C   UNL     1       0.586  -6.037   5.910  0.00  0.00    +0.027 A 
ATOM     14  C   UNL     1      -0.896  -7.065   7.644  0.00  0.00    +0.044 C 
ATOM     15  C   UNL     1       1.463  -8.108   8.941  0.00  0.00    +0.044 C 
ENDBRANCH   4   8
BRANCH   6  16
ATOM     16  C   UNL     1       1.633  -7.527   1.369  0.00  0.00    +0.257 C 
ATOM     17  O   UNL     1       1.662  -6.742   0.440  0.00  0.00    -0.269 OA
ATOM     18  N   UNL     1       1.482  -8.845   1.133  0.00  0.00    -0.304 N 
ATOM     19  H   UNL     1       1.459  -9.471   1.874  0.00  0.00    +0.150 HD
BRANCH  18  20
ATOM     20  C   UNL     1       1.351  -9.333  -0.242  0.00  0.00    +0.100 C 
ATOM     21  C   UNL     1       2.742  -9.534  -0.846  0.00  0.00    +0.033 C 
BRANCH  20  22
ATOM     22  C   UNL     1       0.609 -10.645  -0.242  0.00  0.00    -0.027 A 
ATOM     23  C   UNL     1       0.858 -11.580   0.745  0.00  0.00    +0.005 A 
ATOM     24  C   UNL     1       0.178 -12.783   0.745  0.00  0.00    +0.000 A 
ATOM     25  C   UNL     1      -0.753 -13.051  -0.241  0.00  0.00    +0.000 A 
ATOM     26  C   UNL     1      -1.003 -12.115  -1.228  0.00  0.00    +0.000 A 
ATOM     27  C   UNL     1      -0.325 -10.910  -1.226  0.00  0.00    +0.005 A 
ENDBRANCH  20  22
ENDBRANCH  18  20
ENDBRANCH   6  16
BRANCH   6  28
ATOM     28  C   UNL     1       1.730  -7.965   3.836  0.00  0.00    +0.107 C 
ATOM     29  N   UNL     1       1.703  -8.698   4.703  0.00  0.00    -0.191 NA
ENDBRANCH   6  28
BRANCH   1  30
ATOM     30  C   UNL     1       1.100  -1.967   2.815  0.00  0.00    +0.059 C 
BRANCH  30  36
ATOM     31  C   UNL     1       2.953   1.931   0.281  0.00  0.00    +0.044 C 
ATOM     32  C   UNL     1       2.167   0.645   0.306  0.00  0.00    -0.050 A 
ATOM     33  C   UNL     1       1.612   0.151  -0.860  0.00  0.00    +0.003 A 
ATOM     34  C   UNL     1       0.891  -1.028  -0.836  0.00  0.00    +0.001 A 
ATOM     35  C   UNL     1       0.726  -1.713   0.353  0.00  0.00    +0.004 A 
ATOM     36  C   UNL     1       1.281  -1.220   1.518  0.00  0.00    -0.046 A 
ATOM     37  C   UNL     1       2.006  -0.043   1.494  0.00  0.00    +0.007 A 
ENDBRANCH  30  36
ENDBRANCH   1  30
TORSDOF 7
