REMARK  Name = ZINC24853130
REMARK  14 active torsions:
REMARK  status: ('A' for Active; 'I' for Inactive)
REMARK    1  A    between atoms: C_1  and  C_2
REMARK    2  A    between atoms: C_2  and  N_3
REMARK    3  A    between atoms: N_3  and  C_4
REMARK    4  A    between atoms: N_3  and  C_6
REMARK    5  A    between atoms: C_4  and  C_5
REMARK    6  A    between atoms: C_6  and  C_8
REMARK    7  A    between atoms: C_6  and  C_28
REMARK    8  A    between atoms: C_8  and  N_9
REMARK    9  A    between atoms: C_10  and  C_12
REMARK   10  A    between atoms: C_12  and  S_13
REMARK   11  A    between atoms: S_13  and  C_14
REMARK   12  A    between atoms: N_24  and  C_25
REMARK   13  A    between atoms: C_25  and  C_26
REMARK   14  A    between atoms: C_25  and  C_27
REMARK                            x       y       z     vdW  Elec       q    Type
REMARK                         _______ _______ _______ _____ _____    ______ ____
ROOT
ATOM      1  N   UNL     1      -6.096  -0.608  -0.268  0.00  0.00    -0.316 N 
ATOM      2  C   UNL     1      -4.962  -1.335  -0.311  0.00  0.00    +0.223 C 
ATOM      3  O   UNL     1      -4.975  -2.500   0.026  0.00  0.00    -0.275 OA
ATOM      4  H   UNL     1      -6.084   0.448  -0.574  0.00  0.00    +0.149 HD
ENDROOT
BRANCH   1   5
ATOM      5  C   UNL     1      -7.345  -1.226   0.185  0.00  0.00    +0.096 C 
BRANCH   5   6
ATOM      6  C   UNL     1      -8.441  -0.162   0.261  0.00  0.00    +0.016 C 
BRANCH   6   7
ATOM      7  C   UNL     1      -8.095   0.842   1.330  0.00  0.00    +0.093 A 
ATOM      8  C   UNL     1      -8.602   0.871   2.575  0.00  0.00    +0.043 A 
ATOM      9  C   UNL     1      -8.003   1.968   3.236  0.00  0.00    +0.041 A 
ATOM     10  C   UNL     1      -7.172   2.549   2.352  0.00  0.00    +0.195 A 
ATOM     11  O   UNL     1      -7.231   1.862   1.199  0.00  0.00    -0.469 OA
ENDBRANCH   6   7
BRANCH   6  12
ATOM     12  N   UNL     1      -8.551   0.522  -1.035  0.00  0.00    +0.387 N 
ATOM     13  H   UNL     1      -7.604   1.050  -1.220  0.00  0.00    -0.081 HD
BRANCH  12  15
ATOM     14  C   UNL     1     -10.036  -1.235  -1.877  0.00  0.00    -0.017 C 
ATOM     15  C   UNL     1      -8.750  -0.444  -2.124  0.00  0.00    -0.081 C 
ENDBRANCH  12  15
BRANCH  12  16
ATOM     16  C   UNL     1      -9.628   1.520  -1.014  0.00  0.00    -0.081 C 
ATOM     17  C   UNL     1      -9.483   2.453  -2.219  0.00  0.00    -0.017 C 
ENDBRANCH  12  16
ENDBRANCH   6  12
ENDBRANCH   5   6
ENDBRANCH   1   5
BRANCH   2  18
ATOM     18  C   UNL     1      -3.677  -0.700  -0.777  0.00  0.00    +0.173 C 
BRANCH  18  19
ATOM     19  S   UNL     1      -2.344  -1.923  -0.722  0.00  0.00    -0.078 S 
BRANCH  19  20
ATOM     20  C   UNL     1      -1.002  -0.940  -1.300  0.00  0.00    +0.173 A 
ATOM     21  N   UNL     1      -1.232   0.313  -1.608  0.00  0.00    -0.223 NA
ATOM     22  C   UNL     1      -0.252   1.122  -2.057  0.00  0.00    +0.079 A 
ATOM     23  C   UNL     1      -0.498   2.459  -2.385  0.00  0.00    +0.028 A 
ATOM     24  C   UNL     1       0.525   3.244  -2.837  0.00  0.00    +0.002 A 
ATOM     25  C   UNL     1       1.810   2.734  -2.975  0.00  0.00    +0.001 A 
ATOM     26  C   UNL     1       2.082   1.431  -2.662  0.00  0.00    +0.015 A 
ATOM     27  C   UNL     1       1.056   0.607  -2.200  0.00  0.00    +0.065 A 
ATOM     28  C   UNL     1       1.290  -0.800  -1.848  0.00  0.00    +0.263 A 
ATOM     29  O   UNL     1       2.395  -1.302  -1.949  0.00  0.00    -0.267 OA
ATOM     30  N   UNL     1       0.231  -1.518  -1.407  0.00  0.00    -0.285 N 
BRANCH  30  31
ATOM     31  C   UNL     1       0.407  -2.926  -1.043  0.00  0.00    +0.087 C 
ATOM     32  C   UNL     1       0.908  -3.709  -2.258  0.00  0.00    +0.031 C 
ATOM     33  C   UNL     1       1.429  -3.035   0.091  0.00  0.00    +0.031 C 
ENDBRANCH  30  31
ENDBRANCH  19  20
ENDBRANCH  18  19
ENDBRANCH   2  18
TORSDOF 10
