REMARK  Name = ZINC59384759
REMARK  6 active torsions:
REMARK  status: ('A' for Active; 'I' for Inactive)
REMARK    1  A    between atoms: C_1  and  C_2
REMARK    2  A    between atoms: C_2  and  C_3
REMARK    3  A    between atoms: C_2  and  C_4
REMARK    4  A    between atoms: C_4  and  N_5
REMARK    5  A    between atoms: C_8  and  N_11
REMARK    6  A    between atoms: C_16  and  C_20
REMARK                            x       y       z     vdW  Elec       q    Type
REMARK                         _______ _______ _______ _____ _____    ______ ____
ROOT
ATOM      1  N   UNL     1      -2.066  -6.085   0.891  0.00  0.00    -0.319 N 
ATOM      2  C   UNL     1      -3.162  -6.887   1.165  0.00  0.00    +0.182 A 
ATOM      3  N   UNL     1      -3.254  -8.190   1.132  0.00  0.00    -0.142 NA
ATOM      4  N   UNL     1      -4.446  -8.837   1.441  0.00  0.00    -0.211 N 
ATOM      5  C   UNL     1      -4.932 -10.134   1.520  0.00  0.00    +0.143 A 
ATOM      6  C   UNL     1      -6.235 -10.063   1.892  0.00  0.00    +0.092 A 
ATOM      7  N   UNL     1      -6.554  -8.761   2.043  0.00  0.00    -0.220 NA
ATOM      8  C   UNL     1      -5.505  -8.039   1.778  0.00  0.00    +0.197 A 
ATOM      9  S   UNL     1      -4.808  -6.407   1.663  0.00  0.00    -0.013 S 
ATOM     10  H   UNL     1      -1.224  -6.487   0.629  0.00  0.00    +0.148 HD
ENDROOT
BRANCH   1  14
ATOM     11  N   UNL     1      -1.416  -2.016   0.004  0.00  0.00    +0.380 N 
ATOM     12  C   UNL     1      -0.913  -2.498   1.296  0.00  0.00    -0.077 C 
ATOM     13  C   UNL     1      -0.799  -4.024   1.265  0.00  0.00    +0.003 C 
ATOM     14  C   UNL     1      -2.181  -4.628   0.997  0.00  0.00    +0.069 C 
ATOM     15  C   UNL     1      -2.728  -4.061  -0.316  0.00  0.00    +0.003 C 
ATOM     16  C   UNL     1      -2.770  -2.534  -0.227  0.00  0.00    -0.077 C 
ATOM     17  H   UNL     1      -0.805  -2.334  -0.733  0.00  0.00    -0.082 HD
BRANCH  11  18
ATOM     18  C   UNL     1      -1.450  -0.547   0.011  0.00  0.00    -0.076 C 
BRANCH  18  20
ATOM     19  C   UNL     1       0.749  -0.387  -1.165  0.00  0.00    +0.005 C 
ATOM     20  C   UNL     1      -0.022  -0.005   0.101  0.00  0.00    -0.034 C 
ATOM     21  C   UNL     1      -0.062   1.518   0.233  0.00  0.00    +0.005 C 
ENDBRANCH  18  20
ENDBRANCH  11  18
ENDBRANCH   1  14
BRANCH   6  22
ATOM     22  C   UNL     1      -7.147 -11.214   2.098  0.00  0.00    +0.002 A 
ATOM     23  C   UNL     1      -6.683 -12.515   1.911  0.00  0.00    +0.013 A 
ATOM     24  C   UNL     1      -7.535 -13.584   2.103  0.00  0.00    +0.039 A 
ATOM     25  C   UNL     1      -8.850 -13.364   2.481  0.00  0.00    +0.123 A 
ATOM     26  C   UNL     1      -9.316 -12.073   2.666  0.00  0.00    +0.039 A 
ATOM     27  C   UNL     1      -8.469 -10.999   2.483  0.00  0.00    +0.013 A 
ATOM     28  F   UNL     1      -9.681 -14.413   2.668  0.00  0.00    -0.205 F 
ENDBRANCH   6  22
TORSDOF 4
