REMARK  Name = ZINC41000974
REMARK  14 active torsions:
REMARK  status: ('A' for Active; 'I' for Inactive)
REMARK    1  A    between atoms: C_1  and  C_2
REMARK    2  A    between atoms: C_5  and  C_8
REMARK    3  A    between atoms: C_10  and  C_13
REMARK    4  A    between atoms: C_14  and  C_36
REMARK    5  A    between atoms: C_15  and  C_35
REMARK    6  A    between atoms: C_17  and  N_18
REMARK    7  A    between atoms: C_19  and  C_21
REMARK    8  A    between atoms: C_21  and  C_23
REMARK    9  A    between atoms: C_21  and  O_24
REMARK   10  A    between atoms: O_24  and  C_25
REMARK   11  A    between atoms: C_27  and  C_34
REMARK   12  A    between atoms: C_30  and  C_31
REMARK   13  A    between atoms: C_31  and  C_32
REMARK   14  A    between atoms: C_31  and  C_33
REMARK                            x       y       z     vdW  Elec       q    Type
REMARK                         _______ _______ _______ _____ _____    ______ ____
ROOT
ATOM      1  C   UNL     1      -0.491  -7.500   1.665  0.00  0.00    +0.071 A 
ATOM      2  C   UNL     1      -0.723  -8.841   1.192  0.00  0.00    -0.026 A 
ATOM      3  C   UNL     1      -0.856  -9.827   2.098  0.00  0.00    -0.008 A 
ATOM      4  S   UNL     1      -0.671  -8.977   3.654  0.00  0.00    -0.078 S 
ATOM      5  C   UNL     1      -0.415  -7.322   3.042  0.00  0.00    +0.085 A 
ATOM      6  C   UNL     1      -1.102 -11.294   1.856  0.00  0.00    +0.052 C 
ATOM      7  C   UNL     1      -0.814  -9.133  -0.284  0.00  0.00    +0.045 C 
ENDROOT
BRANCH   1  10
ATOM      8  C   UNL     1      -0.028  -4.360  -0.032  0.00  0.00    +0.202 A 
ATOM      9  N   UNL     1      -0.117  -5.119   1.071  0.00  0.00    -0.187 NA
ATOM     10  C   UNL     1      -0.335  -6.373   0.735  0.00  0.00    +0.261 A 
ATOM     11  O   UNL     1      -0.391  -6.444  -0.608  0.00  0.00    -0.332 OA
ATOM     12  N   UNL     1      -0.194  -5.122  -1.086  0.00  0.00    -0.056 NA
BRANCH   8  17
ATOM     13  C   UNL     1       0.907   1.323  -0.121  0.00  0.00    +0.044 C 
ATOM     14  C   UNL     1       0.663  -0.164  -0.098  0.00  0.00    -0.050 A 
ATOM     15  C   UNL     1       0.505  -0.855  -1.286  0.00  0.00    +0.004 A 
ATOM     16  C   UNL     1       0.280  -2.217  -1.270  0.00  0.00    +0.012 A 
ATOM     17  C   UNL     1       0.214  -2.895  -0.055  0.00  0.00    +0.022 A 
ATOM     18  C   UNL     1       0.375  -2.195   1.138  0.00  0.00    +0.012 A 
ATOM     19  C   UNL     1       0.604  -0.834   1.111  0.00  0.00    +0.004 A 
ENDBRANCH   8  17
ENDBRANCH   1  10
BRANCH   5  20
ATOM     20  N   UNL     1      -0.197  -6.153   3.758  0.00  0.00    -0.276 N 
ATOM     21  C   UNL     1      -0.157  -6.185   5.105  0.00  0.00    +0.258 C 
ATOM     22  O   UNL     1      -0.311  -7.235   5.691  0.00  0.00    -0.271 OA
ATOM     23  H   UNL     1      -0.073  -5.313   3.289  0.00  0.00    +0.155 HD
BRANCH  21  24
ATOM     24  C   UNL     1       0.080  -4.916   5.882  0.00  0.00    +0.256 C 
ATOM     25  C   UNL     1      -1.095  -3.959   5.667  0.00  0.00    +0.062 C 
BRANCH  24  26
ATOM     26  O   UNL     1       0.195  -5.223   7.273  0.00  0.00    -0.480 OA
BRANCH  26  27
ATOM     27  C   UNL     1       0.898  -4.351   8.042  0.00  0.00    +0.125 A 
ATOM     28  C   UNL     1       1.370  -3.167   7.494  0.00  0.00    +0.049 A 
ATOM     29  C   UNL     1       2.084  -2.281   8.278  0.00  0.00    -0.047 A 
ATOM     30  C   UNL     1       2.329  -2.575   9.607  0.00  0.00    +0.004 A 
ATOM     31  C   UNL     1       1.860  -3.754  10.155  0.00  0.00    +0.008 A 
ATOM     32  C   UNL     1       1.140  -4.640   9.377  0.00  0.00    -0.003 A 
ATOM     33  C   UNL     1       2.598  -0.995   7.684  0.00  0.00    +0.044 C 
BRANCH  32  34
ATOM     34  C   UNL     1       0.624  -5.923   9.976  0.00  0.00    +0.016 C 
ATOM     35  C   UNL     1       1.799  -6.752  10.497  0.00  0.00    +0.012 C 
ATOM     36  C   UNL     1      -0.325  -5.600  11.132  0.00  0.00    +0.012 C 
ENDBRANCH  32  34
ENDBRANCH  26  27
ENDBRANCH  24  26
ENDBRANCH  21  24
ENDBRANCH   5  20
TORSDOF 7
