REMARK  Name = ZINC09761300
REMARK  4 active torsions:
REMARK  status: ('A' for Active; 'I' for Inactive)
REMARK    1  A    between atoms: C_4  and  C_7
REMARK    2  A    between atoms: C_7  and  C_30
REMARK    3  A    between atoms: C_15  and  C_18
REMARK    4  A    between atoms: C_21  and  C_23
REMARK                            x       y       z     vdW  Elec       q    Type
REMARK                         _______ _______ _______ _____ _____    ______ ____
ROOT
ATOM      1  C   UNL     1      -0.070   5.347   0.030  0.00  0.00    +0.149 C 
ATOM      2  C   UNL     1      -1.359   5.825   0.645  0.00  0.00    +0.014 A 
ATOM      3  C   UNL     1      -2.546   5.185   0.341  0.00  0.00    +0.009 A 
ATOM      4  C   UNL     1      -3.733   5.621   0.900  0.00  0.00    +0.000 A 
ATOM      5  C   UNL     1      -3.740   6.699   1.766  0.00  0.00    +0.002 A 
ATOM      6  C   UNL     1      -2.559   7.344   2.077  0.00  0.00    +0.023 A 
ATOM      7  C   UNL     1      -1.367   6.906   1.517  0.00  0.00    +0.036 A 
ATOM      8  N   UNL     1      -0.163   7.550   1.831  0.00  0.00    -0.313 N 
ATOM      9  C   UNL     1       1.016   7.247   1.005  0.00  0.00    +0.273 C 
ATOM     10  O   UNL     1       1.044   5.832   0.781  0.00  0.00    -0.331 OA
ATOM     11  H   UNL     1      -0.109   8.175   2.571  0.00  0.00    +0.149 HD
ENDROOT
BRANCH   1  15
ATOM     12  C   UNL     1      -0.013   1.076   0.008  0.00  0.00    +0.000 A 
ATOM     13  C   UNL     1      -0.662   1.764  -1.000  0.00  0.00    +0.000 A 
ATOM     14  C   UNL     1      -0.685   3.146  -0.990  0.00  0.00    +0.007 A 
ATOM     15  C   UNL     1      -0.050   3.840   0.022  0.00  0.00    -0.007 A 
ATOM     16  C   UNL     1       0.604   3.153   1.028  0.00  0.00    +0.007 A 
ATOM     17  C   UNL     1       0.623   1.770   1.020  0.00  0.00    +0.000 A 
ENDBRANCH   1  15
BRANCH   1  18
ATOM     18  C   UNL     1       0.026   5.855  -1.385  0.00  0.00    -0.007 A 
ATOM     19  C   UNL     1      -1.124   6.067  -2.123  0.00  0.00    +0.007 A 
ATOM     20  C   UNL     1      -1.035   6.537  -3.420  0.00  0.00    +0.000 A 
ATOM     21  C   UNL     1       0.203   6.787  -3.982  0.00  0.00    +0.000 A 
ATOM     22  C   UNL     1       1.352   6.569  -3.246  0.00  0.00    +0.000 A 
ATOM     23  C   UNL     1       1.264   6.104  -1.948  0.00  0.00    +0.007 A 
ENDBRANCH   1  18
BRANCH   9  24
ATOM     24  C   UNL     1       2.268   7.673   1.727  0.00  0.00    +0.153 A 
ATOM     25  C   UNL     1       2.385   8.751   2.528  0.00  0.00    +0.050 A 
ATOM     26  C   UNL     1       3.715   8.777   2.994  0.00  0.00    +0.050 A 
ATOM     27  C   UNL     1       4.343   7.703   2.446  0.00  0.00    +0.135 A 
ATOM     28  O   UNL     1       3.452   7.040   1.684  0.00  0.00    -0.455 OA
BRANCH  27  29
ATOM     29  C   UNL     1       5.756   7.325   2.654  0.00  0.00    +0.017 A 
ATOM     30  C   UNL     1       6.577   8.104   3.472  0.00  0.00    +0.012 A 
ATOM     31  C   UNL     1       7.894   7.745   3.665  0.00  0.00    +0.016 A 
ATOM     32  C   UNL     1       8.406   6.619   3.042  0.00  0.00    +0.018 A 
ATOM     33  C   UNL     1       7.599   5.845   2.225  0.00  0.00    +0.016 A 
ATOM     34  C   UNL     1       6.279   6.192   2.028  0.00  0.00    +0.012 A 
ATOM     35 BR   UNL     1      10.215   6.137   3.307  0.00  0.00    -0.050 Br
ENDBRANCH  27  29
ENDBRANCH   9  24
TORSDOF 4
