REMARK  Name = ZINC32732773
REMARK  12 active torsions:
REMARK  status: ('A' for Active; 'I' for Inactive)
REMARK    1  A    between atoms: C_1  and  C_2
REMARK    2  A    between atoms: C_2  and  C_3
REMARK    3  A    between atoms: C_6  and  C_9
REMARK    4  A    between atoms: C_9  and  C_11
REMARK    5  A    between atoms: C_9  and  N_31
REMARK    6  A    between atoms: C_11  and  N_12
REMARK    7  A    between atoms: C_13  and  C_15
REMARK    8  A    between atoms: N_20  and  S_21
REMARK    9  A    between atoms: S_21  and  C_24
REMARK   10  A    between atoms: C_27  and  C_30
REMARK   11  A    between atoms: N_31  and  C_32
REMARK   12  A    between atoms: N_31  and  C_33
REMARK                            x       y       z     vdW  Elec       q    Type
REMARK                         _______ _______ _______ _____ _____    ______ ____
ROOT
ATOM      1  N   UNL     1      -0.789   2.006  -1.587  0.00  0.00    -0.315 N 
ATOM      2  C   UNL     1      -0.785   2.847  -2.640  0.00  0.00    +0.232 C 
ATOM      3  O   UNL     1      -0.922   4.039  -2.465  0.00  0.00    -0.274 OA
ATOM      4  H   UNL     1      -0.665   0.925  -1.745  0.00  0.00    +0.149 HD
ENDROOT
BRANCH   2   5
ATOM      5  C   UNL     1      -0.611   2.305  -4.036  0.00  0.00    +0.165 C 
ATOM      6  C   UNL     1       0.888   2.268  -4.401  0.00  0.00    +0.031 C 
ATOM      7  C   UNL     1       0.889   2.691  -5.896  0.00  0.00    +0.019 C 
ATOM      8  C   UNL     1      -0.265   3.724  -5.931  0.00  0.00    +0.110 C 
ATOM      9  N   UNL     1      -1.278   3.190  -5.002  0.00  0.00    -0.165 NA
BRANCH   9  10
ATOM     10  S   UNL     1      -2.898   3.529  -5.042  0.00  0.00    +0.062 S 
ATOM     11  O   UNL     1      -3.417   3.183  -3.765  0.00  0.00    -0.153 OA
ATOM     12  O   UNL     1      -3.026   4.834  -5.589  0.00  0.00    -0.153 OA
BRANCH  10  13
ATOM     13  C   UNL     1      -3.633   2.423  -6.201  0.00  0.00    +0.106 A 
ATOM     14  C   UNL     1      -3.648   2.741  -7.546  0.00  0.00    +0.029 A 
ATOM     15  C   UNL     1      -4.221   1.872  -8.455  0.00  0.00    +0.005 A 
ATOM     16  C   UNL     1      -4.787   0.689  -8.018  0.00  0.00    -0.050 A 
ATOM     17  C   UNL     1      -4.777   0.373  -6.672  0.00  0.00    +0.005 A 
ATOM     18  C   UNL     1      -4.200   1.241  -5.763  0.00  0.00    +0.029 A 
ATOM     19  C   UNL     1      -5.415  -0.258  -9.009  0.00  0.00    +0.044 C 
ENDBRANCH  10  13
ENDBRANCH   9  10
ENDBRANCH   2   5
BRANCH   1  20
ATOM     20  C   UNL     1      -0.958   2.533  -0.230  0.00  0.00    +0.093 C 
BRANCH  20  21
ATOM     21  C   UNL     1      -1.091   1.370   0.755  0.00  0.00    -0.021 C 
BRANCH  21  25
ATOM     22  C   UNL     1      -1.350   2.900   4.735  0.00  0.00    -0.048 A 
ATOM     23  C   UNL     1      -0.124   2.531   4.215  0.00  0.00    +0.004 A 
ATOM     24  C   UNL     1      -0.040   2.036   2.927  0.00  0.00    +0.002 A 
ATOM     25  C   UNL     1      -1.182   1.910   2.160  0.00  0.00    -0.059 A 
ATOM     26  C   UNL     1      -2.408   2.284   2.678  0.00  0.00    +0.002 A 
ATOM     27  C   UNL     1      -2.493   2.774   3.967  0.00  0.00    +0.004 A 
BRANCH  22  29
ATOM     28  C   UNL     1      -1.283   4.960   6.114  0.00  0.00    +0.009 C 
ATOM     29  C   UNL     1      -1.442   3.439   6.140  0.00  0.00    +0.032 C 
ENDBRANCH  22  29
ENDBRANCH  21  25
BRANCH  21  30
ATOM     30  N   UNL     1      -2.304   0.602   0.446  0.00  0.00    +0.382 N 
ATOM     31  C   UNL     1      -3.304   1.444  -0.225  0.00  0.00    -0.096 C 
ATOM     32  C   UNL     1      -1.985  -0.583  -0.362  0.00  0.00    -0.096 C 
ATOM     33  H   UNL     1      -2.737   0.256   1.397  0.00  0.00    -0.082 HD
ENDBRANCH  21  30
ENDBRANCH  20  21
ENDBRANCH   1  20
TORSDOF 8
