REMARK  Name = ZINC63374947
REMARK  12 active torsions:
REMARK  status: ('A' for Active; 'I' for Inactive)
REMARK    1  A    between atoms: C_1  and  C_2
REMARK    2  A    between atoms: C_2  and  C_3
REMARK    3  A    between atoms: C_2  and  C_4
REMARK    4  A    between atoms: C_4  and  N_5
REMARK    5  A    between atoms: C_11  and  C_27
REMARK    6  A    between atoms: C_23  and  C_26
REMARK    7  A    between atoms: C_30  and  O_35
REMARK    8  A    between atoms: C_31  and  O_33
REMARK    9  A    between atoms: O_33  and  C_34
REMARK   10  A    between atoms: O_35  and  C_36
REMARK   11  A    between atoms: C_36  and  C_37
REMARK   12  A    between atoms: C_36  and  C_38
REMARK                            x       y       z     vdW  Elec       q    Type
REMARK                         _______ _______ _______ _____ _____    ______ ____
ROOT
ATOM      1  N   UNL     1      -1.559  -1.817  -0.158  0.00  0.00    -0.291 N 
ATOM      2  C   UNL     1      -1.546  -2.510  -1.459  0.00  0.00    +0.203 C 
ATOM      3  C   UNL     1      -0.444  -3.548  -1.444  0.00  0.00    +0.234 C 
ATOM      4  O   UNL     1       0.291  -3.708  -2.396  0.00  0.00    -0.274 OA
ATOM      5  N   UNL     1      -0.317  -4.300  -0.301  0.00  0.00    -0.283 N 
ATOM      6  C   UNL     1       0.860  -5.144  -0.193  0.00  0.00    +0.121 C 
ATOM      7  C   UNL     1       0.745  -6.211   0.900  0.00  0.00    +0.065 C 
ATOM      8  C   UNL     1       0.072  -5.541   2.071  0.00  0.00    -0.027 C 
ATOM      9  C   UNL     1       0.447  -5.329   3.323  0.00  0.00    -0.000 A 
ATOM     10  C   UNL     1       1.619  -5.781   4.090  0.00  0.00    +0.010 A 
ATOM     11  C   UNL     1       1.700  -5.345   5.375  0.00  0.00    +0.001 A 
ATOM     12  C   UNL     1       0.745  -4.513   5.967  0.00  0.00    +0.002 A 
ATOM     13  C   UNL     1      -0.369  -4.058   5.341  0.00  0.00    +0.026 A 
ATOM     14  C   UNL     1      -0.573  -4.460   3.989  0.00  0.00    +0.043 A 
ATOM     15  N   UNL     1      -1.554  -4.202   3.173  0.00  0.00    -0.375 N 
ATOM     16  C   UNL     1      -1.311  -4.926   1.926  0.00  0.00    +0.139 C 
ATOM     17  C   UNL     1      -1.355  -4.083   0.691  0.00  0.00    +0.135 C 
ATOM     18  C   UNL     1      -1.486  -2.606   0.957  0.00  0.00    +0.242 C 
ATOM     19  O   UNL     1      -1.527  -2.149   2.079  0.00  0.00    -0.273 OA
ATOM     20  C   UNL     1      -2.663  -4.458  -0.010  0.00  0.00    +0.044 C 
ATOM     21  H   UNL     1      -2.314  -3.630   3.360  0.00  0.00    +0.160 HD
ENDROOT
BRANCH   7  22
ATOM     22  C   UNL     1       2.116  -6.697   1.296  0.00  0.00    -0.035 A 
ATOM     23  C   UNL     1       3.040  -5.808   1.811  0.00  0.00    +0.008 A 
ATOM     24  C   UNL     1       4.299  -6.248   2.176  0.00  0.00    +0.050 A 
ATOM     25  C   UNL     1       4.636  -7.584   2.025  0.00  0.00    +0.162 A 
ATOM     26  C   UNL     1       3.705  -8.479   1.507  0.00  0.00    +0.162 A 
ATOM     27  C   UNL     1       2.444  -8.031   1.148  0.00  0.00    +0.053 A 
BRANCH  26  28
ATOM     28  O   UNL     1       4.031  -9.791   1.357  0.00  0.00    -0.491 OA
ATOM     29  C   UNL     1       3.026 -10.652   0.819  0.00  0.00    +0.277 C 
ENDBRANCH  26  28
BRANCH  25  30
ATOM     30  O   UNL     1       5.874  -8.019   2.383  0.00  0.00    -0.486 OA
BRANCH  30  31
ATOM     31  C   UNL     1       6.736  -7.072   3.018  0.00  0.00    +0.167 C 
ATOM     32  C   UNL     1       7.761  -7.813   3.878  0.00  0.00    +0.051 C 
ATOM     33  C   UNL     1       7.463  -6.250   1.952  0.00  0.00    +0.051 C 
ENDBRANCH  30  31
ENDBRANCH  25  30
ENDBRANCH   7  22
BRANCH   1  34
ATOM     34  C   UNL     1      -1.639  -0.357  -0.064  0.00  0.00    +0.111 C 
BRANCH  34  36
ATOM     35  C   UNL     1      -0.312   1.760  -0.095  0.00  0.00    +0.009 C 
ATOM     36  C   UNL     1      -0.227   0.233  -0.067  0.00  0.00    +0.000 C 
ATOM     37  C   UNL     1       0.516  -0.214   1.194  0.00  0.00    +0.009 C 
ENDBRANCH  34  36
ENDBRANCH   1  34
TORSDOF 6
