REMARK  Name = ZINC09788938
REMARK  10 active torsions:
REMARK  status: ('A' for Active; 'I' for Inactive)
REMARK    1  A    between atoms: C_1  and  C_2
REMARK    2  A    between atoms: C_2  and  C_4
REMARK    3  A    between atoms: C_2  and  S_17
REMARK    4  A    between atoms: N_6  and  C_7
REMARK    5  A    between atoms: C_10  and  S_13
REMARK    6  A    between atoms: S_13  and  N_16
REMARK    7  A    between atoms: S_17  and  C_18
REMARK    8  A    between atoms: C_21  and  C_26
REMARK    9  A    between atoms: N_22  and  C_23
REMARK   10  A    between atoms: C_26  and  C_27
REMARK                            x       y       z     vdW  Elec       q    Type
REMARK                         _______ _______ _______ _____ _____    ______ ____
ROOT
ATOM      1  C   UNL     1      -0.508   2.012  -2.290  0.00  0.00    +0.029 C 
ATOM      2  C   UNL     1       0.082   1.625  -0.932  0.00  0.00    +0.137 C 
ENDROOT
BRANCH   2   3
ATOM      3  C   UNL     1      -0.657   2.353   0.162  0.00  0.00    +0.230 C 
ATOM      4  O   UNL     1      -0.222   3.398   0.596  0.00  0.00    -0.274 OA
ATOM      5  N   UNL     1      -1.801   1.841   0.658  0.00  0.00    -0.285 N 
ATOM      6  H   UNL     1      -2.094   0.956   0.389  0.00  0.00    +0.155 HD
BRANCH   5   7
ATOM      7  C   UNL     1      -2.568   2.587   1.560  0.00  0.00    +0.034 A 
ATOM      8  C   UNL     1      -3.301   1.943   2.548  0.00  0.00    +0.025 A 
ATOM      9  C   UNL     1      -4.053   2.682   3.441  0.00  0.00    +0.030 A 
ATOM     10  C   UNL     1      -4.083   4.061   3.345  0.00  0.00    +0.105 A 
ATOM     11  C   UNL     1      -3.358   4.705   2.359  0.00  0.00    +0.030 A 
ATOM     12  C   UNL     1      -2.600   3.972   1.467  0.00  0.00    +0.025 A 
BRANCH  10  13
ATOM     13  S   UNL     1      -5.048   5.000   4.482  0.00  0.00    +0.056 S 
ATOM     14  O   UNL     1      -5.199   4.199   5.645  0.00  0.00    -0.153 OA
ATOM     15  O   UNL     1      -4.476   6.301   4.521  0.00  0.00    -0.153 OA
BRANCH  13  16
ATOM     16  N   UNL     1      -6.558   5.167   3.822  0.00  0.00    -0.204 NA
ATOM     17  H   UNL     1      -6.756   4.773   2.958  0.00  0.00    +0.144 HD
ATOM     18  H   UNL     1      -7.244   5.658   4.300  0.00  0.00    +0.144 HD
ENDBRANCH  13  16
ENDBRANCH  10  13
ENDBRANCH   5   7
ENDBRANCH   2   3
BRANCH   2  19
ATOM     19  S   UNL     1       1.833   2.080  -0.882  0.00  0.00    -0.074 S 
BRANCH  19  20
ATOM     20  C   UNL     1       2.464   1.003  -2.127  0.00  0.00    +0.193 A 
ATOM     21  N   UNL     1       1.772   0.144  -2.839  0.00  0.00    -0.122 NA
ATOM     22  N   UNL     1       2.551  -0.475  -3.653  0.00  0.00    -0.133 NA
ATOM     23  C   UNL     1       3.775  -0.052  -3.510  0.00  0.00    +0.139 A 
ATOM     24  N   UNL     1       3.763   0.909  -2.537  0.00  0.00    -0.303 N 
BRANCH  24  25
ATOM     25  C   UNL     1       4.906   1.676  -2.036  0.00  0.00    +0.091 C 
ATOM     26  C   UNL     1       4.737   2.406  -0.702  0.00  0.00    +0.027 C 
ATOM     27  C   UNL     1       4.777   3.201  -2.009  0.00  0.00    +0.027 C 
ENDBRANCH  24  25
BRANCH  23  28
ATOM     28  C   UNL     1       4.981  -0.528  -4.279  0.00  0.00    +0.118 C 
BRANCH  28  29
ATOM     29  C   UNL     1       5.151   0.313  -5.517  0.00  0.00    -0.003 A 
ATOM     30  C   UNL     1       5.856   1.459  -5.681  0.00  0.00    +0.011 A 
ATOM     31  C   UNL     1       5.871   2.065  -6.923  0.00  0.00    +0.008 A 
ATOM     32  C   UNL     1       5.181   1.495  -7.941  0.00  0.00    +0.045 A 
ATOM     33  S   UNL     1       4.483   0.053  -7.153  0.00  0.00    -0.101 S 
ENDBRANCH  28  29
ENDBRANCH  23  28
ENDBRANCH  19  20
ENDBRANCH   2  19
TORSDOF 9
