REMARK  Name = ZINC35746347
REMARK  13 active torsions:
REMARK  status: ('A' for Active; 'I' for Inactive)
REMARK    1  A    between atoms: C_1  and  C_2
REMARK    2  A    between atoms: C_2  and  C_3
REMARK    3  A    between atoms: C_2  and  C_4
REMARK    4  A    between atoms: C_4  and  C_5
REMARK    5  A    between atoms: C_5  and  N_6
REMARK    6  A    between atoms: N_6  and  C_7
REMARK    7  A    between atoms: N_6  and  C_26
REMARK    8  A    between atoms: C_7  and  C_8
REMARK    9  A    between atoms: C_14  and  C_19
REMARK   10  A    between atoms: C_26  and  C_27
REMARK   11  A    between atoms: C_27  and  C_29
REMARK   12  A    between atoms: C_27  and  O_36
REMARK   13  A    between atoms: C_29  and  C_30
REMARK                            x       y       z     vdW  Elec       q    Type
REMARK                         _______ _______ _______ _____ _____    ______ ____
ROOT
ATOM      1  C   UNL     1      -3.106  -3.910  -0.027  0.00  0.00    -0.003 C 
ENDROOT
BRANCH   1   2
ATOM      2  C   UNL     1      -2.671  -4.381   1.337  0.00  0.00    +0.094 A 
ATOM      3  N   UNL     1      -2.769  -5.698   1.651  0.00  0.00    -0.312 N 
ATOM      4  H   UNL     1      -3.118  -6.319   0.992  0.00  0.00    +0.170 HD
ATOM      5  C   UNL     1      -2.393  -6.159   2.858  0.00  0.00    +0.260 A 
ATOM      6  O   UNL     1      -2.487  -7.345   3.124  0.00  0.00    -0.267 OA
ATOM      7  C   UNL     1      -1.879  -5.236   3.824  0.00  0.00    +0.080 A 
ATOM      8  C   UNL     1      -1.411  -5.487   5.182  0.00  0.00    +0.004 A 
ATOM      9  C   UNL     1      -0.962  -4.442   5.919  0.00  0.00    +0.056 A 
ATOM     10  S   UNL     1      -1.147  -3.051   4.820  0.00  0.00    -0.076 S 
ATOM     11  C   UNL     1      -1.815  -3.895   3.410  0.00  0.00    +0.116 A 
ATOM     12  N   UNL     1      -2.202  -3.515   2.195  0.00  0.00    -0.229 NA
BRANCH   8  13
ATOM     13  C   UNL     1      -1.425  -6.858   5.744  0.00  0.00    -0.015 A 
ATOM     14  C   UNL     1      -2.579  -7.636   5.661  0.00  0.00    +0.008 A 
ATOM     15  C   UNL     1      -2.587  -8.912   6.186  0.00  0.00    +0.002 A 
ATOM     16  C   UNL     1      -1.453  -9.420   6.796  0.00  0.00    +0.020 A 
ATOM     17  C   UNL     1      -0.304  -8.652   6.882  0.00  0.00    +0.042 A 
ATOM     18  C   UNL     1      -0.283  -7.376   6.354  0.00  0.00    +0.028 A 
ATOM     19 CL   UNL     1       1.114  -9.296   7.648  0.00  0.00    -0.084 Cl
ENDBRANCH   8  13
ENDBRANCH   1   2
BRANCH   1  20
ATOM     20  N   UNL     1      -2.901  -2.459  -0.133  0.00  0.00    +0.386 N 
ATOM     21  H   UNL     1      -3.380  -1.996   0.624  0.00  0.00    -0.081 HD
BRANCH  20  22
ATOM     22  C   UNL     1      -1.464  -2.161  -0.058  0.00  0.00    -0.078 C 
BRANCH  22  23
ATOM     23  C   UNL     1      -0.752  -2.775  -1.266  0.00  0.00    -0.016 C 
BRANCH  23  25
ATOM     24  C   UNL     1       1.478  -3.306  -2.260  0.00  0.00    +0.007 C 
ATOM     25  C   UNL     1       0.758  -2.584  -1.118  0.00  0.00    -0.019 C 
ATOM     26  C   UNL     1       1.092  -1.092  -1.167  0.00  0.00    +0.007 C 
ENDBRANCH  23  25
ENDBRANCH  22  23
ENDBRANCH  20  22
BRANCH  20  27
ATOM     27  C   UNL     1      -3.434  -1.982  -1.416  0.00  0.00    -0.046 C 
BRANCH  27  28
ATOM     28  C   UNL     1      -3.342  -0.456  -1.470  0.00  0.00    +0.102 C 
BRANCH  28  29
ATOM     29  O   UNL     1      -4.133   0.107  -0.421  0.00  0.00    -0.393 OA
ATOM     30  H   UNL     1      -5.071  -0.124  -0.469  0.00  0.00    +0.210 HD
ENDBRANCH  28  29
BRANCH  28  31
ATOM     31  C   UNL     1      -3.861   0.039  -2.821  0.00  0.00    +0.064 C 
BRANCH  31  32
ATOM     32  C   UNL     1      -3.657   1.529  -2.923  0.00  0.00    -0.045 A 
ATOM     33  C   UNL     1      -4.642   2.393  -2.483  0.00  0.00    +0.004 A 
ATOM     34  C   UNL     1      -4.455   3.759  -2.576  0.00  0.00    +0.000 A 
ATOM     35  C   UNL     1      -3.283   4.262  -3.109  0.00  0.00    +0.000 A 
ATOM     36  C   UNL     1      -2.297   3.398  -3.548  0.00  0.00    +0.000 A 
ATOM     37  C   UNL     1      -2.482   2.031  -3.451  0.00  0.00    +0.004 A 
ENDBRANCH  31  32
ENDBRANCH  28  31
ENDBRANCH  27  28
ENDBRANCH  20  27
ENDBRANCH   1  20
TORSDOF 11
