REMARK  Name = ZINC09726649
REMARK  8 active torsions:
REMARK  status: ('A' for Active; 'I' for Inactive)
REMARK    1  A    between atoms: C_1  and  C_2
REMARK    2  A    between atoms: C_2  and  N_59
REMARK    3  A    between atoms: C_3  and  C_4
REMARK    4  A    between atoms: C_3  and  N_59
REMARK    5  A    between atoms: C_16  and  C_17
REMARK    6  A    between atoms: C_16  and  N_59
REMARK    7  A    between atoms: C_20  and  C_32
REMARK    8  A    between atoms: C_23  and  C_25
REMARK                            x       y       z     vdW  Elec       q    Type
REMARK                         _______ _______ _______ _____ _____    ______ ____
ROOT
ATOM      1  C   UNL     1      -0.717   8.082   0.108  0.00  0.00    +0.219 C 
ATOM      2  O   UNL     1      -1.599   7.252   0.041  0.00  0.00    -0.276 OA
ATOM      3  N   UNL     1      -1.028   9.388   0.224  0.00  0.00    -0.184 N 
ATOM      4  C   UNL     1      -2.390   9.942   0.281  0.00  0.00    +0.172 C 
ATOM      5  C   UNL     1      -2.158  11.460   0.413  0.00  0.00    +0.090 C 
ATOM      6  C   UNL     1      -0.652  11.600   0.416  0.00  0.00    +0.069 C 
ATOM      7  N   UNL     1      -0.112  10.434   0.317  0.00  0.00    -0.181 NA
ENDROOT
BRANCH   6   8
ATOM      8  C   UNL     1       0.084  12.873   0.524  0.00  0.00    -0.002 A 
ATOM      9  C   UNL     1      -0.612  14.079   0.629  0.00  0.00    +0.011 A 
ATOM     10  C   UNL     1       0.083  15.266   0.735  0.00  0.00    +0.020 A 
ATOM     11  C   UNL     1       1.467  15.264   0.725  0.00  0.00    +0.041 A 
ATOM     12  C   UNL     1       2.164  14.072   0.616  0.00  0.00    +0.020 A 
ATOM     13  C   UNL     1       1.481  12.878   0.515  0.00  0.00    +0.011 A 
ATOM     14 CL   UNL     1       2.334  16.763   0.852  0.00  0.00    -0.084 Cl
ENDBRANCH   6   8
BRANCH   4  15
ATOM     15  C   UNL     1      -3.145   9.625  -0.984  0.00  0.00    +0.128 A 
ATOM     16  C   UNL     1      -4.445   9.291  -1.062  0.00  0.00    +0.046 A 
ATOM     17  C   UNL     1      -4.733   9.081  -2.430  0.00  0.00    +0.041 A 
ATOM     18  C   UNL     1      -3.591   9.299  -3.106  0.00  0.00    +0.195 A 
ATOM     19  O   UNL     1      -2.634   9.634  -2.226  0.00  0.00    -0.466 OA
ENDBRANCH   4  15
BRANCH   1  20
ATOM     20  C   UNL     1       0.727   7.653   0.061  0.00  0.00    +0.021 C 
BRANCH  20  21
ATOM     21  N   UNL     1       0.783   6.176   0.051  0.00  0.00    +0.390 N 
ATOM     22  H   UNL     1       0.101   5.821  -0.629  0.00  0.00    -0.081 HD
BRANCH  21  24
ATOM     23  C   UNL     1       1.482   6.098   2.421  0.00  0.00    -0.017 C 
ATOM     24  C   UNL     1       0.445   5.648   1.390  0.00  0.00    -0.081 C 
ENDBRANCH  21  24
BRANCH  21  25
ATOM     25  C   UNL     1       2.134   5.724  -0.344  0.00  0.00    -0.003 C 
BRANCH  25  26
ATOM     26  C   UNL     1       2.104   4.233  -0.560  0.00  0.00    +0.094 A 
ATOM     27  N   UNL     1       3.250   3.615  -0.949  0.00  0.00    -0.312 N 
ATOM     28  H   UNL     1       4.057   4.137  -1.079  0.00  0.00    +0.170 HD
ATOM     29  C   UNL     1       3.276   2.278  -1.156  0.00  0.00    +0.259 A 
ATOM     30  O   UNL     1       4.295   1.712  -1.504  0.00  0.00    -0.267 OA
ATOM     31  C   UNL     1       2.024   1.536  -0.943  0.00  0.00    +0.065 A 
ATOM     32  C   UNL     1       1.944   0.157  -1.129  0.00  0.00    +0.015 A 
ATOM     33  C   UNL     1       0.746  -0.488  -0.915  0.00  0.00    +0.001 A 
ATOM     34  C   UNL     1      -0.379   0.224  -0.517  0.00  0.00    +0.002 A 
ATOM     35  C   UNL     1      -0.321   1.587  -0.329  0.00  0.00    +0.028 A 
ATOM     36  C   UNL     1       0.883   2.263  -0.539  0.00  0.00    +0.078 A 
ATOM     37  N   UNL     1       0.985   3.605  -0.364  0.00  0.00    -0.236 NA
ENDBRANCH  25  26
ENDBRANCH  21  25
ENDBRANCH  20  21
ENDBRANCH   1  20
TORSDOF 7
