REMARK  Name = ZINC13588362
REMARK  7 active torsions:
REMARK  status: ('A' for Active; 'I' for Inactive)
REMARK    1  A    between atoms: C_1  and  C_2
REMARK    2  A    between atoms: C_2  and  C_3
REMARK    3  A    between atoms: C_3  and  C_4
REMARK    4  A    between atoms: C_7  and  C_10
REMARK    5  A    between atoms: C_12  and  C_25
REMARK    6  A    between atoms: C_18  and  S_21
REMARK    7  A    between atoms: S_21  and  C_24
REMARK                            x       y       z     vdW  Elec       q    Type
REMARK                         _______ _______ _______ _____ _____    ______ ____
ROOT
ATOM      1  C   UNL     1      -2.816   3.022   4.662  0.00  0.00    +0.077 A 
ATOM      2  C   UNL     1      -3.775   2.345   5.361  0.00  0.00    +0.059 A 
ATOM      3  C   UNL     1      -4.006   3.036   6.551  0.00  0.00    +0.129 A 
ATOM      4  N   UNL     1      -3.228   4.088   6.582  0.00  0.00    -0.164 NA
ATOM      5  N   UNL     1      -2.460   4.108   5.411  0.00  0.00    -0.214 N 
ATOM      6  C   UNL     1      -1.504   5.068   5.068  0.00  0.00    +0.155 A 
ATOM      7  C   UNL     1      -1.628   6.365   5.551  0.00  0.00    +0.050 A 
ATOM      8  C   UNL     1      -0.672   7.305   5.208  0.00  0.00    +0.032 A 
ATOM      9  C   UNL     1       0.374   6.915   4.383  0.00  0.00    +0.106 A 
ATOM     10  C   UNL     1       0.431   5.610   3.935  0.00  0.00    +0.140 A 
ATOM     11  N   UNL     1      -0.493   4.735   4.283  0.00  0.00    -0.234 NA
ENDROOT
BRANCH   1  15
ATOM     12  C   UNL     1      -1.224   1.943   0.874  0.00  0.00    -0.047 A 
ATOM     13  C   UNL     1      -1.676   0.960   1.737  0.00  0.00    +0.004 A 
ATOM     14  C   UNL     1      -2.189   1.304   2.970  0.00  0.00    +0.010 A 
ATOM     15  C   UNL     1      -2.262   2.647   3.343  0.00  0.00    +0.001 A 
ATOM     16  C   UNL     1      -1.810   3.633   2.466  0.00  0.00    +0.010 A 
ATOM     17  C   UNL     1      -1.294   3.276   1.238  0.00  0.00    +0.004 A 
BRANCH  12  18
ATOM     18  C   UNL     1      -0.658   1.560  -0.469  0.00  0.00    +0.035 C 
BRANCH  18  20
ATOM     19  C   UNL     1       1.425   0.953  -1.708  0.00  0.00    +0.004 C 
ATOM     20  C   UNL     1       0.851   1.342  -0.344  0.00  0.00    +0.001 C 
ENDBRANCH  18  20
ENDBRANCH  12  18
ENDBRANCH   1  15
BRANCH   9  21
ATOM     21  S   UNL     1       1.615   8.073   3.910  0.00  0.00    -0.004 S 
ATOM     22  O   UNL     1       1.628   9.037   4.955  0.00  0.00    -0.170 OA
ATOM     23  O   UNL     1       2.765   7.282   3.641  0.00  0.00    -0.170 OA
ATOM     24  C   UNL     1       0.997   8.821   2.378  0.00  0.00    +0.200 C 
ENDBRANCH   9  21
BRANCH   3  25
ATOM     25  C   UNL     1      -4.989   2.638   7.622  0.00  0.00    +0.391 C 
ATOM     26  F   UNL     1      -6.279   2.603   7.081  0.00  0.00    -0.202 F 
ATOM     27  F   UNL     1      -4.656   1.371   8.113  0.00  0.00    -0.202 F 
ENDBRANCH   3  25
TORSDOF 5
