REMARK  Name = ZINC02782520
REMARK  13 active torsions:
REMARK  status: ('A' for Active; 'I' for Inactive)
REMARK    1  A    between atoms: C_1  and  C_2
REMARK    2  A    between atoms: C_3  and  C_30
REMARK    3  A    between atoms: C_4  and  N_13
REMARK    4  A    between atoms: C_6  and  C_7
REMARK    5  A    between atoms: C_7  and  O_9
REMARK    6  A    between atoms: O_9  and  C_10
REMARK    7  A    between atoms: C_10  and  C_11
REMARK    8  A    between atoms: C_10  and  C_12
REMARK    9  A    between atoms: C_14  and  C_16
REMARK   10  A    between atoms: C_16  and  C_18
REMARK   11  A    between atoms: C_16  and  N_19
REMARK   12  A    between atoms: C_20  and  C_29
REMARK   13  A    between atoms: C_22  and  C_24
REMARK                            x       y       z     vdW  Elec       q    Type
REMARK                         _______ _______ _______ _____ _____    ______ ____
ROOT
ATOM      1  N   UNL     1       0.463  -6.024   0.186  0.00  0.00    -0.277 N 
ATOM      2  C   UNL     1      -0.686  -6.297  -0.465  0.00  0.00    +0.242 C 
ATOM      3  O   UNL     1      -1.392  -5.391  -0.853  0.00  0.00    -0.273 OA
ATOM      4  H   UNL     1       1.104  -6.846   0.538  0.00  0.00    +0.155 HD
ENDROOT
BRANCH   1   8
ATOM      5  C   UNL     1       3.331  -2.258   1.851  0.00  0.00    +0.046 C 
ATOM      6  C   UNL     1       2.131  -2.860   1.167  0.00  0.00    -0.010 A 
ATOM      7  C   UNL     1       1.975  -4.232   1.061  0.00  0.00    +0.084 A 
ATOM      8  C   UNL     1       0.834  -4.712   0.412  0.00  0.00    +0.090 A 
ATOM      9  S   UNL     1      -0.003  -3.262  -0.035  0.00  0.00    -0.065 S 
ATOM     10  C   UNL     1       1.144  -2.065   0.620  0.00  0.00    +0.102 A 
BRANCH  10  11
ATOM     11  C   UNL     1       1.057  -0.606   0.590  0.00  0.00    +0.346 C 
ATOM     12  O   UNL     1       1.937   0.066   1.095  0.00  0.00    -0.244 OA
BRANCH  11  13
ATOM     13  O   UNL     1       0.002  -0.004   0.002  0.00  0.00    -0.458 OA
BRANCH  13  14
ATOM     14  C   UNL     1      -0.017   1.425   0.010  0.00  0.00    +0.171 C 
ATOM     15  C   UNL     1      -0.757   1.932  -1.230  0.00  0.00    +0.052 C 
ATOM     16  C   UNL     1      -0.733   1.918   1.269  0.00  0.00    +0.052 C 
ENDBRANCH  13  14
ENDBRANCH  11  13
ENDBRANCH  10  11
BRANCH   7  17
ATOM     17  C   UNL     1       2.951  -5.130   1.601  0.00  0.00    +0.102 C 
ATOM     18  N   UNL     1       3.725  -5.842   2.030  0.00  0.00    -0.191 NA
ENDBRANCH   7  17
ENDBRANCH   1   8
BRANCH   2  19
ATOM     19  C   UNL     1      -1.091  -7.727  -0.712  0.00  0.00    +0.190 C 
ATOM     20  C   UNL     1      -1.245  -8.451   0.627  0.00  0.00    +0.042 C 
BRANCH  19  21
ATOM     21  N   UNL     1      -2.366  -7.756  -1.432  0.00  0.00    -0.255 N 
ATOM     22  C   UNL     1      -2.581  -8.307  -2.645  0.00  0.00    +0.051 A 
ATOM     23  C   UNL     1      -3.886  -8.125  -2.956  0.00  0.00    +0.070 A 
ATOM     24  C   UNL     1      -4.489  -7.439  -1.896  0.00  0.00    +0.179 A 
ATOM     25  N   UNL     1      -3.580  -7.222  -0.980  0.00  0.00    -0.165 NA
ATOM     26 BR   UNL     1      -4.742  -8.696  -4.543  0.00  0.00    -0.046 Br
ATOM     27  C   UNL     1      -1.552  -9.001  -3.501  0.00  0.00    +0.066 C 
BRANCH  24  28
ATOM     28  C   UNL     1      -5.936  -7.025  -1.821  0.00  0.00    +0.437 C 
ATOM     29  F   UNL     1      -6.682  -8.047  -1.223  0.00  0.00    -0.164 F 
ATOM     30  F   UNL     1      -6.048  -5.858  -1.058  0.00  0.00    -0.164 F 
ATOM     31  F   UNL     1      -6.421  -6.787  -3.111  0.00  0.00    -0.164 F 
ENDBRANCH  24  28
ENDBRANCH  19  21
ENDBRANCH   2  19
TORSDOF 8
