REMARK  Name = ZINC20755476
REMARK  4 active torsions:
REMARK  status: ('A' for Active; 'I' for Inactive)
REMARK    1  A    between atoms: C_10  and  C_21
REMARK    2  A    between atoms: C_12  and  C_14
REMARK    3  A    between atoms: C_26  and  O_27
REMARK    4  A    between atoms: O_27  and  C_28
REMARK                            x       y       z     vdW  Elec       q    Type
REMARK                         _______ _______ _______ _____ _____    ______ ____
ROOT
ATOM      1  C   UNL     1      -0.016   1.362   0.009  0.00  0.00    +0.002 A 
ATOM      2  C   UNL     1       1.168   2.084   0.002  0.00  0.00    +0.002 A 
ATOM      3  C   UNL     1       2.384   1.434  -0.015  0.00  0.00    +0.028 A 
ATOM      4  C   UNL     1       2.427   0.046  -0.024  0.00  0.00    +0.069 A 
ATOM      5  C   UNL     1       1.223  -0.686  -0.014  0.00  0.00    +0.066 A 
ATOM      6  C   UNL     1       0.002  -0.004   0.002  0.00  0.00    +0.028 A 
ATOM      7  N   UNL     1       1.549  -2.004  -0.019  0.00  0.00    -0.324 N 
ATOM      8  C   UNL     1       2.848  -2.134  -0.033  0.00  0.00    +0.210 A 
ATOM      9  N   UNL     1       3.434  -0.884  -0.045  0.00  0.00    -0.302 N 
ATOM     10  C   UNL     1       4.887  -0.698  -0.082  0.00  0.00    +0.130 C 
ATOM     11  C   UNL     1       5.536  -1.897   0.618  0.00  0.00    +0.086 C 
ATOM     12  C   UNL     1       4.878  -3.183   0.208  0.00  0.00    +0.054 C 
ATOM     13  N   UNL     1       3.602  -3.268  -0.058  0.00  0.00    -0.218 NA
ATOM     14  H   UNL     1       0.914  -2.737  -0.013  0.00  0.00    +0.169 HD
ENDROOT
BRANCH  12  15
ATOM     15  C   UNL     1       5.703  -4.396   0.102  0.00  0.00    -0.003 A 
ATOM     16  C   UNL     1       7.072  -4.342   0.386  0.00  0.00    +0.010 A 
ATOM     17  C   UNL     1       7.839  -5.483   0.284  0.00  0.00    +0.002 A 
ATOM     18  C   UNL     1       7.259  -6.680  -0.097  0.00  0.00    +0.015 A 
ATOM     19  C   UNL     1       5.905  -6.743  -0.380  0.00  0.00    +0.018 A 
ATOM     20  C   UNL     1       5.122  -5.611  -0.277  0.00  0.00    +0.025 A 
ATOM     21 BR   UNL     1       5.124  -8.385  -0.900  0.00  0.00    -0.050 Br
ENDBRANCH  12  15
BRANCH  10  22
ATOM     22  C   UNL     1       5.256   0.574   0.638  0.00  0.00    +0.019 A 
ATOM     23  C   UNL     1       4.943   0.727   1.975  0.00  0.00    +0.029 A 
ATOM     24  C   UNL     1       5.282   1.894   2.636  0.00  0.00    +0.042 A 
ATOM     25  C   UNL     1       5.934   2.910   1.960  0.00  0.00    +0.023 A 
ATOM     26  C   UNL     1       6.249   2.761   0.623  0.00  0.00    +0.047 A 
ATOM     27  C   UNL     1       5.915   1.589  -0.040  0.00  0.00    +0.132 A 
ATOM     28 CL   UNL     1       4.887   2.084   4.316  0.00  0.00    -0.084 Cl
BRANCH  27  29
ATOM     29  O   UNL     1       6.229   1.437  -1.354  0.00  0.00    -0.434 OA
BRANCH  29  30
ATOM     30  C   UNL     1       6.908   2.523  -1.988  0.00  0.00    +0.541 C 
ATOM     31  F   UNL     1       6.113   3.672  -1.921  0.00  0.00    -0.166 F 
ATOM     32  F   UNL     1       8.123   2.759  -1.336  0.00  0.00    -0.166 F 
ENDBRANCH  29  30
ENDBRANCH  27  29
ENDBRANCH  10  22
TORSDOF 4
