REMARK  Name = ZINC05721400
REMARK  5 active torsions:
REMARK  status: ('A' for Active; 'I' for Inactive)
REMARK    1  A    between atoms: C_1  and  C_2
REMARK    2  A    between atoms: C_3  and  C_22
REMARK    3  A    between atoms: C_9  and  C_11
REMARK    4  A    between atoms: C_12  and  N_16
REMARK    5  A    between atoms: C_22  and  C_23
REMARK                            x       y       z     vdW  Elec       q    Type
REMARK                         _______ _______ _______ _____ _____    ______ ____
ROOT
ATOM      1  C   UNL     1      -0.018   1.503   0.010  0.00  0.00    +0.064 C 
ATOM      2  C   UNL     1       0.002  -0.004   0.002  0.00  0.00    +0.023 A 
ATOM      3  C   UNL     1      -1.160  -0.696   0.004  0.00  0.00    +0.042 A 
ATOM      4  C   UNL     1      -1.137  -2.106  -0.004  0.00  0.00    +0.278 A 
ATOM      5  N   UNL     1       0.042  -2.758  -0.014  0.00  0.00    -0.179 N 
ATOM      6  C   UNL     1       1.213  -2.052  -0.016  0.00  0.00    +0.139 A 
ATOM      7  N   UNL     1       1.191  -0.669  -0.013  0.00  0.00    -0.343 N 
ATOM      8  C   UNL     1       2.235  -2.949  -0.025  0.00  0.00    +0.077 A 
ATOM      9  C   UNL     1       1.675  -4.241  -0.030  0.00  0.00    +0.104 A 
ATOM     10  N   UNL     1       0.361  -4.122  -0.023  0.00  0.00    -0.161 NA
ATOM     11  O   UNL     1      -2.182  -2.733  -0.003  0.00  0.00    -0.265 OA
ATOM     12  H   UNL     1       2.024  -0.172  -0.018  0.00  0.00    +0.167 HD
ENDROOT
BRANCH   9  13
ATOM     13  C   UNL     1       2.429  -5.511  -0.041  0.00  0.00    +0.063 A 
ATOM     14  C   UNL     1       1.950  -6.809  -0.051  0.00  0.00    +0.062 A 
ATOM     15  C   UNL     1       2.866  -7.844  -0.061  0.00  0.00    +0.034 A 
ATOM     16  C   UNL     1       4.191  -7.556  -0.060  0.00  0.00    +0.048 A 
ATOM     17  S   UNL     1       4.195  -5.771  -0.052  0.00  0.00    -0.093 S 
BRANCH  14  18
ATOM     18  N   UNL     1       0.569  -7.068  -0.052  0.00  0.00    -0.322 N 
ATOM     19  C   UNL     1      -0.344  -6.518   0.800  0.00  0.00    +0.091 A 
ATOM     20  C   UNL     1      -1.561  -7.010   0.489  0.00  0.00    +0.019 A 
ATOM     21  C   UNL     1      -1.395  -7.896  -0.593  0.00  0.00    +0.019 A 
ATOM     22  C   UNL     1      -0.083  -7.908  -0.908  0.00  0.00    +0.091 A 
ENDBRANCH  14  18
ENDBRANCH   9  13
BRANCH   3  23
ATOM     23  C   UNL     1      -2.476   0.038   0.015  0.00  0.00    +0.077 C 
BRANCH  23  24
ATOM     24  C   UNL     1      -2.982   0.183  -1.397  0.00  0.00    -0.043 A 
ATOM     25  C   UNL     1      -2.629   1.289  -2.147  0.00  0.00    +0.004 A 
ATOM     26  C   UNL     1      -3.094   1.422  -3.443  0.00  0.00    +0.000 A 
ATOM     27  C   UNL     1      -3.911   0.449  -3.987  0.00  0.00    +0.000 A 
ATOM     28  C   UNL     1      -4.263  -0.657  -3.237  0.00  0.00    +0.000 A 
ATOM     29  C   UNL     1      -3.795  -0.793  -1.944  0.00  0.00    +0.004 A 
ENDBRANCH  23  24
ENDBRANCH   3  23
TORSDOF 4
