REMARK  Name = ZINC63140602
REMARK  14 active torsions:
REMARK  status: ('A' for Active; 'I' for Inactive)
REMARK    1  A    between atoms: C_1  and  C_2
REMARK    2  A    between atoms: C_2  and  O_3
REMARK    3  A    between atoms: O_3  and  C_4
REMARK    4  A    between atoms: C_9  and  C_10
REMARK    5  A    between atoms: N_29  and  C_32
REMARK    6  A    between atoms: C_32  and  C_33
REMARK    7  A    between atoms: C_33  and  C_34
REMARK    8  A    between atoms: C_34  and  C_35
REMARK    9  A    between atoms: C_35  and  O_36
REMARK   10  A    between atoms: C_35  and  O_39
REMARK   11  A    between atoms: O_36  and  C_37
REMARK   12  A    between atoms: C_37  and  C_38
REMARK   13  A    between atoms: O_39  and  C_40
REMARK   14  A    between atoms: C_40  and  C_41
REMARK                            x       y       z     vdW  Elec       q    Type
REMARK                         _______ _______ _______ _____ _____    ______ ____
ROOT
ATOM      1  C   UNL     1       1.608  -1.913   4.068  0.00  0.00    +0.137 C 
ATOM      2  C   UNL     1       0.573  -1.528   5.128  0.00  0.00    +0.131 C 
ATOM      3  C   UNL     1       1.326  -0.790   6.228  0.00  0.00    -0.034 C 
ATOM      4  C   UNL     1       0.728   0.387   6.367  0.00  0.00    -0.001 A 
ATOM      5  C   UNL     1       0.954   1.495   7.310  0.00  0.00    +0.010 A 
ATOM      6  C   UNL     1       0.151   2.582   7.161  0.00  0.00    +0.001 A 
ATOM      7  C   UNL     1      -0.841   2.676   6.180  0.00  0.00    +0.002 A 
ATOM      8  C   UNL     1      -1.121   1.704   5.275  0.00  0.00    +0.026 A 
ATOM      9  C   UNL     1      -0.346   0.509   5.335  0.00  0.00    +0.043 A 
ATOM     10  N   UNL     1      -0.421  -0.588   4.606  0.00  0.00    -0.375 N 
ATOM     11  C   UNL     1       2.553  -1.365   6.893  0.00  0.00    +0.065 C 
ATOM     12  C   UNL     1       3.494  -1.817   5.763  0.00  0.00    +0.167 C 
ATOM     13  N   UNL     1       2.742  -2.565   4.761  0.00  0.00    -0.279 N 
ATOM     14  C   UNL     1       3.031  -3.831   4.436  0.00  0.00    +0.234 C 
ATOM     15  O   UNL     1       2.333  -4.372   3.605  0.00  0.00    -0.274 OA
ATOM     16  C   UNL     1       4.152  -4.623   5.022  0.00  0.00    +0.203 C 
ATOM     17  N   UNL     1       4.914  -3.859   5.996  0.00  0.00    -0.291 N 
ATOM     18  C   UNL     1       4.627  -2.604   6.336  0.00  0.00    +0.237 C 
ATOM     19  O   UNL     1       5.332  -2.064   7.161  0.00  0.00    -0.274 OA
ATOM     20  H   UNL     1      -1.017  -0.751   3.858  0.00  0.00    +0.160 HD
ENDROOT
BRANCH   1  26
ATOM     21  C   UNL     1       1.536  -2.999   1.809  0.00  0.00    +0.125 A 
ATOM     22  C   UNL     1       0.971  -3.886   0.903  0.00  0.00    +0.046 A 
ATOM     23  C   UNL     1      -0.131  -4.635   1.267  0.00  0.00    +0.004 A 
ATOM     24  C   UNL     1      -0.672  -4.502   2.532  0.00  0.00    +0.001 A 
ATOM     25  C   UNL     1      -0.112  -3.619   3.437  0.00  0.00    +0.009 A 
ATOM     26  C   UNL     1       0.994  -2.871   3.079  0.00  0.00    +0.017 A 
BRANCH  21  27
ATOM     27  O   UNL     1       2.620  -2.261   1.454  0.00  0.00    -0.492 OA
BRANCH  27  29
ATOM     28  C   UNL     1       4.337  -1.537  -0.086  0.00  0.00    +0.048 C 
ATOM     29  C   UNL     1       3.124  -2.445   0.129  0.00  0.00    +0.225 C 
ENDBRANCH  27  29
ENDBRANCH  21  27
ENDBRANCH   1  26
BRANCH  17  30
ATOM     30  C   UNL     1       6.060  -4.506   6.640  0.00  0.00    +0.108 C 
BRANCH  30  31
ATOM     31  C   UNL     1       7.321  -4.252   5.812  0.00  0.00    +0.024 C 
BRANCH  31  32
ATOM     32  C   UNL     1       8.517  -4.928   6.485  0.00  0.00    +0.063 C 
BRANCH  32  33
ATOM     33  C   UNL     1       9.779  -4.674   5.657  0.00  0.00    +0.250 C 
BRANCH  33  34
ATOM     34  O   UNL     1      10.080  -3.277   5.665  0.00  0.00    -0.352 OA
BRANCH  34  35
ATOM     35  C   UNL     1      11.006  -2.877   4.653  0.00  0.00    +0.159 C 
ATOM     36  C   UNL     1      11.135  -1.353   4.653  0.00  0.00    +0.034 C 
ENDBRANCH  34  35
ENDBRANCH  33  34
BRANCH  33  37
ATOM     37  O   UNL     1      10.873  -5.401   6.221  0.00  0.00    -0.352 OA
BRANCH  37  38
ATOM     38  C   UNL     1      11.908  -5.710   5.286  0.00  0.00    +0.159 C 
ATOM     39  C   UNL     1      12.943  -6.618   5.954  0.00  0.00    +0.034 C 
ENDBRANCH  37  38
ENDBRANCH  33  37
ENDBRANCH  32  33
ENDBRANCH  31  32
ENDBRANCH  30  31
ENDBRANCH  17  30
TORSDOF 11
