REMARK  Name = ZINC00708131
REMARK  15 active torsions:
REMARK  status: ('A' for Active; 'I' for Inactive)
REMARK    1  A    between atoms: C_1  and  C_2
REMARK    2  A    between atoms: C_2  and  O_3
REMARK    3  A    between atoms: O_3  and  C_4
REMARK    4  A    between atoms: C_6  and  C_11
REMARK    5  A    between atoms: C_9  and  O_10
REMARK    6  A    between atoms: C_18  and  C_37
REMARK    7  A    between atoms: C_19  and  C_32
REMARK    8  A    between atoms: C_20  and  C_22
REMARK    9  A    between atoms: C_25  and  O_30
REMARK   10  A    between atoms: C_27  and  O_28
REMARK   11  A    between atoms: O_28  and  C_29
REMARK   12  A    between atoms: O_30  and  C_31
REMARK   13  A    between atoms: C_32  and  O_34
REMARK   14  A    between atoms: O_34  and  C_35
REMARK   15  A    between atoms: C_35  and  C_36
REMARK                            x       y       z     vdW  Elec       q    Type
REMARK                         _______ _______ _______ _____ _____    ______ ____
ROOT
ATOM      1  C   UNL     1       4.458   0.683  -3.420  0.00  0.00    +0.028 C 
ATOM      2  C   UNL     1       4.354   1.542  -2.373  0.00  0.00    +0.081 A 
ATOM      3  C   UNL     1       3.295   2.511  -2.061  0.00  0.00    +0.268 A 
ATOM      4  O   UNL     1       2.327   2.637  -2.788  0.00  0.00    -0.266 OA
ATOM      5  N   UNL     1       3.426   3.251  -0.952  0.00  0.00    -0.275 N 
ATOM      6  C   UNL     1       4.540   3.069  -0.165  0.00  0.00    +0.178 A 
ATOM      7  N   UNL     1       4.774   3.734   0.938  0.00  0.00    -0.228 NA
ATOM      8  C   UNL     1       3.978   4.667   1.444  0.00  0.00    +0.053 C 
ATOM      9  C   UNL     1       2.813   5.003   0.812  0.00  0.00    +0.085 C 
ATOM     10  C   UNL     1       2.465   4.282  -0.469  0.00  0.00    +0.165 C 
ATOM     11  C   UNL     1       4.361   5.363   2.724  0.00  0.00    +0.066 C 
ATOM     12  S   UNL     1       5.468   1.797  -1.000  0.00  0.00    -0.046 S 
ENDROOT
BRANCH   1  15
ATOM     13  C   UNL     1       6.871  -1.914  -4.642  0.00  0.00    +0.162 A 
ATOM     14  C   UNL     1       5.700  -1.208  -4.449  0.00  0.00    +0.057 A 
ATOM     15  C   UNL     1       5.699  -0.072  -3.630  0.00  0.00    -0.020 A 
ATOM     16  C   UNL     1       6.888   0.345  -3.018  0.00  0.00    +0.012 A 
ATOM     17  C   UNL     1       8.049  -0.369  -3.212  0.00  0.00    +0.050 A 
ATOM     18  C   UNL     1       8.049  -1.496  -4.024  0.00  0.00    +0.158 A 
BRANCH  18  19
ATOM     19  O   UNL     1       9.199  -2.192  -4.216  0.00  0.00    -0.503 OA
ATOM     20  H   UNL     1      10.129  -1.863  -3.729  0.00  0.00    +0.292 HD
ENDBRANCH  18  19
BRANCH  13  21
ATOM     21  O   UNL     1       6.876  -3.018  -5.436  0.00  0.00    -0.489 OA
BRANCH  21  23
ATOM     22  C   UNL     1       5.835  -4.646  -6.888  0.00  0.00    +0.048 C 
ATOM     23  C   UNL     1       5.634  -3.390  -6.038  0.00  0.00    +0.226 C 
ENDBRANCH  21  23
ENDBRANCH  13  21
ENDBRANCH   1  15
BRANCH  10  24
ATOM     24  C   UNL     1       1.128   3.615  -0.278  0.00  0.00    +0.022 A 
ATOM     25  C   UNL     1       1.064   2.325   0.214  0.00  0.00    +0.013 A 
ATOM     26  C   UNL     1      -0.161   1.710   0.391  0.00  0.00    +0.046 A 
ATOM     27  C   UNL     1      -1.330   2.385   0.070  0.00  0.00    +0.124 A 
ATOM     28  C   UNL     1      -1.269   3.681  -0.419  0.00  0.00    +0.091 A 
ATOM     29  C   UNL     1      -0.039   4.295  -0.595  0.00  0.00    +0.129 A 
BRANCH  29  30
ATOM     30  O   UNL     1       0.024   5.564  -1.079  0.00  0.00    -0.495 OA
ATOM     31  C   UNL     1      -1.217   6.237  -1.298  0.00  0.00    +0.277 C 
ENDBRANCH  29  30
BRANCH  27  32
ATOM     32  O   UNL     1      -2.534   1.778   0.238  0.00  0.00    -0.495 OA
ATOM     33  C   UNL     1      -2.522   0.444   0.750  0.00  0.00    +0.277 C 
ENDBRANCH  27  32
ENDBRANCH  10  24
BRANCH   9  34
ATOM     34  C   UNL     1       1.963   5.989   1.340  0.00  0.00    +0.339 C 
ATOM     35  O   UNL     1       1.966   7.111   0.868  0.00  0.00    -0.245 OA
BRANCH  34  36
ATOM     36  O   UNL     1       1.144   5.692   2.373  0.00  0.00    -0.462 OA
BRANCH  36  37
ATOM     37  C   UNL     1       0.230   6.709   2.788  0.00  0.00    +0.229 C 
ATOM     38  C   UNL     1      -0.688   6.155   3.879  0.00  0.00    +0.048 C 
ENDBRANCH  36  37
ENDBRANCH  34  36
ENDBRANCH   9  34
TORSDOF 10
