REMARK  Name = ZINC08917845
REMARK  16 active torsions:
REMARK  status: ('A' for Active; 'I' for Inactive)
REMARK    1  A    between atoms: C_1  and  C_2
REMARK    2  A    between atoms: C_2  and  C_4
REMARK    3  A    between atoms: C_2  and  N_14
REMARK    4  A    between atoms: N_6  and  C_7
REMARK    5  A    between atoms: C_15  and  C_17
REMARK    6  A    between atoms: C_23  and  C_25
REMARK    7  A    between atoms: C_25  and  C_27
REMARK    8  A    between atoms: C_25  and  N_31
REMARK    9  A    between atoms: C_27  and  C_28
REMARK   10  A    between atoms: C_28  and  C_29
REMARK   11  A    between atoms: C_28  and  C_30
REMARK   12  A    between atoms: C_32  and  O_34
REMARK   13  A    between atoms: O_34  and  C_35
REMARK   14  A    between atoms: C_35  and  C_36
REMARK   15  A    between atoms: C_35  and  C_37
REMARK   16  A    between atoms: C_35  and  C_38
REMARK                            x       y       z     vdW  Elec       q    Type
REMARK                         _______ _______ _______ _____ _____    ______ ____
ROOT
ATOM      1  C   UNL     1      -0.113  -1.538   3.373  0.00  0.00    +0.078 C 
ATOM      2  C   UNL     1       0.751  -2.785   3.171  0.00  0.00    +0.032 C 
ATOM      3  C   UNL     1       1.702  -2.941   4.362  0.00  0.00    +0.108 C 
ATOM      4  N   UNL     1       0.912  -2.948   5.600  0.00  0.00    -0.300 N 
ATOM      5  C   UNL     1      -0.020  -1.840   5.851  0.00  0.00    +0.108 C 
ATOM      6  C   UNL     1      -0.952  -1.696   4.643  0.00  0.00    +0.032 C 
ATOM      7  C   UNL     1       1.038  -3.953   6.490  0.00  0.00    +0.236 C 
ATOM      8  O   UNL     1       1.882  -4.808   6.322  0.00  0.00    -0.274 OA
ENDROOT
BRANCH   1  10
ATOM      9  N   UNL     1      -0.506  -1.204   0.954  0.00  0.00    -0.304 N 
ATOM     10  C   UNL     1      -1.026  -1.363   2.187  0.00  0.00    +0.217 C 
ATOM     11  O   UNL     1      -2.229  -1.364   2.343  0.00  0.00    -0.275 OA
ATOM     12  H   UNL     1       0.456  -1.203   0.829  0.00  0.00    +0.149 HD
BRANCH   9  14
ATOM     13  C   UNL     1      -1.780   0.441  -0.332  0.00  0.00    +0.038 C 
ATOM     14  C   UNL     1      -1.394  -1.033  -0.199  0.00  0.00    +0.156 C 
BRANCH  14  15
ATOM     15  C   UNL     1      -0.685  -1.482  -1.450  0.00  0.00    +0.237 C 
ATOM     16  O   UNL     1       0.451  -1.902  -1.386  0.00  0.00    -0.273 OA
ATOM     17  N   UNL     1      -1.312  -1.415  -2.642  0.00  0.00    -0.284 N 
ATOM     18  H   UNL     1      -2.242  -1.145  -2.685  0.00  0.00    +0.155 HD
BRANCH  17  19
ATOM     19  C   UNL     1      -0.620  -1.736  -3.816  0.00  0.00    +0.034 A 
ATOM     20  C   UNL     1      -0.882  -1.041  -4.989  0.00  0.00    +0.026 A 
ATOM     21  C   UNL     1      -0.199  -1.360  -6.146  0.00  0.00    +0.040 A 
ATOM     22  C   UNL     1       0.747  -2.371  -6.138  0.00  0.00    +0.124 A 
ATOM     23  C   UNL     1       1.010  -3.065  -4.968  0.00  0.00    +0.040 A 
ATOM     24  C   UNL     1       0.333  -2.746  -3.808  0.00  0.00    +0.026 A 
ATOM     25  F   UNL     1       1.413  -2.682  -7.271  0.00  0.00    -0.205 F 
ENDBRANCH  17  19
ENDBRANCH  14  15
ENDBRANCH   9  14
ENDBRANCH   1  10
BRANCH   7  26
ATOM     26  C   UNL     1       0.132  -4.013   7.692  0.00  0.00    +0.162 C 
BRANCH  26  27
ATOM     27  N   UNL     1       0.176  -5.359   8.270  0.00  0.00    -0.270 N 
ATOM     28  C   UNL     1      -0.865  -5.816   8.993  0.00  0.00    +0.401 C 
ATOM     29  O   UNL     1      -1.840  -5.112   9.167  0.00  0.00    -0.226 OA
ATOM     30  H   UNL     1       0.954  -5.921   8.131  0.00  0.00    +0.153 HD
BRANCH  28  31
ATOM     31  O   UNL     1      -0.825  -7.053   9.524  0.00  0.00    -0.445 OA
BRANCH  31  32
ATOM     32  C   UNL     1      -1.963  -7.472  10.279  0.00  0.00    +0.107 C 
ATOM     33  C   UNL     1      -3.205  -7.448   9.386  0.00  0.00    +0.055 C 
ATOM     34  C   UNL     1      -1.736  -8.893  10.798  0.00  0.00    +0.055 C 
ATOM     35  C   UNL     1      -2.167  -6.524  11.463  0.00  0.00    +0.055 C 
ENDBRANCH  31  32
ENDBRANCH  28  31
ENDBRANCH  26  27
BRANCH  26  36
ATOM     36  C   UNL     1       0.600  -2.996   8.735  0.00  0.00    +0.035 C 
BRANCH  36  37
ATOM     37  C   UNL     1      -0.407  -2.945   9.886  0.00  0.00    -0.015 C 
ATOM     38  C   UNL     1       0.121  -2.022  10.986  0.00  0.00    +0.007 C 
ATOM     39  C   UNL     1      -1.745  -2.411   9.370  0.00  0.00    +0.007 C 
ENDBRANCH  36  37
ENDBRANCH  26  36
ENDBRANCH   7  26
TORSDOF 10
