REMARK  Name = ZINC13063931
REMARK  11 active torsions:
REMARK  status: ('A' for Active; 'I' for Inactive)
REMARK    1  A    between atoms: C_1  and  C_2
REMARK    2  A    between atoms: C_2  and  C_3
REMARK    3  A    between atoms: C_3  and  C_5
REMARK    4  A    between atoms: C_3  and  N_66
REMARK    5  A    between atoms: N_9  and  C_10
REMARK    6  A    between atoms: C_10  and  C_11
REMARK    7  A    between atoms: C_18  and  C_19
REMARK    8  A    between atoms: C_18  and  N_66
REMARK    9  A    between atoms: C_26  and  C_27
REMARK   10  A    between atoms: C_26  and  N_66
REMARK   11  A    between atoms: C_32  and  C_39
REMARK                            x       y       z     vdW  Elec       q    Type
REMARK                         _______ _______ _______ _____ _____    ______ ____
ROOT
ATOM      1  N   UNL     1       0.862   4.146  -1.165  0.00  0.00    +0.392 N 
ATOM      2  H   UNL     1      -0.043   4.578  -0.945  0.00  0.00    -0.080 HD
ENDROOT
BRANCH   1   3
ATOM      3  C   UNL     1       1.108   3.039  -0.217  0.00  0.00    +0.003 C 
BRANCH   3   4
ATOM      4  C   UNL     1       0.138   1.921  -0.501  0.00  0.00    +0.138 A 
ATOM      5  N   UNL     1      -1.144   2.041  -0.745  0.00  0.00    -0.115 NA
ATOM      6  N   UNL     1      -1.625   0.861  -0.939  0.00  0.00    -0.023 NA
ATOM      7  N   UNL     1      -0.682  -0.008  -0.825  0.00  0.00    -0.044 NA
ATOM      8  N   UNL     1       0.420   0.606  -0.556  0.00  0.00    -0.226 N 
BRANCH   8   9
ATOM      9  C   UNL     1       1.732  -0.011  -0.349  0.00  0.00    +0.182 C 
BRANCH   9  10
ATOM     10  C   UNL     1       2.456  -0.106  -1.667  0.00  0.00    -0.026 A 
ATOM     11  C   UNL     1       2.313  -1.234  -2.454  0.00  0.00    +0.008 A 
ATOM     12  C   UNL     1       2.973  -1.320  -3.666  0.00  0.00    +0.038 A 
ATOM     13  C   UNL     1       3.786  -0.282  -4.086  0.00  0.00    +0.123 A 
ATOM     14  C   UNL     1       3.933   0.845  -3.295  0.00  0.00    +0.038 A 
ATOM     15  C   UNL     1       3.268   0.931  -2.086  0.00  0.00    +0.008 A 
ATOM     16  F   UNL     1       4.434  -0.367  -5.268  0.00  0.00    -0.205 F 
ENDBRANCH   9  10
ENDBRANCH   8   9
ENDBRANCH   3   4
BRANCH   3  18
ATOM     17  C   UNL     1       1.252   2.450   2.207  0.00  0.00    +0.002 C 
ATOM     18  C   UNL     1       0.891   3.552   1.208  0.00  0.00    -0.011 C 
ENDBRANCH   3  18
ENDBRANCH   1   3
BRANCH   1  19
ATOM     19  C   UNL     1       0.823   3.627  -2.548  0.00  0.00    -0.042 C 
BRANCH  19  20
ATOM     20  C   UNL     1       0.149   4.649  -3.428  0.00  0.00    -0.064 A 
ATOM     21  C   UNL     1      -1.230   4.699  -3.496  0.00  0.00    +0.004 A 
ATOM     22  C   UNL     1      -1.849   5.638  -4.299  0.00  0.00    +0.038 A 
ATOM     23  C   UNL     1      -1.087   6.522  -5.043  0.00  0.00    +0.123 A 
ATOM     24  C   UNL     1       0.295   6.468  -4.978  0.00  0.00    +0.038 A 
ATOM     25  C   UNL     1       0.912   5.531  -4.171  0.00  0.00    +0.004 A 
ATOM     26  F   UNL     1      -1.690   7.438  -5.832  0.00  0.00    -0.205 F 
ENDBRANCH  19  20
ENDBRANCH   1  19
BRANCH   1  27
ATOM     27  C   UNL     1       1.924   5.166  -1.037  0.00  0.00    -0.036 C 
BRANCH  27  28
ATOM     28  C   UNL     1       3.280   4.549  -1.267  0.00  0.00    +0.001 A 
ATOM     29  C   UNL     1       3.835   4.579  -2.503  0.00  0.00    +0.017 A 
ATOM     30  C   UNL     1       5.153   3.971  -2.693  0.00  0.00    -0.001 A 
ATOM     31  C   UNL     1       5.776   3.972  -3.946  0.00  0.00    +0.010 A 
ATOM     32  C   UNL     1       7.007   3.396  -4.090  0.00  0.00    +0.004 A 
ATOM     33  C   UNL     1       7.644   2.810  -3.005  0.00  0.00    -0.048 A 
ATOM     34  C   UNL     1       7.049   2.798  -1.762  0.00  0.00    +0.029 A 
ATOM     35  C   UNL     1       5.796   3.378  -1.591  0.00  0.00    +0.049 A 
ATOM     36  N   UNL     1       5.177   3.380  -0.359  0.00  0.00    -0.322 N 
ATOM     37  H   UNL     1       5.622   2.971   0.400  0.00  0.00    +0.169 HD
ATOM     38  C   UNL     1       3.969   3.946  -0.193  0.00  0.00    +0.251 A 
ATOM     39  O   UNL     1       3.454   3.934   0.912  0.00  0.00    -0.268 OA
ATOM     40  C   UNL     1       9.001   2.181  -3.188  0.00  0.00    +0.044 C 
ENDBRANCH  27  28
ENDBRANCH   1  27
TORSDOF 9
