REMARK  Name = ZINC41648407
REMARK  6 active torsions:
REMARK  status: ('A' for Active; 'I' for Inactive)
REMARK    1  A    between atoms: C_1  and  C_2
REMARK    2  A    between atoms: C_11  and  C_12
REMARK    3  A    between atoms: C_15  and  N_18
REMARK    4  A    between atoms: N_23  and  C_26
REMARK    5  A    between atoms: C_26  and  C_27
REMARK    6  A    between atoms: C_27  and  C_28
REMARK                            x       y       z     vdW  Elec       q    Type
REMARK                         _______ _______ _______ _____ _____    ______ ____
ROOT
ATOM      1  C   UNL     1      -1.604   1.436   0.268  0.00  0.00    +0.045 C 
ATOM      2  C   UNL     1      -1.286  -0.035   0.189  0.00  0.00    -0.033 A 
ATOM      3  C   UNL     1      -1.388  -0.693  -1.003  0.00  0.00    +0.050 A 
ATOM      4  C   UNL     1      -1.093  -2.054  -1.084  0.00  0.00    +0.131 A 
ATOM      5  C   UNL     1      -0.694  -2.752   0.043  0.00  0.00    +0.051 A 
ATOM      6  C   UNL     1      -0.588  -2.097   1.265  0.00  0.00    +0.148 A 
ATOM      7  C   UNL     1      -0.882  -0.726   1.331  0.00  0.00    +0.071 A 
ATOM      8  C   UNL     1      -0.672  -0.322   2.733  0.00  0.00    +0.232 C 
ATOM      9  O   UNL     1      -0.820   0.785   3.221  0.00  0.00    -0.283 OA
ATOM     10  C   UNL     1      -0.244  -1.556   3.412  0.00  0.00    +0.176 C 
ATOM     11  C   UNL     1       0.068  -1.682   4.725  0.00  0.00    +0.058 C 
ATOM     12  O   UNL     1      -0.229  -2.546   2.488  0.00  0.00    -0.451 OA
ATOM     13  C   UNL     1      -0.365  -4.221  -0.033  0.00  0.00    +0.130 C 
ATOM     14  N   UNL     1      -0.925  -4.788  -1.268  0.00  0.00    -0.266 NA
ATOM     15  C   UNL     1      -0.561  -3.949  -2.421  0.00  0.00    +0.318 C 
ATOM     16  O   UNL     1      -1.207  -2.681  -2.285  0.00  0.00    -0.476 OA
ENDROOT
BRANCH  11  17
ATOM     17  C   UNL     1       0.170  -0.486   5.574  0.00  0.00    -0.021 A 
ATOM     18  C   UNL     1      -0.317  -0.511   6.886  0.00  0.00    +0.010 A 
ATOM     19  C   UNL     1      -0.216   0.615   7.675  0.00  0.00    +0.033 A 
ATOM     20  C   UNL     1       0.363   1.768   7.173  0.00  0.00    +0.126 A 
ATOM     21  C   UNL     1       0.847   1.800   5.877  0.00  0.00    +0.033 A 
ATOM     22  C   UNL     1       0.760   0.682   5.076  0.00  0.00    +0.010 A 
BRANCH  20  23
ATOM     23  N   UNL     1       0.466   2.972   8.028  0.00  0.00    +0.056 N 
ATOM     24  O   UNL     1       0.044   2.947   9.161  0.00  0.00    -0.126 OA
ATOM     25  O   UNL     1       0.972   3.980   7.593  0.00  0.00    -0.126 OA
ENDBRANCH  20  23
ENDBRANCH  11  17
BRANCH  14  26
ATOM     26  C   UNL     1      -0.475  -6.173  -1.462  0.00  0.00    +0.092 C 
BRANCH  26  27
ATOM     27  C   UNL     1      -1.264  -6.809  -2.608  0.00  0.00    +0.052 C 
BRANCH  27  28
ATOM     28  C   UNL     1      -0.803  -8.230  -2.807  0.00  0.00    -0.028 A 
ATOM     29  C   UNL     1       0.168  -8.516  -3.749  0.00  0.00    +0.006 A 
ATOM     30  C   UNL     1       0.591  -9.819  -3.932  0.00  0.00    +0.020 A 
ATOM     31  C   UNL     1       0.044 -10.838  -3.173  0.00  0.00    +0.042 A 
ATOM     32  C   UNL     1      -0.927 -10.553  -2.230  0.00  0.00    +0.040 A 
ATOM     33  C   UNL     1      -1.347  -9.247  -2.044  0.00  0.00    +0.046 A 
ATOM     34 CL   UNL     1      -2.562  -8.887  -0.857  0.00  0.00    -0.083 Cl
ATOM     35 CL   UNL     1       0.575 -12.474  -3.403  0.00  0.00    -0.083 Cl
ENDBRANCH  27  28
ENDBRANCH  26  27
ENDBRANCH  14  26
TORSDOF 5
