REMARK  Name = ZINC13098878
REMARK  6 active torsions:
REMARK  status: ('A' for Active; 'I' for Inactive)
REMARK    1  A    between atoms: N_9  and  C_27
REMARK    2  A    between atoms: C_10  and  S_12
REMARK    3  A    between atoms: S_12  and  C_13
REMARK    4  A    between atoms: C_13  and  C_14
REMARK    5  A    between atoms: C_14  and  C_15
REMARK    6  A    between atoms: C_15  and  N_16
REMARK                            x       y       z     vdW  Elec       q    Type
REMARK                         _______ _______ _______ _____ _____    ______ ____
ROOT
ATOM      1  C   UNL     1       2.190   1.426   0.895  0.00  0.00    +0.001 A 
ATOM      2  C   UNL     1       1.080   2.088   0.386  0.00  0.00    +0.002 A 
ATOM      3  C   UNL     1       0.004   1.393  -0.089  0.00  0.00    +0.028 A 
ATOM      4  C   UNL     1       0.016  -0.004  -0.063  0.00  0.00    +0.079 A 
ATOM      5  C   UNL     1       1.147  -0.675   0.457  0.00  0.00    +0.065 A 
ATOM      6  C   UNL     1       2.231   0.059   0.935  0.00  0.00    +0.015 A 
ATOM      7  C   UNL     1       1.136  -2.143   0.473  0.00  0.00    +0.267 A 
ATOM      8  O   UNL     1       2.080  -2.777   0.908  0.00  0.00    -0.267 OA
ATOM      9  N   UNL     1       0.037  -2.766  -0.013  0.00  0.00    -0.255 N 
ATOM     10  C   UNL     1      -1.014  -2.038  -0.498  0.00  0.00    +0.177 A 
ATOM     11  N   UNL     1      -1.025  -0.728  -0.522  0.00  0.00    -0.223 NA
ENDROOT
BRANCH   9  12
ATOM     12  C   UNL     1      -0.024  -4.166  -0.020  0.00  0.00    +0.053 A 
ATOM     13  C   UNL     1      -0.546  -4.845   1.073  0.00  0.00    +0.029 A 
ATOM     14  C   UNL     1      -0.610  -6.224   1.063  0.00  0.00    +0.042 A 
ATOM     15  C   UNL     1      -0.144  -6.932  -0.032  0.00  0.00    +0.142 A 
ATOM     16  C   UNL     1       0.382  -6.258  -1.122  0.00  0.00    +0.078 A 
ATOM     17  C   UNL     1       0.443  -4.877  -1.117  0.00  0.00    +0.049 A 
ATOM     18 CL   UNL     1       0.966  -7.147  -2.494  0.00  0.00    -0.081 Cl
ATOM     19  F   UNL     1      -0.203  -8.282  -0.038  0.00  0.00    -0.204 F 
ENDBRANCH   9  12
BRANCH  10  20
ATOM     20  S   UNL     1      -2.419  -2.901  -1.120  0.00  0.00    -0.087 S 
BRANCH  20  21
ATOM     21  C   UNL     1      -3.457  -1.502  -1.609  0.00  0.00    +0.079 C 
BRANCH  21  22
ATOM     22  C   UNL     1      -4.771  -2.022  -2.195  0.00  0.00    +0.033 C 
BRANCH  22  23
ATOM     23  C   UNL     1      -5.649  -0.839  -2.609  0.00  0.00    +0.128 C 
BRANCH  23  24
ATOM     24  N   UNL     1      -6.907  -1.337  -3.170  0.00  0.00    -0.292 N 
ATOM     25  C   UNL     1      -7.144  -1.624  -4.512  0.00  0.00    +0.070 A 
ATOM     26  C   UNL     1      -6.358  -1.559  -5.652  0.00  0.00    +0.028 A 
ATOM     27  C   UNL     1      -6.886  -1.927  -6.873  0.00  0.00    +0.002 A 
ATOM     28  C   UNL     1      -8.196  -2.366  -6.963  0.00  0.00    +0.002 A 
ATOM     29  C   UNL     1      -8.986  -2.439  -5.832  0.00  0.00    +0.028 A 
ATOM     30  C   UNL     1      -8.463  -2.072  -4.602  0.00  0.00    +0.067 A 
ATOM     31  N   UNL     1      -8.990  -2.034  -3.313  0.00  0.00    -0.306 N 
ATOM     32  H   UNL     1      -9.892  -2.286  -3.060  0.00  0.00    +0.170 HD
ATOM     33  C   UNL     1      -8.033  -1.589  -2.476  0.00  0.00    +0.328 A 
ATOM     34  O   UNL     1      -8.166  -1.439  -1.276  0.00  0.00    -0.247 OA
ENDBRANCH  23  24
ENDBRANCH  22  23
ENDBRANCH  21  22
ENDBRANCH  20  21
ENDBRANCH  10  20
TORSDOF 6
