REMARK  Name = ZINC35725883
REMARK  7 active torsions:
REMARK  status: ('A' for Active; 'I' for Inactive)
REMARK    1  A    between atoms: C_1  and  N_2
REMARK    2  A    between atoms: C_6  and  C_7
REMARK    3  A    between atoms: C_9  and  C_20
REMARK    4  A    between atoms: N_10  and  C_12
REMARK    5  A    between atoms: N_22  and  C_23
REMARK    6  A    between atoms: C_23  and  C_24
REMARK    7  A    between atoms: C_24  and  C_25
REMARK                            x       y       z     vdW  Elec       q    Type
REMARK                         _______ _______ _______ _____ _____    ______ ____
ROOT
ATOM      1  C   UNL     1       0.108  -0.468   2.581  0.00  0.00    +0.110 A 
ATOM      2  C   UNL     1       0.308   0.901   2.823  0.00  0.00    +0.064 A 
ATOM      3  C   UNL     1       0.559   1.054   4.169  0.00  0.00    +0.130 A 
ATOM      4  N   UNL     1       0.513  -0.193   4.736  0.00  0.00    -0.227 N 
ATOM      5  N   UNL     1       0.226  -1.117   3.724  0.00  0.00    -0.164 NA
ENDROOT
BRANCH   4   6
ATOM      6  C   UNL     1       0.713  -0.490   6.089  0.00  0.00    +0.068 A 
ATOM      7  C   UNL     1       0.075   0.262   7.068  0.00  0.00    +0.029 A 
ATOM      8  C   UNL     1       0.273  -0.033   8.402  0.00  0.00    +0.023 A 
ATOM      9  C   UNL     1       1.106  -1.077   8.766  0.00  0.00    +0.059 A 
ATOM     10  C   UNL     1       1.743  -1.828   7.793  0.00  0.00    +0.061 A 
ATOM     11  C   UNL     1       1.544  -1.540   6.455  0.00  0.00    +0.049 A 
ATOM     12 CL   UNL     1       2.788  -3.136   8.252  0.00  0.00    -0.082 Cl
ATOM     13 CL   UNL     1       1.354  -1.444  10.444  0.00  0.00    -0.082 Cl
ENDBRANCH   4   6
BRANCH   1  19
ATOM     14  C   UNL     1      -0.455   1.054  -0.056  0.00  0.00    +0.149 C 
ATOM     15  N   UNL     1      -0.439  -0.403   0.101  0.00  0.00    -0.348 N 
ATOM     16  C   UNL     1      -0.664  -1.312  -0.890  0.00  0.00    +0.086 A 
ATOM     17  C   UNL     1      -0.566  -2.552  -0.364  0.00  0.00    +0.020 A 
ATOM     18  C   UNL     1      -0.269  -2.413   1.002  0.00  0.00    +0.029 A 
ATOM     19  C   UNL     1      -0.190  -1.079   1.267  0.00  0.00    +0.069 A 
ENDBRANCH   1  19
BRANCH   3  20
ATOM     20  C   UNL     1       0.826   2.320   4.868  0.00  0.00    +0.263 C 
ATOM     21  O   UNL     1       1.136   2.312   6.044  0.00  0.00    -0.269 OA
ATOM     22  N   UNL     1       0.728   3.490   4.205  0.00  0.00    -0.310 N 
ATOM     23  H   UNL     1       0.411   3.502   3.289  0.00  0.00    +0.149 HD
BRANCH  22  24
ATOM     24  C   UNL     1       1.100   4.741   4.869  0.00  0.00    +0.109 C 
BRANCH  24  25
ATOM     25  C   UNL     1       0.896   5.911   3.904  0.00  0.00    +0.055 C 
BRANCH  25  26
ATOM     26  C   UNL     1       1.278   7.199   4.587  0.00  0.00    -0.027 A 
ATOM     27  C   UNL     1       0.310   7.965   5.207  0.00  0.00    +0.006 A 
ATOM     28  C   UNL     1       0.660   9.147   5.834  0.00  0.00    +0.020 A 
ATOM     29  C   UNL     1       1.980   9.562   5.841  0.00  0.00    +0.042 A 
ATOM     30  C   UNL     1       2.949   8.795   5.221  0.00  0.00    +0.040 A 
ATOM     31  C   UNL     1       2.599   7.610   4.598  0.00  0.00    +0.046 A 
ATOM     32 CL   UNL     1       3.816   6.643   3.824  0.00  0.00    -0.083 Cl
ATOM     33 CL   UNL     1       2.419  11.046   6.627  0.00  0.00    -0.083 Cl
ENDBRANCH  25  26
ENDBRANCH  24  25
ENDBRANCH  22  24
ENDBRANCH   3  20
TORSDOF 6
