REMARK  Name = ZINC58436554
REMARK  8 active torsions:
REMARK  status: ('A' for Active; 'I' for Inactive)
REMARK    1  A    between atoms: C_1  and  C_2
REMARK    2  A    between atoms: N_5  and  C_8
REMARK    3  A    between atoms: C_8  and  C_10
REMARK    4  A    between atoms: C_8  and  C_28
REMARK    5  A    between atoms: C_10  and  N_11
REMARK    6  A    between atoms: N_14  and  C_15
REMARK    7  A    between atoms: C_15  and  C_17
REMARK    8  A    between atoms: C_15  and  C_18
REMARK                            x       y       z     vdW  Elec       q    Type
REMARK                         _______ _______ _______ _____ _____    ______ ____
ROOT
ATOM      1  N   UNL     1      -2.866  -4.098   0.201  0.00  0.00    -0.301 N 
ATOM      2  C   UNL     1      -4.169  -4.399   0.030  0.00  0.00    +0.300 C 
ATOM      3  O   UNL     1      -4.766  -5.022   0.887  0.00  0.00    -0.253 OA
ATOM      4  N   UNL     1      -4.809  -4.009  -1.090  0.00  0.00    -0.293 N 
ATOM      5  H   UNL     1      -2.389  -3.602  -0.482  0.00  0.00    +0.150 HD
ATOM      6  H   UNL     1      -4.332  -3.512  -1.773  0.00  0.00    +0.151 HD
ENDROOT
BRANCH   4   7
ATOM      7  C   UNL     1      -6.225  -4.336  -1.275  0.00  0.00    +0.102 C 
ATOM      8  C   UNL     1      -7.088  -3.275  -0.589  0.00  0.00    +0.033 C 
BRANCH   7   9
ATOM      9  C   UNL     1      -6.545  -4.367  -2.748  0.00  0.00    -0.024 A 
ATOM     10  C   UNL     1      -5.990  -3.425  -3.594  0.00  0.00    +0.009 A 
ATOM     11  C   UNL     1      -6.282  -3.450  -4.945  0.00  0.00    +0.050 A 
ATOM     12  C   UNL     1      -7.132  -4.420  -5.455  0.00  0.00    +0.162 A 
ATOM     13  C   UNL     1      -7.687  -5.369  -4.604  0.00  0.00    +0.162 A 
ATOM     14  C   UNL     1      -7.387  -5.341  -3.250  0.00  0.00    +0.055 A 
ATOM     15  O   UNL     1      -8.517  -6.334  -5.085  0.00  0.00    -0.485 OA
ATOM     16  C   UNL     1      -9.084  -6.109  -6.380  0.00  0.00    +0.270 C 
ATOM     17  C   UNL     1      -7.966  -5.638  -7.319  0.00  0.00    +0.270 C 
ATOM     18  O   UNL     1      -7.413  -4.429  -6.786  0.00  0.00    -0.485 OA
ENDBRANCH   7   9
ENDBRANCH   4   7
BRANCH   1  19
ATOM     19  C   UNL     1      -2.170  -4.522   1.418  0.00  0.00    +0.095 C 
BRANCH  19  20
ATOM     20  C   UNL     1      -0.745  -3.965   1.411  0.00  0.00    -0.013 C 
BRANCH  20  25
ATOM     21  C   UNL     1       1.997  -4.155   6.408  0.00  0.00    +0.007 C 
ATOM     22  C   UNL     1       1.328  -3.665   5.122  0.00  0.00    -0.018 C 
ATOM     23  C   UNL     1      -0.141  -4.097   5.113  0.00  0.00    -0.015 C 
ATOM     24  C   UNL     1      -0.784  -3.674   3.790  0.00  0.00    -0.078 C 
ATOM     25  N   UNL     1      -0.077  -4.312   2.673  0.00  0.00    +0.386 N 
ATOM     26  C   UNL     1       1.314  -3.846   2.632  0.00  0.00    -0.078 C 
ATOM     27  C   UNL     1       2.037  -4.276   3.911  0.00  0.00    -0.015 C 
ATOM     28  H   UNL     1      -0.093  -5.313   2.795  0.00  0.00    -0.081 HD
ENDBRANCH  20  25
BRANCH  20  29
ATOM     29  C   UNL     1       0.021  -4.558   0.258  0.00  0.00    -0.022 A 
ATOM     30  C   UNL     1       0.299  -4.014  -0.953  0.00  0.00    +0.009 A 
ATOM     31  C   UNL     1       1.027  -4.751  -1.867  0.00  0.00    +0.008 A 
ATOM     32  C   UNL     1       1.442  -5.996  -1.527  0.00  0.00    +0.045 A 
ATOM     33  S   UNL     1       0.805  -6.157   0.133  0.00  0.00    -0.103 S 
ENDBRANCH  20  29
ENDBRANCH  19  20
ENDBRANCH   1  19
TORSDOF 6
