REMARK  Name = ZINC09331120
REMARK  4 active torsions:
REMARK  status: ('A' for Active; 'I' for Inactive)
REMARK    1  A    between atoms: C_5  and  C_7
REMARK    2  A    between atoms: C_7  and  C_9
REMARK    3  A    between atoms: C_11  and  C_29
REMARK    4  A    between atoms: C_33  and  N_35
REMARK                            x       y       z     vdW  Elec       q    Type
REMARK                         _______ _______ _______ _____ _____    ______ ____
ROOT
ATOM      1  C   UNL     1      -2.011  -0.817  -1.333  0.00  0.00    +0.070 C 
ATOM      2  C   UNL     1      -3.406  -1.201  -0.799  0.00  0.00    +0.016 C 
ATOM      3  C   UNL     1      -3.205  -1.479   0.702  0.00  0.00    -0.047 C 
ATOM      4  C   UNL     1      -4.430  -0.961   1.484  0.00  0.00    +0.052 C 
ATOM      5  S   UNL     1      -3.697   0.414   2.469  0.00  0.00    -0.181 S 
ATOM      6  C   UNL     1      -2.136   0.590   1.497  0.00  0.00    -0.005 C 
ATOM      7  C   UNL     1      -1.083  -0.872  -0.116  0.00  0.00    +0.052 C 
ATOM      8  C   UNL     1      -0.101   0.268  -0.128  0.00  0.00    -0.024 A 
ATOM      9  C   UNL     1      -0.243   1.638  -0.122  0.00  0.00    +0.043 A 
ATOM     10  C   UNL     1       0.878   2.450  -0.138  0.00  0.00    +0.124 A 
ATOM     11  C   UNL     1       2.141   1.881  -0.158  0.00  0.00    +0.040 A 
ATOM     12  C   UNL     1       2.285   0.509  -0.163  0.00  0.00    +0.026 A 
ATOM     13  C   UNL     1       1.161  -0.314  -0.148  0.00  0.00    +0.036 A 
ATOM     14  N   UNL     1       1.051  -1.708  -0.150  0.00  0.00    -0.286 N 
ATOM     15  C   UNL     1      -0.233  -2.115  -0.134  0.00  0.00    +0.212 C 
ATOM     16  O   UNL     1      -0.628  -3.261  -0.133  0.00  0.00    -0.277 OA
ATOM     17  F   UNL     1       0.742   3.795  -0.133  0.00  0.00    -0.205 F 
ATOM     18  H   UNL     1       1.810  -2.311  -0.162  0.00  0.00    +0.155 HD
ATOM     19  N   UNL     1      -1.931  -0.840   1.063  0.00  0.00    +0.401 N 
ATOM     20  H   UNL     1      -1.488  -1.363   1.828  0.00  0.00    -0.078 HD
ENDROOT
BRANCH   2  21
ATOM     21  C   UNL     1      -3.910  -2.438  -1.496  0.00  0.00    -0.043 A 
ATOM     22  C   UNL     1      -3.325  -3.664  -1.239  0.00  0.00    +0.004 A 
ATOM     23  C   UNL     1      -3.788  -4.798  -1.879  0.00  0.00    +0.002 A 
ATOM     24  C   UNL     1      -4.836  -4.707  -2.776  0.00  0.00    +0.033 A 
ATOM     25  C   UNL     1      -5.422  -3.482  -3.032  0.00  0.00    +0.126 A 
ATOM     26  C   UNL     1      -4.962  -2.348  -2.389  0.00  0.00    +0.036 A 
BRANCH  25  27
ATOM     27  N   UNL     1      -6.544  -3.385  -3.992  0.00  0.00    +0.056 N 
ATOM     28  O   UNL     1      -6.951  -4.384  -4.556  0.00  0.00    -0.126 OA
ATOM     29  O   UNL     1      -7.060  -2.305  -4.218  0.00  0.00    -0.126 OA
ENDBRANCH  25  27
ENDBRANCH   2  21
BRANCH   1  30
ATOM     30  C   UNL     1      -2.036   0.575  -1.908  0.00  0.00    +0.184 C 
ATOM     31  O   UNL     1      -2.862   1.375  -1.523  0.00  0.00    -0.290 OA
BRANCH  30  36
ATOM     32  C   UNL     1      -0.157   2.607  -4.437  0.00  0.00    +0.004 A 
ATOM     33  C   UNL     1       0.767   1.657  -4.843  0.00  0.00    +0.020 A 
ATOM     34  C   UNL     1       0.737   0.393  -4.275  0.00  0.00    +0.111 A 
ATOM     35  N   UNL     1      -0.150   0.086  -3.354  0.00  0.00    -0.252 NA
ATOM     36  C   UNL     1      -1.056   0.966  -2.940  0.00  0.00    +0.106 A 
ATOM     37  C   UNL     1      -1.085   2.256  -3.469  0.00  0.00    +0.031 A 
ENDBRANCH  30  36
ENDBRANCH   1  30
TORSDOF 4
