REMARK  Name = ZINC63157024
REMARK  7 active torsions:
REMARK  status: ('A' for Active; 'I' for Inactive)
REMARK    1  A    between atoms: C_1  and  C_2
REMARK    2  A    between atoms: C_2  and  C_3
REMARK    3  A    between atoms: C_3  and  C_4
REMARK    4  A    between atoms: C_4  and  C_5
REMARK    5  A    between atoms: C_4  and  C_6
REMARK    6  A    between atoms: C_4  and  N_22
REMARK    7  A    between atoms: C_8  and  C_11
REMARK                            x       y       z     vdW  Elec       q    Type
REMARK                         _______ _______ _______ _____ _____    ______ ____
ROOT
ATOM      1  C   UNL     1       1.492  -2.540   2.454  0.00  0.00    +0.216 A 
ATOM      2  N   UNL     1       1.780  -3.784   2.716  0.00  0.00    -0.197 NA
ATOM      3  C   UNL     1       2.431  -3.869   3.882  0.00  0.00    +0.179 A 
ATOM      4  N   UNL     1       2.564  -2.673   4.378  0.00  0.00    -0.061 NA
ATOM      5  O   UNL     1       1.959  -1.782   3.453  0.00  0.00    -0.340 OA
ENDROOT
BRANCH   3   6
ATOM      6  C   UNL     1       2.928  -5.142   4.518  0.00  0.00    +0.090 C 
ATOM      7  C   UNL     1       2.256  -5.321   5.878  0.00  0.00    +0.016 C 
ATOM      8  C   UNL     1       2.929  -6.494   6.599  0.00  0.00    +0.006 C 
ATOM      9  C   UNL     1       4.343  -6.070   6.994  0.00  0.00    +0.035 C 
ATOM     10  C   UNL     1       5.074  -5.499   5.807  0.00  0.00    -0.044 A 
ATOM     11  C   UNL     1       4.424  -5.069   4.673  0.00  0.00    -0.034 A 
ATOM     12  C   UNL     1       5.159  -4.546   3.616  0.00  0.00    +0.004 A 
ATOM     13  C   UNL     1       6.533  -4.456   3.695  0.00  0.00    +0.000 A 
ATOM     14  C   UNL     1       7.186  -4.891   4.833  0.00  0.00    +0.000 A 
ATOM     15  C   UNL     1       6.458  -5.410   5.882  0.00  0.00    +0.004 A 
ENDBRANCH   3   6
BRANCH   1  16
ATOM     16  C   UNL     1       0.763  -2.041   1.233  0.00  0.00    +0.007 C 
ATOM     17  C   UNL     1      -0.673  -2.570   1.244  0.00  0.00    -0.001 C 
BRANCH  16  18
ATOM     18  N   UNL     1       1.450  -2.514   0.025  0.00  0.00    +0.388 N 
ATOM     19  H   UNL     1       2.397  -2.165   0.017  0.00  0.00    -0.089 HD
ATOM     20  H   UNL     1       1.464  -3.523   0.019  0.00  0.00    -0.089 HD
ATOM     21  H   UNL     1       0.962  -2.180  -0.793  0.00  0.00    -0.089 HD
ENDBRANCH  16  18
BRANCH  16  22
ATOM     22  C   UNL     1       0.742  -0.511   1.242  0.00  0.00    -0.004 C 
BRANCH  22  24
ATOM     23  C   UNL     1      -0.019   1.526   0.010  0.00  0.00    +0.004 C 
ATOM     24  C   UNL     1       0.002  -0.004   0.002  0.00  0.00    -0.004 C 
ENDBRANCH  22  24
ENDBRANCH  16  22
ENDBRANCH   1  16
TORSDOF 5
