REMARK  Name = ZINC39664449
REMARK  6 active torsions:
REMARK  status: ('A' for Active; 'I' for Inactive)
REMARK    1  A    between atoms: C_4  and  C_7
REMARK    2  A    between atoms: C_7  and  C_9
REMARK    3  A    between atoms: C_7  and  N_35
REMARK    4  A    between atoms: C_9  and  N_10
REMARK    5  A    between atoms: C_11  and  C_13
REMARK    6  A    between atoms: C_24  and  C_26
REMARK                            x       y       z     vdW  Elec       q    Type
REMARK                         _______ _______ _______ _____ _____    ______ ____
ROOT
ATOM      1  C   UNL     1       7.112  -3.613   2.758  0.00  0.00    +0.100 C 
ATOM      2  C   UNL     1       8.388  -2.902   2.254  0.00  0.00    +0.121 C 
ATOM      3  N   UNL     1       9.043  -2.393   3.482  0.00  0.00    -0.296 N 
ATOM      4  C   UNL     1       8.849  -3.473   4.479  0.00  0.00    +0.115 C 
ATOM      5  C   UNL     1       7.420  -3.989   4.217  0.00  0.00    -0.004 C 
ATOM      6  C   UNL     1       6.432  -3.306   5.158  0.00  0.00    -0.010 C 
ATOM      7  C   UNL     1       6.723  -3.740   6.597  0.00  0.00    -0.082 C 
ATOM      8  N   UNL     1       6.601  -5.199   6.704  0.00  0.00    +0.379 N 
ATOM      9  C   UNL     1       7.616  -5.849   5.866  0.00  0.00    -0.082 C 
ATOM     10  C   UNL     1       7.364  -5.503   4.395  0.00  0.00    -0.010 C 
ATOM     11  C   UNL     1       9.672  -1.214   3.655  0.00  0.00    +0.248 C 
ATOM     12  O   UNL     1       9.668  -0.385   2.763  0.00  0.00    -0.270 OA
ATOM     13  H   UNL     1       6.733  -5.477   7.665  0.00  0.00    -0.086 HD
ATOM     14  H   UNL     1       5.683  -5.482   6.398  0.00  0.00    -0.086 HD
ENDROOT
BRANCH  11  15
ATOM     15  C   UNL     1      10.364  -0.929   4.918  0.00  0.00    +0.052 A 
ATOM     16  C   UNL     1      10.991  -1.914   5.611  0.00  0.00    +0.059 A 
ATOM     17  S   UNL     1      11.637  -1.165   6.966  0.00  0.00    -0.096 S 
ATOM     18  C   UNL     1      11.107   0.502   6.685  0.00  0.00    +0.020 A 
ATOM     19  C   UNL     1      10.404   0.429   5.467  0.00  0.00    +0.001 A 
ATOM     20  C   UNL     1       9.854   1.624   4.967  0.00  0.00    +0.010 A 
ATOM     21  C   UNL     1      10.014   2.803   5.653  0.00  0.00    +0.001 A 
ATOM     22  C   UNL     1      10.716   2.849   6.849  0.00  0.00    +0.001 A 
ATOM     23  C   UNL     1      11.258   1.689   7.369  0.00  0.00    +0.015 A 
ENDBRANCH  11  15
BRANCH   1  25
ATOM     24  N   UNL     1       4.694  -3.170   2.486  0.00  0.00    -0.313 N 
ATOM     25  C   UNL     1       5.931  -2.679   2.694  0.00  0.00    +0.218 C 
ATOM     26  O   UNL     1       6.095  -1.485   2.830  0.00  0.00    -0.275 OA
ATOM     27  H   UNL     1       4.563  -4.125   2.377  0.00  0.00    +0.149 HD
BRANCH  24  28
ATOM     28  C   UNL     1       3.546  -2.262   2.425  0.00  0.00    +0.127 C 
BRANCH  28  29
ATOM     29  C   UNL     1       2.257  -3.077   2.304  0.00  0.00    +0.104 C 
BRANCH  29  33
ATOM     30  C   UNL     1       2.279  -5.247  -1.375  0.00  0.00    +0.000 A 
ATOM     31  C   UNL     1       2.614  -5.884  -0.195  0.00  0.00    +0.000 A 
ATOM     32  C   UNL     1       2.607  -5.182   0.996  0.00  0.00    +0.005 A 
ATOM     33  C   UNL     1       2.265  -3.842   1.006  0.00  0.00    -0.029 A 
ATOM     34  C   UNL     1       1.931  -3.205  -0.174  0.00  0.00    +0.005 A 
ATOM     35  C   UNL     1       1.937  -3.908  -1.365  0.00  0.00    +0.000 A 
ENDBRANCH  29  33
BRANCH  29  36
ATOM     36  N   UNL     1       1.101  -2.171   2.331  0.00  0.00    -0.290 NA
ATOM     37  C   UNL     1       1.158  -1.278   3.497  0.00  0.00    +0.113 C 
ATOM     38  C   UNL     1      -0.030  -0.313   3.453  0.00  0.00    +0.175 C 
ATOM     39  O   UNL     1      -1.246  -1.065   3.407  0.00  0.00    -0.377 OA
ATOM     40  C   UNL     1      -1.336  -1.946   2.283  0.00  0.00    +0.175 C 
ATOM     41  C   UNL     1      -0.161  -2.926   2.315  0.00  0.00    +0.113 C 
ENDBRANCH  29  36
ENDBRANCH  28  29
ENDBRANCH  24  28
ENDBRANCH   1  25
TORSDOF 6
