REMARK  Name = ZINC34954508
REMARK  11 active torsions:
REMARK  status: ('A' for Active; 'I' for Inactive)
REMARK    1  A    between atoms: C_1  and  C_2
REMARK    2  A    between atoms: C_2  and  C_3
REMARK    3  A    between atoms: C_2  and  C_4
REMARK    4  A    between atoms: C_4  and  C_5
REMARK    5  A    between atoms: N_10  and  C_24
REMARK    6  A    between atoms: C_14  and  C_22
REMARK    7  A    between atoms: C_15  and  N_21
REMARK    8  A    between atoms: C_16  and  C_17
REMARK    9  A    between atoms: C_16  and  C_19
REMARK   10  A    between atoms: C_24  and  C_25
REMARK   11  A    between atoms: C_24  and  C_26
REMARK                            x       y       z     vdW  Elec       q    Type
REMARK                         _______ _______ _______ _____ _____    ______ ____
ROOT
ATOM      1  C   UNL     1       0.026  -0.017   2.500  0.00  0.00    +0.038 C 
ATOM      2  C   UNL     1       0.888  -0.311   3.729  0.00  0.00    +0.040 C 
ATOM      3  C   UNL     1       2.298   0.211   3.565  0.00  0.00    +0.093 C 
ATOM      4  N   UNL     1       2.490   1.495   4.245  0.00  0.00    -0.296 NA
ATOM      5  C   UNL     1       2.228   1.350   5.688  0.00  0.00    +0.112 C 
ATOM      6  C   UNL     1       0.778   0.966   5.854  0.00  0.00    -0.007 C 
ATOM      7  C   UNL     1       0.189   0.247   4.935  0.00  0.00    -0.027 C 
ATOM      8  C   UNL     1      -1.268  -0.016   5.055  0.00  0.00    +0.074 C 
ATOM      9  C   UNL     1      -1.952  -0.467   3.973  0.00  0.00    +0.054 C 
ATOM     10  C   UNL     1      -1.312  -0.743   2.645  0.00  0.00    +0.184 C 
ENDROOT
BRANCH   9  11
ATOM     11  N   UNL     1      -3.296  -0.680   4.100  0.00  0.00    -0.358 N 
ATOM     12  H   UNL     1      -3.736  -0.508   4.947  0.00  0.00    +0.142 HD
ATOM     13  H   UNL     1      -3.809  -1.002   3.343  0.00  0.00    +0.142 HD
ENDBRANCH   9  11
BRANCH   4  14
ATOM     14  C   UNL     1       3.841   2.020   4.006  0.00  0.00    +0.051 C 
ATOM     15  C   UNL     1       3.963   3.414   4.625  0.00  0.00    +0.024 C 
ATOM     16  C   UNL     1       4.872   1.087   4.644  0.00  0.00    +0.024 C 
ENDBRANCH   4  14
BRANCH  10  17
ATOM     17  C   UNL     1      -1.089  -2.192   2.514  0.00  0.00    +0.091 C 
ATOM     18  N   UNL     1      -0.917  -3.310   2.412  0.00  0.00    -0.195 NA
ENDBRANCH  10  17
BRANCH  10  19
ATOM     19  C   UNL     1      -2.218  -0.299   1.573  0.00  0.00    +0.091 C 
ATOM     20  N   UNL     1      -2.916   0.044   0.745  0.00  0.00    -0.195 NA
ENDBRANCH  10  19
BRANCH   8  21
ATOM     21  C   UNL     1      -1.943   0.205   6.298  0.00  0.00    +0.101 C 
ATOM     22  N   UNL     1      -2.479   0.380   7.285  0.00  0.00    -0.191 NA
ENDBRANCH   8  21
BRANCH   1  23
ATOM     23  C   UNL     1       0.742  -0.511   1.242  0.00  0.00    +0.010 C 
BRANCH  23  25
ATOM     24  C   UNL     1      -0.092   1.468  -0.034  0.00  0.00    +0.007 C 
ATOM     25  C   UNL     1      -0.034  -0.060   0.003  0.00  0.00    -0.017 C 
ATOM     26  C   UNL     1       0.669  -0.574  -1.255  0.00  0.00    +0.007 C 
ENDBRANCH  23  25
ENDBRANCH   1  23
TORSDOF 7
