REMARK  Name = ZINC08758747
REMARK  9 active torsions:
REMARK  status: ('A' for Active; 'I' for Inactive)
REMARK    1  A    between atoms: C_1  and  C_2
REMARK    2  A    between atoms: C_4  and  C_41
REMARK    3  A    between atoms: N_10  and  C_11
REMARK    4  A    between atoms: C_11  and  C_13
REMARK    5  A    between atoms: C_13  and  C_15
REMARK    6  A    between atoms: C_13  and  N_16
REMARK    7  A    between atoms: N_27  and  C_28
REMARK    8  A    between atoms: C_28  and  C_29
REMARK    9  A    between atoms: C_29  and  C_30
REMARK                            x       y       z     vdW  Elec       q    Type
REMARK                         _______ _______ _______ _____ _____    ______ ____
ROOT
ATOM      1  C   UNL     1      -2.812  -7.610  -1.485  0.00  0.00    +0.066 C 
ATOM      2  C   UNL     1      -3.367  -7.870  -0.108  0.00  0.00    +0.044 A 
ATOM      3  C   UNL     1      -3.850  -9.124   0.229  0.00  0.00    +0.046 A 
ATOM      4  C   UNL     1      -4.351  -9.320   1.506  0.00  0.00    +0.044 A 
ATOM      5  N   UNL     1      -4.352  -8.310   2.360  0.00  0.00    -0.217 NA
ATOM      6  C   UNL     1      -3.883  -7.124   2.007  0.00  0.00    +0.231 A 
ATOM      7  N   UNL     1      -3.402  -6.902   0.793  0.00  0.00    -0.217 NA
ATOM      8  N   UNL     1      -3.900  -6.086   2.929  0.00  0.00    -0.297 N 
ATOM      9  C   UNL     1      -3.419  -4.855   2.581  0.00  0.00    +0.196 C 
ATOM     10  N   UNL     1      -2.936  -4.652   1.363  0.00  0.00    -0.145 NA
ATOM     11  N   UNL     1      -3.436  -3.837   3.486  0.00  0.00    -0.357 N 
ATOM     12  C   UNL     1      -4.887 -10.667   1.917  0.00  0.00    +0.066 C 
ATOM     13  H   UNL     1      -4.253  -6.234   3.820  0.00  0.00    +0.171 HD
ATOM     14  H   UNL     1      -3.017  -2.989   3.270  0.00  0.00    +0.162 HD
ENDROOT
BRANCH  10  15
ATOM     15  C   UNL     1      -2.670  -3.414   0.950  0.00  0.00    +0.260 C 
ATOM     16  O   UNL     1      -2.972  -2.463   1.645  0.00  0.00    -0.272 OA
BRANCH  15  17
ATOM     17  C   UNL     1      -1.994  -3.191  -0.378  0.00  0.00    +0.169 C 
ATOM     18  C   UNL     1      -2.860  -3.775  -1.496  0.00  0.00    +0.038 C 
BRANCH  17  19
ATOM     19  N   UNL     1      -1.813  -1.755  -0.600  0.00  0.00    -0.222 N 
ATOM     20  C   UNL     1      -2.818  -0.861  -0.657  0.00  0.00    +0.254 C 
ATOM     21  O   UNL     1      -3.999  -1.114  -0.534  0.00  0.00    -0.270 OA
ATOM     22  C   UNL     1      -2.243   0.480  -0.893  0.00  0.00    +0.049 A 
ATOM     23  C   UNL     1      -2.777   1.750  -1.038  0.00  0.00    +0.014 A 
ATOM     24  C   UNL     1      -1.935   2.829  -1.256  0.00  0.00    +0.001 A 
ATOM     25  C   UNL     1      -0.567   2.646  -1.330  0.00  0.00    +0.001 A 
ATOM     26  C   UNL     1      -0.018   1.381  -1.187  0.00  0.00    +0.014 A 
ATOM     27  C   UNL     1      -0.848   0.293  -0.968  0.00  0.00    +0.049 A 
ATOM     28  C   UNL     1      -0.622  -1.155  -0.774  0.00  0.00    +0.254 C 
ATOM     29  O   UNL     1       0.458  -1.710  -0.772  0.00  0.00    -0.270 OA
ENDBRANCH  17  19
ENDBRANCH  15  17
ENDBRANCH  10  15
BRANCH  11  30
ATOM     30  C   UNL     1      -4.086  -4.022   4.785  0.00  0.00    +0.120 C 
BRANCH  30  31
ATOM     31  C   UNL     1      -3.963  -2.736   5.605  0.00  0.00    +0.058 C 
BRANCH  31  32
ATOM     32  C   UNL     1      -4.633  -2.927   6.942  0.00  0.00    -0.021 A 
ATOM     33  C   UNL     1      -5.892  -2.588   7.260  0.00  0.00    +0.087 A 
ATOM     34  N   UNL     1      -6.147  -2.913   8.564  0.00  0.00    -0.360 N 
ATOM     35  H   UNL     1      -6.990  -2.764   9.021  0.00  0.00    +0.165 HD
ATOM     36  C   UNL     1      -5.029  -3.485   9.132  0.00  0.00    +0.047 A 
ATOM     37  C   UNL     1      -4.034  -3.523   8.139  0.00  0.00    +0.004 A 
ATOM     38  C   UNL     1      -2.775  -4.051   8.433  0.00  0.00    +0.030 A 
ATOM     39  C   UNL     1      -2.521  -4.541   9.695  0.00  0.00    +0.042 A 
ATOM     40  C   UNL     1      -3.506  -4.508  10.673  0.00  0.00    +0.022 A 
ATOM     41  C   UNL     1      -4.751  -3.985  10.399  0.00  0.00    +0.027 A 
ATOM     42 CL   UNL     1      -0.960  -5.205  10.064  0.00  0.00    -0.084 Cl
ENDBRANCH  31  32
ENDBRANCH  30  31
ENDBRANCH  11  30
TORSDOF 6
