REMARK  Name = ZINC35707128
REMARK  9 active torsions:
REMARK  status: ('A' for Active; 'I' for Inactive)
REMARK    1  A    between atoms: C_1  and  C_2
REMARK    2  A    between atoms: C_6  and  N_9
REMARK    3  A    between atoms: C_7  and  C_8
REMARK    4  A    between atoms: N_12  and  C_13
REMARK    5  A    between atoms: N_12  and  C_36
REMARK    6  A    between atoms: C_13  and  C_14
REMARK    7  A    between atoms: C_28  and  C_30
REMARK    8  A    between atoms: C_36  and  C_37
REMARK    9  A    between atoms: C_36  and  C_38
REMARK                            x       y       z     vdW  Elec       q    Type
REMARK                         _______ _______ _______ _____ _____    ______ ____
ROOT
ATOM      1  C   UNL     1       1.301  -6.775   3.694  0.00  0.00    +0.238 C 
ATOM      2  O   UNL     1       2.201  -5.984   3.883  0.00  0.00    -0.273 OA
ATOM      3  N   UNL     1       1.568  -8.094   3.621  0.00  0.00    -0.255 N 
ATOM      4  C   UNL     1       2.868  -8.559   3.865  0.00  0.00    +0.061 A 
ATOM      5  C   UNL     1       3.712  -7.873   4.723  0.00  0.00    +0.025 A 
ATOM      6  C   UNL     1       4.995  -8.338   4.946  0.00  0.00    +0.002 A 
ATOM      7  C   UNL     1       5.444  -9.484   4.316  0.00  0.00    +0.002 A 
ATOM      8  C   UNL     1       4.608 -10.179   3.460  0.00  0.00    +0.028 A 
ATOM      9  C   UNL     1       3.323  -9.724   3.238  0.00  0.00    +0.068 A 
ATOM     10  N   UNL     1       2.430 -10.408   2.400  0.00  0.00    -0.316 N 
ATOM     11  C   UNL     1       2.657 -11.402   1.508  0.00  0.00    +0.092 A 
ATOM     12  C   UNL     1       1.477 -11.731   0.935  0.00  0.00    +0.020 A 
ATOM     13  C   UNL     1       0.483 -10.904   1.502  0.00  0.00    +0.025 A 
ATOM     14  C   UNL     1       1.085 -10.108   2.393  0.00  0.00    +0.049 A 
ATOM     15  C   UNL     1       0.493  -9.044   3.291  0.00  0.00    +0.159 C 
ENDROOT
BRANCH  15  16
ATOM     16  C   UNL     1      -0.037  -9.673   4.554  0.00  0.00    -0.021 A 
ATOM     17  C   UNL     1       0.833 -10.030   5.567  0.00  0.00    +0.006 A 
ATOM     18  C   UNL     1       0.346 -10.607   6.725  0.00  0.00    +0.000 A 
ATOM     19  C   UNL     1      -1.011 -10.826   6.870  0.00  0.00    +0.000 A 
ATOM     20  C   UNL     1      -1.881 -10.469   5.857  0.00  0.00    +0.000 A 
ATOM     21  C   UNL     1      -1.395  -9.888   4.701  0.00  0.00    +0.006 A 
ENDBRANCH  15  16
BRANCH   1  22
ATOM     22  C   UNL     1      -0.115  -6.283   3.542  0.00  0.00    +0.205 C 
BRANCH  22  26
ATOM     23  N   UNL     1       0.074  -2.648   3.033  0.00  0.00    -0.269 N 
ATOM     24  C   UNL     1       0.011  -3.971   2.783  0.00  0.00    +0.307 C 
ATOM     25  O   UNL     1       0.109  -4.380   1.641  0.00  0.00    -0.252 OA
ATOM     26  N   UNL     1      -0.162  -4.842   3.797  0.00  0.00    -0.274 N 
ATOM     27  H   UNL     1       0.056  -2.326   3.947  0.00  0.00    +0.156 HD
BRANCH  23  33
ATOM     28  C   UNL     1      -0.854   1.815   1.192  0.00  0.00    +0.044 C 
ATOM     29  C   UNL     1      -0.275   0.431   1.053  0.00  0.00    -0.046 A 
ATOM     30  C   UNL     1       0.349   0.058  -0.123  0.00  0.00    +0.004 A 
ATOM     31  C   UNL     1       0.882  -1.212  -0.254  0.00  0.00    +0.002 A 
ATOM     32  C   UNL     1       0.792  -2.111   0.790  0.00  0.00    +0.023 A 
ATOM     33  C   UNL     1       0.167  -1.740   1.973  0.00  0.00    +0.038 A 
ATOM     34  C   UNL     1      -0.362  -0.462   2.103  0.00  0.00    -0.026 A 
ATOM     35  C   UNL     1      -1.036  -0.052   3.387  0.00  0.00    +0.046 C 
ENDBRANCH  23  33
BRANCH  26  36
ATOM     36  C   UNL     1      -0.396  -4.346   5.155  0.00  0.00    +0.072 C 
ATOM     37  C   UNL     1      -1.794  -4.764   5.617  0.00  0.00    +0.028 C 
ATOM     38  C   UNL     1       0.652  -4.936   6.102  0.00  0.00    +0.028 C 
ENDBRANCH  26  36
ENDBRANCH  22  26
ENDBRANCH   1  22
TORSDOF 5
