REMARK  Name = ZINC40733421
REMARK  9 active torsions:
REMARK  status: ('A' for Active; 'I' for Inactive)
REMARK    1  A    between atoms: C_1  and  C_2
REMARK    2  A    between atoms: C_2  and  C_3
REMARK    3  A    between atoms: C_11  and  N_27
REMARK    4  A    between atoms: C_12  and  N_16
REMARK    5  A    between atoms: N_16  and  C_17
REMARK    6  A    between atoms: C_19  and  C_25
REMARK    7  A    between atoms: C_19  and  C_26
REMARK    8  A    between atoms: C_21  and  C_23
REMARK    9  A    between atoms: C_21  and  C_24
REMARK                            x       y       z     vdW  Elec       q    Type
REMARK                         _______ _______ _______ _____ _____    ______ ____
ROOT
ATOM      1  C   UNL     1       1.586   0.320   2.022  0.00  0.00    +0.075 C 
ATOM      2  C   UNL     1       0.243  -0.393   2.208  0.00  0.00    +0.022 C 
ATOM      3  C   UNL     1       0.477  -1.905   2.268  0.00  0.00    +0.003 C 
ATOM      4  C   UNL     1       1.098  -2.379   0.952  0.00  0.00    +0.019 C 
ATOM      5  C   UNL     1       2.451  -1.688   0.752  0.00  0.00    +0.107 C 
ATOM      6  N   UNL     1       2.259  -0.234   0.840  0.00  0.00    -0.311 N 
ATOM      7  C   UNL     1       2.704   0.602  -0.178  0.00  0.00    +0.147 A 
ATOM      8  C   UNL     1       4.023   1.059  -0.196  0.00  0.00    +0.105 A 
ATOM      9  C   UNL     1       4.417   1.895  -1.241  0.00  0.00    +0.145 A 
ATOM     10  N   UNL     1       3.527   2.224  -2.175  0.00  0.00    -0.219 NA
ATOM     11  C   UNL     1       2.291   1.770  -2.121  0.00  0.00    +0.225 A 
ATOM     12  N   UNL     1       1.879   0.975  -1.155  0.00  0.00    -0.219 NA
ENDROOT
BRANCH   8  13
ATOM     13  N   UNL     1       4.928   0.687   0.812  0.00  0.00    -0.353 N 
ATOM     14  H   UNL     1       4.622   0.168   1.572  0.00  0.00    +0.143 HD
ATOM     15  H   UNL     1       5.860   0.950   0.747  0.00  0.00    +0.143 HD
ENDBRANCH   8  13
BRANCH   1  17
ATOM     16  C   UNL     1       0.769   2.418   3.106  0.00  0.00    +0.006 C 
ATOM     17  C   UNL     1       1.347   1.818   1.822  0.00  0.00    +0.019 C 
ENDBRANCH   1  17
BRANCH   9  18
ATOM     18  N   UNL     1       5.718   2.379  -1.306  0.00  0.00    -0.325 N 
ATOM     19  H   UNL     1       6.361   2.135  -0.621  0.00  0.00    +0.148 HD
BRANCH  18  20
ATOM     20  C   UNL     1       6.121   3.258  -2.410  0.00  0.00    +0.069 C 
ATOM     21  C   UNL     1       6.572   2.402  -3.595  0.00  0.00    +0.009 C 
ATOM     22  C   UNL     1       7.007   3.304  -4.750  0.00  0.00    -0.072 C 
ATOM     23  N   UNL     1       8.017   4.269  -4.342  0.00  0.00    +0.386 N 
ATOM     24  C   UNL     1       7.790   5.003  -3.108  0.00  0.00    -0.072 C 
ATOM     25  C   UNL     1       7.301   4.120  -1.964  0.00  0.00    +0.009 C 
ATOM     26  C   UNL     1       6.824   6.173  -3.313  0.00  0.00    -0.010 C 
ATOM     27  C   UNL     1       9.145   5.609  -2.672  0.00  0.00    -0.010 C 
ATOM     28  C   UNL     1       5.789   3.977  -5.382  0.00  0.00    -0.010 C 
ATOM     29  C   UNL     1       7.639   2.394  -5.829  0.00  0.00    -0.010 C 
ATOM     30  H   UNL     1       8.913   3.783  -4.267  0.00  0.00    -0.084 HD
ATOM     31  H   UNL     1       8.140   4.944  -5.101  0.00  0.00    -0.084 HD
ENDBRANCH  18  20
ENDBRANCH   9  18
TORSDOF 4
