REMARK  Name = ZINC10785068
REMARK  6 active torsions:
REMARK  status: ('A' for Active; 'I' for Inactive)
REMARK    1  A    between atoms: C_1  and  C_2
REMARK    2  A    between atoms: C_5  and  C_8
REMARK    3  A    between atoms: C_11  and  S_14
REMARK    4  A    between atoms: N_12  and  N_13
REMARK    5  A    between atoms: S_14  and  C_15
REMARK    6  A    between atoms: C_15  and  C_16
REMARK                            x       y       z     vdW  Elec       q    Type
REMARK                         _______ _______ _______ _____ _____    ______ ____
ROOT
ATOM      1  C   UNL     1       0.002  -0.004   0.002  0.00  0.00    +0.182 A 
ATOM      2  N   UNL     1       1.035  -0.772   0.262  0.00  0.00    -0.127 NA
ATOM      3  N   UNL     1       0.698  -2.008   0.164  0.00  0.00    -0.121 NA
ATOM      4  C   UNL     1      -0.571  -2.105  -0.164  0.00  0.00    +0.209 A 
ATOM      5  N   UNL     1      -1.060  -0.835  -0.273  0.00  0.00    -0.224 N 
ENDROOT
BRANCH   1  10
ATOM      6  C   UNL     1      -0.076   5.750   0.035  0.00  0.00    +0.044 C 
ATOM      7  C   UNL     1      -0.056   4.243   0.026  0.00  0.00    -0.050 A 
ATOM      8  C   UNL     1       1.154   3.571   0.010  0.00  0.00    +0.004 A 
ATOM      9  C   UNL     1       1.179   2.191   0.003  0.00  0.00    +0.012 A 
ATOM     10  C   UNL     1      -0.018   1.474   0.010  0.00  0.00    +0.021 A 
ATOM     11  C   UNL     1      -1.234   2.159   0.020  0.00  0.00    +0.012 A 
ATOM     12  C   UNL     1      -1.246   3.538   0.033  0.00  0.00    +0.004 A 
ENDBRANCH   1  10
BRANCH   5  13
ATOM     13  N   UNL     1      -2.336  -0.466  -0.592  0.00  0.00    -0.295 N 
ATOM     14  H   UNL     1      -2.443  -0.360  -1.590  0.00  0.00    +0.163 HD
ATOM     15  H   UNL     1      -3.005  -1.125  -0.224  0.00  0.00    +0.163 HD
ENDBRANCH   5  13
BRANCH   4  16
ATOM     16  S   UNL     1      -1.476  -3.598  -0.409  0.00  0.00    -0.080 S 
BRANCH  16  17
ATOM     17  C   UNL     1      -0.173  -4.812  -0.085  0.00  0.00    +0.113 C 
BRANCH  17  18
ATOM     18  C   UNL     1      -0.733  -6.202  -0.241  0.00  0.00    -0.020 A 
ATOM     19  C   UNL     1      -0.701  -6.836  -1.441  0.00  0.00    +0.097 A 
ATOM     20  C   UNL     1      -1.232  -8.139  -1.560  0.00  0.00    +0.338 A 
ATOM     21  O   UNL     1      -1.197  -8.696  -2.643  0.00  0.00    -0.245 OA
ATOM     22  O   UNL     1      -1.773  -8.778  -0.512  0.00  0.00    -0.422 OA
ATOM     23  C   UNL     1      -1.835  -8.205   0.708  0.00  0.00    +0.140 A 
ATOM     24  C   UNL     1      -1.320  -6.910   0.901  0.00  0.00    +0.022 A 
ATOM     25  C   UNL     1      -1.390  -6.311   2.162  0.00  0.00    +0.013 A 
ATOM     26  C   UNL     1      -1.948  -6.993   3.206  0.00  0.00    +0.016 A 
ATOM     27  C   UNL     1      -2.453  -8.273   3.022  0.00  0.00    +0.021 A 
ATOM     28  C   UNL     1      -2.399  -8.879   1.782  0.00  0.00    +0.062 A 
ATOM     29 BR   UNL     1      -3.222  -9.196   4.482  0.00  0.00    -0.050 Br
ENDBRANCH  17  18
ENDBRANCH  16  17
ENDBRANCH   4  16
TORSDOF 5
