REMARK  Name = ZINC20897125
REMARK  5 active torsions:
REMARK  status: ('A' for Active; 'I' for Inactive)
REMARK    1  A    between atoms: C_4  and  S_7
REMARK    2  A    between atoms: S_7  and  N_10
REMARK    3  A    between atoms: C_16  and  C_18
REMARK    4  A    between atoms: C_18  and  O_19
REMARK    5  A    between atoms: O_19  and  C_20
REMARK                            x       y       z     vdW  Elec       q    Type
REMARK                         _______ _______ _______ _____ _____    ______ ____
ROOT
ATOM      1  N   UNL     1      -0.730   1.576  -1.177  0.00  0.00    -0.174 NA
ATOM      2  C   UNL     1      -0.013   1.086   0.008  0.00  0.00    +0.128 C 
ATOM      3  C   UNL     1      -0.738   1.584   1.265  0.00  0.00    +0.125 C 
ATOM      4  N   UNL     1      -0.979   3.028   1.125  0.00  0.00    -0.296 N 
ATOM      5  C   UNL     1      -1.697   3.518  -0.060  0.00  0.00    +0.125 C 
ATOM      6  C   UNL     1      -0.968   3.020  -1.315  0.00  0.00    +0.128 C 
ATOM      7  C   UNL     1      -0.547   3.887   2.069  0.00  0.00    +0.253 C 
ATOM      8  O   UNL     1      -0.749   5.076   1.945  0.00  0.00    -0.272 OA
ENDROOT
BRANCH   1   9
ATOM      9  S   UNL     1      -1.260   0.520  -2.338  0.00  0.00    +0.061 S 
ATOM     10  O   UNL     1      -1.382   1.267  -3.541  0.00  0.00    -0.153 OA
ATOM     11  O   UNL     1      -0.441  -0.637  -2.239  0.00  0.00    -0.153 OA
BRANCH   9  15
ATOM     12  C   UNL     1      -5.446  -0.754  -1.177  0.00  0.00    +0.000 A 
ATOM     13  C   UNL     1      -5.259   0.355  -1.980  0.00  0.00    +0.002 A 
ATOM     14  C   UNL     1      -3.981   0.745  -2.334  0.00  0.00    +0.028 A 
ATOM     15  C   UNL     1      -2.889   0.024  -1.886  0.00  0.00    +0.105 A 
ATOM     16  C   UNL     1      -3.076  -1.089  -1.087  0.00  0.00    +0.028 A 
ATOM     17  C   UNL     1      -4.354  -1.475  -0.729  0.00  0.00    +0.002 A 
ENDBRANCH   9  15
ENDBRANCH   1   9
BRANCH   7  18
ATOM     18  C   UNL     1       0.187   3.370   3.280  0.00  0.00    +0.324 C 
BRANCH  18  19
ATOM     19  O   UNL     1       0.539   4.465   4.127  0.00  0.00    -0.482 OA
BRANCH  19  20
ATOM     20  C   UNL     1       1.211   4.169   5.271  0.00  0.00    +0.135 A 
ATOM     21  C   UNL     1       1.525   2.851   5.571  0.00  0.00    +0.049 A 
ATOM     22  C   UNL     1       2.209   2.552   6.733  0.00  0.00    +0.042 A 
ATOM     23  C   UNL     1       2.581   3.566   7.600  0.00  0.00    +0.125 A 
ATOM     24  C   UNL     1       2.268   4.881   7.303  0.00  0.00    +0.057 A 
ATOM     25  C   UNL     1       1.589   5.185   6.138  0.00  0.00    +0.062 A 
ATOM     26 BR   UNL     1       1.168   6.982   5.729  0.00  0.00    -0.046 Br
ATOM     27  F   UNL     1       3.249   3.271   8.736  0.00  0.00    -0.205 F 
ENDBRANCH  19  20
ENDBRANCH  18  19
ENDBRANCH   7  18
TORSDOF 5
