REMARK  Name = ZINC44786821
REMARK  7 active torsions:
REMARK  status: ('A' for Active; 'I' for Inactive)
REMARK    1  A    between atoms: C_4  and  N_16
REMARK    2  A    between atoms: C_5  and  C_7
REMARK    3  A    between atoms: N_9  and  C_10
REMARK    4  A    between atoms: C_10  and  C_11
REMARK    5  A    between atoms: C_17  and  C_19
REMARK    6  A    between atoms: N_24  and  C_26
REMARK    7  A    between atoms: C_26  and  C_27
REMARK                            x       y       z     vdW  Elec       q    Type
REMARK                         _______ _______ _______ _____ _____    ______ ____
ROOT
ATOM      1  N   UNL     1       3.624  -0.617  -0.038  0.00  0.00    -0.285 N 
ATOM      2  C   UNL     1       4.769   0.087  -0.144  0.00  0.00    +0.219 C 
ATOM      3  O   UNL     1       4.739   1.299  -0.132  0.00  0.00    -0.275 OA
ATOM      4  H   UNL     1       3.654  -1.585   0.018  0.00  0.00    +0.155 HD
ENDROOT
BRANCH   2   5
ATOM      5  C   UNL     1       6.087  -0.633  -0.276  0.00  0.00    +0.059 C 
ATOM      6  C   UNL     1       6.311  -1.519   0.953  0.00  0.00    +0.009 C 
ATOM      7  C   UNL     1       7.686  -2.185   0.846  0.00  0.00    -0.018 C 
ATOM      8  C   UNL     1       8.760  -1.104   0.706  0.00  0.00    -0.078 C 
ATOM      9  N   UNL     1       8.505  -0.309  -0.501  0.00  0.00    +0.383 N 
ATOM     10  C   UNL     1       7.220   0.390  -0.376  0.00  0.00    -0.066 C 
ATOM     11  H   UNL     1       8.477  -0.918  -1.305  0.00  0.00    -0.081 HD
BRANCH   9  12
ATOM     12  C   UNL     1       9.581   0.676  -0.674  0.00  0.00    -0.043 C 
BRANCH  12  13
ATOM     13  C   UNL     1      10.881  -0.041  -0.935  0.00  0.00    -0.063 A 
ATOM     14  C   UNL     1      11.693  -0.407   0.122  0.00  0.00    +0.002 A 
ATOM     15  C   UNL     1      12.885  -1.065  -0.118  0.00  0.00    +0.001 A 
ATOM     16  C   UNL     1      13.266  -1.356  -1.414  0.00  0.00    +0.015 A 
ATOM     17  C   UNL     1      12.453  -0.990  -2.472  0.00  0.00    +0.018 A 
ATOM     18  C   UNL     1      11.258  -0.336  -2.232  0.00  0.00    +0.017 A 
ATOM     19 BR   UNL     1      12.974  -1.387  -4.246  0.00  0.00    -0.050 Br
ENDBRANCH  12  13
ENDBRANCH   9  12
ENDBRANCH   2   5
BRANCH   1  23
ATOM     20  C   UNL     1      -0.041   1.370   0.046  0.00  0.00    +0.001 A 
ATOM     21  C   UNL     1       1.073   1.934   0.645  0.00  0.00    +0.002 A 
ATOM     22  C   UNL     1       2.288   1.279   0.619  0.00  0.00    +0.024 A 
ATOM     23  C   UNL     1       2.400   0.046  -0.010  0.00  0.00    +0.046 A 
ATOM     24  C   UNL     1       1.273  -0.528  -0.618  0.00  0.00    +0.058 A 
ATOM     25  C   UNL     1       0.051   0.147  -0.583  0.00  0.00    +0.015 A 
BRANCH  24  26
ATOM     26  C   UNL     1       1.379  -1.837  -1.290  0.00  0.00    +0.246 C 
ATOM     27  O   UNL     1       2.420  -2.463  -1.241  0.00  0.00    -0.270 OA
ATOM     28  N   UNL     1       0.322  -2.339  -1.958  0.00  0.00    -0.304 N 
ATOM     29  H   UNL     1      -0.509  -1.839  -1.997  0.00  0.00    +0.149 HD
BRANCH  28  30
ATOM     30  C   UNL     1       0.427  -3.639  -2.626  0.00  0.00    +0.179 C 
BRANCH  30  31
ATOM     31  C   UNL     1      -0.883  -3.967  -3.294  0.00  0.00    +0.122 A 
ATOM     32  C   UNL     1      -1.225  -3.648  -4.556  0.00  0.00    +0.046 A 
ATOM     33  C   UNL     1      -2.531  -4.146  -4.765  0.00  0.00    +0.041 A 
ATOM     34  C   UNL     1      -2.910  -4.740  -3.619  0.00  0.00    +0.195 A 
ATOM     35  O   UNL     1      -1.906  -4.634  -2.733  0.00  0.00    -0.466 OA
ENDBRANCH  30  31
ENDBRANCH  28  30
ENDBRANCH  24  26
ENDBRANCH   1  23
TORSDOF 7
