REMARK  Name = ZINC58020549
REMARK  7 active torsions:
REMARK  status: ('A' for Active; 'I' for Inactive)
REMARK    1  A    between atoms: C_1  and  C_2
REMARK    2  A    between atoms: C_2  and  C_3
REMARK    3  A    between atoms: C_2  and  C_4
REMARK    4  A    between atoms: C_8  and  S_10
REMARK    5  A    between atoms: S_10  and  N_13
REMARK    6  A    between atoms: N_13  and  C_14
REMARK    7  A    between atoms: C_20  and  N_22
REMARK                            x       y       z     vdW  Elec       q    Type
REMARK                         _______ _______ _______ _____ _____    ______ ____
ROOT
ATOM      1  C   UNL     1      -1.139  -0.174   0.601  0.00  0.00    -0.043 A 
ATOM      2  C   UNL     1      -1.410  -0.884  -0.553  0.00  0.00    +0.009 A 
ATOM      3  C   UNL     1      -2.678  -1.393  -0.778  0.00  0.00    -0.018 A 
ATOM      4  C   UNL     1      -3.678  -1.192   0.158  0.00  0.00    +0.148 A 
ATOM      5  C   UNL     1      -3.401  -0.474   1.317  0.00  0.00    +0.147 A 
ATOM      6  C   UNL     1      -2.135   0.027   1.539  0.00  0.00    +0.036 A 
ATOM      7  O   UNL     1      -4.932  -1.683  -0.017  0.00  0.00    -0.490 OA
ATOM      8  C   UNL     1      -5.314  -2.085  -1.333  0.00  0.00    +0.228 C 
ATOM      9  C   UNL     1      -4.214  -2.990  -1.902  0.00  0.00    +0.029 C 
ATOM     10  C   UNL     1      -2.937  -2.159  -2.051  0.00  0.00    -0.037 C 
ENDROOT
BRANCH  10  11
ATOM     11  N   UNL     1      -1.802  -3.050  -2.325  0.00  0.00    +0.383 N 
ATOM     12  H   UNL     1      -1.691  -3.698  -1.559  0.00  0.00    -0.089 HD
ATOM     13  H   UNL     1      -1.975  -3.563  -3.176  0.00  0.00    -0.089 HD
ATOM     14  H   UNL     1      -0.961  -2.503  -2.426  0.00  0.00    -0.089 HD
ENDBRANCH  10  11
BRANCH   1  16
ATOM     15  C   UNL     1       0.170   1.898   0.980  0.00  0.00    +0.012 C 
ATOM     16  C   UNL     1       0.243   0.376   0.839  0.00  0.00    +0.013 C 
ATOM     17  C   UNL     1       0.818  -0.227   2.123  0.00  0.00    +0.012 C 
ENDBRANCH   1  16
BRANCH   5  18
ATOM     18  S   UNL     1      -4.671  -0.210   2.510  0.00  0.00    +0.062 S 
ATOM     19  O   UNL     1      -4.077   0.505   3.584  0.00  0.00    -0.153 OA
ATOM     20  O   UNL     1      -5.800   0.282   1.800  0.00  0.00    -0.153 OA
BRANCH  18  21
ATOM     21  N   UNL     1      -5.098  -1.694   3.107  0.00  0.00    -0.187 NA
ATOM     22  H   UNL     1      -5.989  -2.043   2.950  0.00  0.00    +0.148 HD
BRANCH  21  23
ATOM     23  C   UNL     1      -4.129  -2.481   3.874  0.00  0.00    +0.077 C 
ATOM     24  C   UNL     1      -4.196  -4.005   3.746  0.00  0.00    +0.022 C 
ATOM     25  C   UNL     1      -4.663  -3.324   5.034  0.00  0.00    +0.022 C 
ENDBRANCH  21  23
ENDBRANCH  18  21
ENDBRANCH   5  18
TORSDOF 5
