REMARK  Name = ZINC12976019
REMARK  9 active torsions:
REMARK  status: ('A' for Active; 'I' for Inactive)
REMARK    1  A    between atoms: C_1  and  C_2
REMARK    2  A    between atoms: C_2  and  C_3
REMARK    3  A    between atoms: C_3  and  C_5
REMARK    4  A    between atoms: C_3  and  N_6
REMARK    5  A    between atoms: C_9  and  C_22
REMARK    6  A    between atoms: N_13  and  C_14
REMARK    7  A    between atoms: C_22  and  C_23
REMARK    8  A    between atoms: N_25  and  C_26
REMARK    9  A    between atoms: C_30  and  N_32
REMARK                            x       y       z     vdW  Elec       q    Type
REMARK                         _______ _______ _______ _____ _____    ______ ____
ROOT
ATOM      1  N   UNL     1      -0.720   1.557  -1.179  0.00  0.00    -0.247 N 
ATOM      2  C   UNL     1      -1.208   0.680  -2.039  0.00  0.00    +0.235 C 
ATOM      3  O   UNL     1      -1.086  -0.515  -1.880  0.00  0.00    -0.274 OA
ATOM      4  C   UNL     1      -1.933   1.265  -3.241  0.00  0.00    +0.149 C 
ATOM      5  S   UNL     1      -1.765   3.059  -2.886  0.00  0.00    -0.077 S 
ATOM      6  C   UNL     1      -0.861   2.918  -1.352  0.00  0.00    +0.164 C 
ATOM      7  N   UNL     1      -0.430   3.883  -0.574  0.00  0.00    -0.223 NA
ENDROOT
BRANCH   7   8
ATOM      8  C   UNL     1      -0.665   5.191  -0.910  0.00  0.00    +0.102 A 
ATOM      9  C   UNL     1      -1.895   5.565  -1.452  0.00  0.00    +0.033 A 
ATOM     10  C   UNL     1      -2.127   6.883  -1.789  0.00  0.00    +0.040 A 
ATOM     11  C   UNL     1      -1.141   7.836  -1.589  0.00  0.00    +0.126 A 
ATOM     12  C   UNL     1       0.083   7.472  -1.052  0.00  0.00    +0.078 A 
ATOM     13  C   UNL     1       0.324   6.157  -0.706  0.00  0.00    +0.151 A 
ATOM     14  F   UNL     1       1.516   5.803  -0.175  0.00  0.00    -0.203 F 
ATOM     15  F   UNL     1      -1.374   9.125  -1.921  0.00  0.00    -0.205 F 
ENDBRANCH   7   8
BRANCH   1  16
ATOM     16  C   UNL     1      -0.009   1.065   0.004  0.00  0.00    +0.080 C 
ATOM     17  C   UNL     1      -0.726   1.548   1.267  0.00  0.00    +0.028 C 
BRANCH  16  19
ATOM     18  C   UNL     1       2.179   1.015  -1.200  0.00  0.00    +0.006 C 
ATOM     19  C   UNL     1       1.425   1.598  -0.004  0.00  0.00    +0.019 C 
ENDBRANCH  16  19
ENDBRANCH   1  16
BRANCH   4  20
ATOM     20  C   UNL     1      -3.402   0.840  -3.264  0.00  0.00    +0.120 C 
BRANCH  20  21
ATOM     21  C   UNL     1      -4.050   1.337  -4.530  0.00  0.00    +0.219 C 
ATOM     22  O   UNL     1      -3.400   1.970  -5.335  0.00  0.00    -0.275 OA
ATOM     23  N   UNL     1      -5.351   1.079  -4.768  0.00  0.00    -0.285 N 
ATOM     24  H   UNL     1      -5.853   0.517  -4.157  0.00  0.00    +0.155 HD
BRANCH  23  25
ATOM     25  C   UNL     1      -5.978   1.623  -5.895  0.00  0.00    +0.036 A 
ATOM     26  C   UNL     1      -5.269   1.773  -7.080  0.00  0.00    +0.023 A 
ATOM     27  C   UNL     1      -5.890   2.310  -8.191  0.00  0.00    +0.004 A 
ATOM     28  C   UNL     1      -7.216   2.697  -8.124  0.00  0.00    +0.033 A 
ATOM     29  C   UNL     1      -7.924   2.548  -6.946  0.00  0.00    +0.128 A 
ATOM     30  C   UNL     1      -7.310   2.007  -5.833  0.00  0.00    +0.056 A 
BRANCH  29  31
ATOM     31  N   UNL     1      -9.343   2.964  -6.878  0.00  0.00    +0.056 N 
ATOM     32  O   UNL     1      -9.886   3.437  -7.860  0.00  0.00    -0.126 OA
ATOM     33  O   UNL     1      -9.967   2.833  -5.840  0.00  0.00    -0.126 OA
ENDBRANCH  29  31
ENDBRANCH  23  25
ENDBRANCH  20  21
ENDBRANCH   4  20
TORSDOF 7
