REMARK  Name = ZINC13250010
REMARK  9 active torsions:
REMARK  status: ('A' for Active; 'I' for Inactive)
REMARK    1  A    between atoms: C_1  and  C_2
REMARK    2  A    between atoms: C_7  and  N_12
REMARK    3  A    between atoms: C_9  and  C_11
REMARK    4  A    between atoms: N_12  and  C_13
REMARK    5  A    between atoms: N_12  and  S_23
REMARK    6  A    between atoms: C_13  and  C_14
REMARK    7  A    between atoms: S_23  and  C_26
REMARK    8  A    between atoms: C_29  and  C_32
REMARK    9  A    between atoms: C_33  and  C_34
REMARK                            x       y       z     vdW  Elec       q    Type
REMARK                         _______ _______ _______ _____ _____    ______ ____
ROOT
ATOM      1  N   UNL     1       2.746   0.824  -1.345  0.00  0.00    -0.169 NA
ENDROOT
BRANCH   1   7
ATOM      2  C   UNL     1       3.193  -4.084  -1.747  0.00  0.00    +0.008 C 
ATOM      3  C   UNL     1       2.404  -2.853  -2.199  0.00  0.00    -0.010 C 
ATOM      4  C   UNL     1       2.506  -2.713  -3.719  0.00  0.00    +0.003 C 
ATOM      5  C   UNL     1       1.717  -1.482  -4.172  0.00  0.00    +0.002 C 
ATOM      6  C   UNL     1       2.295  -0.232  -3.504  0.00  0.00    +0.021 C 
ATOM      7  C   UNL     1       2.193  -0.373  -1.984  0.00  0.00    +0.083 C 
ATOM      8  C   UNL     1       2.982  -1.604  -1.532  0.00  0.00    +0.008 C 
ATOM      9  C   UNL     1       4.450  -1.444  -1.932  0.00  0.00    +0.009 C 
ENDBRANCH   1   7
BRANCH   1  10
ATOM     10  S   UNL     1       3.539   1.957  -2.255  0.00  0.00    +0.061 S 
ATOM     11  O   UNL     1       2.947   1.928  -3.547  0.00  0.00    -0.153 OA
ATOM     12  O   UNL     1       3.596   3.140  -1.470  0.00  0.00    -0.153 OA
BRANCH  10  13
ATOM     13  C   UNL     1       5.199   1.401  -2.450  0.00  0.00    +0.106 A 
ATOM     14  C   UNL     1       6.162   1.773  -1.528  0.00  0.00    +0.029 A 
ATOM     15  C   UNL     1       7.463   1.338  -1.671  0.00  0.00    +0.010 A 
ATOM     16  C   UNL     1       7.810   0.527  -2.756  0.00  0.00    -0.025 A 
ATOM     17  C   UNL     1       6.832   0.160  -3.686  0.00  0.00    +0.010 A 
ATOM     18  C   UNL     1       5.535   0.599  -3.527  0.00  0.00    +0.029 A 
BRANCH  16  19
ATOM     19  C   UNL     1       9.197   0.063  -2.919  0.00  0.00    +0.015 C 
ATOM     20  C   UNL     1      10.138   0.419  -2.020  0.00  0.00    +0.096 C 
BRANCH  20  21
ATOM     21  C   UNL     1      11.516  -0.042  -2.182  0.00  0.00    +0.380 C 
ATOM     22  O   UNL     1      11.815  -0.746  -3.127  0.00  0.00    -0.241 OA
ATOM     23  O   UNL     1      12.457   0.315  -1.283  0.00  0.00    -0.241 OA
ENDBRANCH  20  21
ENDBRANCH  16  19
ENDBRANCH  10  13
ENDBRANCH   1  10
BRANCH   1  24
ATOM     24  C   UNL     1       2.598   1.017   0.100  0.00  0.00    +0.145 C 
BRANCH  24  25
ATOM     25  C   UNL     1       1.225   1.565   0.395  0.00  0.00    -0.028 A 
ATOM     26  C   UNL     1       1.040   2.929   0.524  0.00  0.00    +0.009 A 
ATOM     27  C   UNL     1      -0.217   3.436   0.794  0.00  0.00    +0.050 A 
ATOM     28  C   UNL     1      -1.296   2.577   0.936  0.00  0.00    +0.166 A 
ATOM     29  C   UNL     1      -1.110   1.204   0.801  0.00  0.00    +0.167 A 
ATOM     30  C   UNL     1       0.154   0.702   0.535  0.00  0.00    +0.054 A 
ATOM     31  O   UNL     1      -2.312   0.581   0.977  0.00  0.00    -0.453 OA
ATOM     32  C   UNL     1      -3.305   1.610   0.809  0.00  0.00    +0.466 C 
ATOM     33  O   UNL     1      -2.614   2.815   1.199  0.00  0.00    -0.453 OA
ENDBRANCH  24  25
ENDBRANCH   1  24
TORSDOF 7
