REMARK  Name = ZINC59241255
REMARK  9 active torsions:
REMARK  status: ('A' for Active; 'I' for Inactive)
REMARK    1  A    between atoms: C_1  and  O_2
REMARK    2  A    between atoms: O_2  and  C_3
REMARK    3  A    between atoms: C_7  and  O_28
REMARK    4  A    between atoms: C_8  and  C_9
REMARK    5  A    between atoms: N_11  and  C_12
REMARK    6  A    between atoms: C_15  and  S_18
REMARK    7  A    between atoms: S_18  and  N_21
REMARK    8  A    between atoms: N_21  and  C_22
REMARK    9  A    between atoms: O_28  and  C_29
REMARK                            x       y       z     vdW  Elec       q    Type
REMARK                         _______ _______ _______ _____ _____    ______ ____
ROOT
ATOM      1  C   UNL     1      -1.726  -4.062  -0.851  0.00  0.00    +0.034 A 
ATOM      2  C   UNL     1      -0.909  -4.484  -1.892  0.00  0.00    +0.025 A 
ATOM      3  C   UNL     1      -1.415  -5.317  -2.871  0.00  0.00    +0.030 A 
ATOM      4  C   UNL     1      -2.733  -5.731  -2.815  0.00  0.00    +0.105 A 
ATOM      5  C   UNL     1      -3.549  -5.313  -1.780  0.00  0.00    +0.030 A 
ATOM      6  C   UNL     1      -3.048  -4.485  -0.795  0.00  0.00    +0.025 A 
ENDROOT
BRANCH   1   9
ATOM      7  C   UNL     1      -1.636  -3.349   1.416  0.00  0.00    +0.255 C 
ATOM      8  O   UNL     1      -2.516  -4.143   1.689  0.00  0.00    -0.270 OA
ATOM      9  N   UNL     1      -1.218  -3.218   0.141  0.00  0.00    -0.281 N 
ATOM     10  H   UNL     1      -0.565  -2.539  -0.087  0.00  0.00    +0.155 HD
BRANCH   7  16
ATOM     11  C   UNL     1       0.099  -2.998   3.172  0.00  0.00    +0.136 A 
ATOM     12  C   UNL     1       0.667  -2.217   4.165  0.00  0.00    +0.046 A 
ATOM     13  C   UNL     1       0.125  -0.984   4.477  0.00  0.00    +0.007 A 
ATOM     14  C   UNL     1      -0.987  -0.516   3.803  0.00  0.00    +0.046 A 
ATOM     15  C   UNL     1      -1.572  -1.280   2.806  0.00  0.00    +0.136 A 
ATOM     16  C   UNL     1      -1.027  -2.531   2.478  0.00  0.00    +0.120 A 
BRANCH  11  18
ATOM     17  C   UNL     1       1.778  -4.618   3.617  0.00  0.00    +0.277 C 
ATOM     18  O   UNL     1       0.632  -4.208   2.869  0.00  0.00    -0.494 OA
ENDBRANCH  11  18
BRANCH  15  19
ATOM     19  O   UNL     1      -2.664  -0.819   2.146  0.00  0.00    -0.494 OA
ATOM     20  C   UNL     1      -3.160   0.465   2.531  0.00  0.00    +0.277 C 
ENDBRANCH  15  19
ENDBRANCH   7  16
ENDBRANCH   1   9
BRANCH   4  21
ATOM     21  S   UNL     1      -3.373  -6.794  -4.066  0.00  0.00    +0.059 S 
ATOM     22  O   UNL     1      -4.781  -6.598  -4.084  0.00  0.00    -0.153 OA
ATOM     23  O   UNL     1      -2.563  -6.602  -5.217  0.00  0.00    -0.153 OA
BRANCH  21  24
ATOM     24  N   UNL     1      -3.119  -8.351  -3.562  0.00  0.00    -0.187 NA
ATOM     25  H   UNL     1      -2.518  -8.929  -4.059  0.00  0.00    +0.148 HD
BRANCH  24  26
ATOM     26  C   UNL     1      -3.801  -8.856  -2.368  0.00  0.00    +0.077 C 
ATOM     27  C   UNL     1      -2.884  -8.700  -1.153  0.00  0.00    +0.020 C 
ATOM     28  C   UNL     1      -3.595  -9.227   0.094  0.00  0.00    +0.002 C 
ATOM     29  C   UNL     1      -3.938 -10.705  -0.100  0.00  0.00    +0.000 C 
ATOM     30  C   UNL     1      -4.856 -10.861  -1.315  0.00  0.00    +0.002 C 
ATOM     31  C   UNL     1      -4.143 -10.334  -2.562  0.00  0.00    +0.020 C 
ENDBRANCH  24  26
ENDBRANCH  21  24
ENDBRANCH   4  21
TORSDOF 7
