REMARK  Name = ZINC27550111
REMARK  7 active torsions:
REMARK  status: ('A' for Active; 'I' for Inactive)
REMARK    1  A    between atoms: C_4  and  N_7
REMARK    2  A    between atoms: N_8  and  C_9
REMARK    3  A    between atoms: C_12  and  N_15
REMARK    4  A    between atoms: C_19  and  N_23
REMARK    5  A    between atoms: N_23  and  C_24
REMARK    6  A    between atoms: C_24  and  C_25
REMARK    7  A    between atoms: C_25  and  C_26
REMARK                            x       y       z     vdW  Elec       q    Type
REMARK                         _______ _______ _______ _____ _____    ______ ____
ROOT
ATOM      1  N   UNL     1      -1.115  -4.778   0.088  0.00  0.00    -0.212 N 
ATOM      2  C   UNL     1      -2.316  -4.193  -0.006  0.00  0.00    +0.225 C 
ATOM      3  O   UNL     1      -2.510  -3.001  -0.108  0.00  0.00    -0.275 OA
ATOM      4  C   UNL     1      -3.392  -5.256   0.034  0.00  0.00    +0.090 C 
ATOM      5  C   UNL     1      -2.597  -6.571   0.169  0.00  0.00    +0.026 C 
ATOM      6  C   UNL     1      -1.155  -6.113   0.185  0.00  0.00    +0.213 C 
ATOM      7  O   UNL     1      -0.188  -6.839   0.275  0.00  0.00    -0.277 OA
ENDROOT
BRANCH   1  11
ATOM      8  C   UNL     1       2.455  -2.622   0.061  0.00  0.00    +0.086 A 
ATOM      9  C   UNL     1       2.469  -3.999   0.305  0.00  0.00    +0.031 A 
ATOM     10  C   UNL     1       1.288  -4.707   0.314  0.00  0.00    +0.026 A 
ATOM     11  C   UNL     1       0.083  -4.055   0.079  0.00  0.00    +0.044 A 
ATOM     12  C   UNL     1       0.064  -2.686  -0.165  0.00  0.00    +0.026 A 
ATOM     13  C   UNL     1       1.239  -1.969  -0.168  0.00  0.00    +0.031 A 
BRANCH   8  15
ATOM     14  N   UNL     1       3.602  -0.632   0.171  0.00  0.00    -0.149 NA
ATOM     15  N   UNL     1       3.623  -1.916   0.052  0.00  0.00    -0.149 NA
BRANCH  14  19
ATOM     16  C   UNL     1       0.644   1.189   2.418  0.00  0.00    +0.000 A 
ATOM     17  C   UNL     1       0.880  -0.167   2.559  0.00  0.00    +0.002 A 
ATOM     18  C   UNL     1       1.864  -0.781   1.814  0.00  0.00    +0.029 A 
ATOM     19  C   UNL     1       2.624  -0.030   0.913  0.00  0.00    +0.086 A 
ATOM     20  C   UNL     1       2.381   1.339   0.776  0.00  0.00    +0.029 A 
ATOM     21  C   UNL     1       1.393   1.940   1.528  0.00  0.00    +0.002 A 
ENDBRANCH  14  19
ENDBRANCH   8  15
ENDBRANCH   1  11
BRANCH   5  22
ATOM     22  N   UNL     1      -2.847  -7.447  -0.983  0.00  0.00    +0.387 N 
ATOM     23  H   UNL     1      -3.840  -7.597  -1.083  0.00  0.00    -0.085 HD
ATOM     24  H   UNL     1      -2.487  -7.013  -1.820  0.00  0.00    -0.085 HD
BRANCH  22  25
ATOM     25  C   UNL     1      -2.175  -8.736  -0.773  0.00  0.00    -0.077 C 
BRANCH  25  26
ATOM     26  C   UNL     1      -2.435  -9.648  -1.974  0.00  0.00    +0.019 C 
BRANCH  26  27
ATOM     27  C   UNL     1      -1.746 -10.971  -1.758  0.00  0.00    -0.014 A 
ATOM     28  C   UNL     1      -0.484 -11.186  -2.280  0.00  0.00    +0.006 A 
ATOM     29  C   UNL     1       0.148 -12.399  -2.083  0.00  0.00    +0.000 A 
ATOM     30  C   UNL     1      -0.480 -13.399  -1.363  0.00  0.00    +0.003 A 
ATOM     31  C   UNL     1      -1.741 -13.186  -0.839  0.00  0.00    +0.038 A 
ATOM     32  C   UNL     1      -2.373 -11.969  -1.032  0.00  0.00    +0.126 A 
ATOM     33  F   UNL     1      -3.604 -11.758  -0.517  0.00  0.00    -0.205 F 
ENDBRANCH  26  27
ENDBRANCH  25  26
ENDBRANCH  22  25
ENDBRANCH   5  22
TORSDOF 7
