REMARK  Name = ZINC00196772
REMARK  4 active torsions:
REMARK  status: ('A' for Active; 'I' for Inactive)
REMARK    1  A    between atoms: C_6  and  C_7
REMARK    2  A    between atoms: C_12  and  N_21
REMARK    3  A    between atoms: C_16  and  N_20
REMARK    4  A    between atoms: C_17  and  C_18
REMARK                            x       y       z     vdW  Elec       q    Type
REMARK                         _______ _______ _______ _____ _____    ______ ____
ROOT
ATOM      1  C   UNL     1      -1.293  -0.775   0.011  0.00  0.00    +0.098 C 
ATOM      2  C   UNL     1      -1.374  -1.628  -1.228  0.00  0.00    +0.008 A 
ATOM      3  C   UNL     1      -1.686  -1.039  -2.440  0.00  0.00    +0.010 A 
ATOM      4  C   UNL     1      -1.766  -1.805  -3.586  0.00  0.00    +0.023 A 
ATOM      5  C   UNL     1      -1.531  -3.173  -3.524  0.00  0.00    +0.028 A 
ATOM      6  C   UNL     1      -1.217  -3.766  -2.310  0.00  0.00    +0.069 A 
ATOM      7  C   UNL     1      -1.139  -2.993  -1.159  0.00  0.00    +0.136 A 
ATOM      8  O   UNL     1      -0.831  -3.587   0.020  0.00  0.00    -0.441 OA
ATOM      9  C   UNL     1      -1.121  -2.970   1.177  0.00  0.00    +0.199 C 
ATOM     10  C   UNL     1      -1.349  -1.640   1.238  0.00  0.00    +0.098 C 
ENDROOT
BRANCH   1  16
ATOM     11  C   UNL     1      -0.017   1.378   0.010  0.00  0.00    +0.006 A 
ATOM     12  C   UNL     1       1.171   2.086   0.002  0.00  0.00    +0.020 A 
ATOM     13  C   UNL     1       2.378   1.410  -0.013  0.00  0.00    +0.041 A 
ATOM     14  C   UNL     1       2.396   0.027  -0.021  0.00  0.00    +0.020 A 
ATOM     15  C   UNL     1       1.208  -0.679  -0.013  0.00  0.00    +0.006 A 
ATOM     16  C   UNL     1       0.002  -0.004   0.002  0.00  0.00    -0.035 A 
ATOM     17 CL   UNL     1       3.870   2.298  -0.023  0.00  0.00    -0.084 Cl
ENDBRANCH   1  16
BRANCH   9  18
ATOM     18  N   UNL     1      -1.186  -3.712   2.330  0.00  0.00    -0.328 N 
ATOM     19  H   UNL     1      -1.024  -4.668   2.302  0.00  0.00    +0.145 HD
ATOM     20  H   UNL     1      -1.394  -3.280   3.174  0.00  0.00    +0.145 HD
ENDBRANCH   9  18
BRANCH   5  21
ATOM     21  N   UNL     1      -1.611  -3.950  -4.682  0.00  0.00    -0.358 N 
ATOM     22  H   UNL     1      -1.831  -3.535  -5.530  0.00  0.00    +0.142 HD
ATOM     23  H   UNL     1      -1.447  -4.905  -4.638  0.00  0.00    +0.142 HD
ENDBRANCH   5  21
BRANCH  10  24
ATOM     24  C   UNL     1      -1.653  -1.042   2.504  0.00  0.00    +0.101 C 
ATOM     25  N   UNL     1      -1.893  -0.568   3.508  0.00  0.00    -0.191 NA
ENDBRANCH  10  24
TORSDOF 4
