REMARK  Name = ZINC15015764
REMARK  10 active torsions:
REMARK  status: ('A' for Active; 'I' for Inactive)
REMARK    1  A    between atoms: C_1  and  C_2
REMARK    2  A    between atoms: C_2  and  C_3
REMARK    3  A    between atoms: C_3  and  C_4
REMARK    4  A    between atoms: C_4  and  S_5
REMARK    5  A    between atoms: S_5  and  C_6
REMARK    6  A    between atoms: C_19  and  C_22
REMARK    7  A    between atoms: C_24  and  O_30
REMARK    8  A    between atoms: C_27  and  O_28
REMARK    9  A    between atoms: O_28  and  C_29
REMARK   10  A    between atoms: O_30  and  C_31
REMARK                            x       y       z     vdW  Elec       q    Type
REMARK                         _______ _______ _______ _____ _____    ______ ____
ROOT
ATOM      1  C   UNL     1      -5.601   6.663   2.122  0.00  0.00    +0.212 A 
ATOM      2  N   UNL     1      -4.353   6.298   1.841  0.00  0.00    -0.184 NA
ATOM      3  C   UNL     1      -4.081   5.018   1.653  0.00  0.00    +0.248 A 
ATOM      4  C   UNL     1      -5.132   4.078   1.752  0.00  0.00    +0.156 A 
ATOM      5  N   UNL     1      -6.352   4.508   2.037  0.00  0.00    -0.141 NA
ATOM      6  N   UNL     1      -6.572   5.764   2.216  0.00  0.00    -0.122 NA
ATOM      7  C   UNL     1      -4.851   2.644   1.536  0.00  0.00    +0.029 A 
ATOM      8  C   UNL     1      -5.328   1.671   2.405  0.00  0.00    +0.027 A 
ATOM      9  C   UNL     1      -5.071   0.337   2.150  0.00  0.00    +0.019 A 
ATOM     10  C   UNL     1      -4.341  -0.035   1.033  0.00  0.00    +0.017 A 
ATOM     11  C   UNL     1      -3.855   0.925   0.164  0.00  0.00    +0.025 A 
ATOM     12  C   UNL     1      -4.099   2.263   0.409  0.00  0.00    +0.040 A 
ATOM     13  N   UNL     1      -3.609   3.261  -0.440  0.00  0.00    -0.305 N 
ATOM     14  C   UNL     1      -2.560   4.150   0.051  0.00  0.00    +0.297 C 
ATOM     15  O   UNL     1      -2.825   4.595   1.376  0.00  0.00    -0.449 OA
ATOM     16 BR   UNL     1      -5.719  -0.989   3.333  0.00  0.00    -0.050 Br
ATOM     17  H   UNL     1      -3.960   3.361  -1.339  0.00  0.00    +0.150 HD
ENDROOT
BRANCH  14  18
ATOM     18  C   UNL     1      -1.245   3.414   0.033  0.00  0.00    +0.056 A 
ATOM     19  C   UNL     1      -0.792   2.781   1.175  0.00  0.00    +0.058 A 
ATOM     20  C   UNL     1       0.421   2.110   1.161  0.00  0.00    +0.121 A 
ATOM     21  C   UNL     1       1.174   2.063  -0.004  0.00  0.00    +0.049 A 
ATOM     22  C   UNL     1       0.718   2.690  -1.147  0.00  0.00    +0.049 A 
ATOM     23  C   UNL     1      -0.493   3.367  -1.131  0.00  0.00    +0.129 A 
BRANCH  23  24
ATOM     24  O   UNL     1      -0.942   3.984  -2.256  0.00  0.00    -0.495 OA
ATOM     25  C   UNL     1      -0.115   3.895  -3.418  0.00  0.00    +0.277 C 
ENDBRANCH  23  24
BRANCH  20  26
ATOM     26  O   UNL     1       0.870   1.492   2.286  0.00  0.00    -0.495 OA
ATOM     27  C   UNL     1       2.125   0.815   2.198  0.00  0.00    +0.277 C 
ENDBRANCH  20  26
ENDBRANCH  14  18
BRANCH   1  28
ATOM     28  S   UNL     1      -5.969   8.368   2.373  0.00  0.00    -0.084 S 
BRANCH  28  29
ATOM     29  C   UNL     1      -7.745   8.260   2.707  0.00  0.00    +0.077 C 
BRANCH  29  30
ATOM     30  C   UNL     1      -8.302   9.662   2.963  0.00  0.00    +0.011 C 
BRANCH  30  32
ATOM     31  C   UNL     1     -10.360  10.972   3.501  0.00  0.00    +0.004 C 
ATOM     32  C   UNL     1      -9.803   9.570   3.244  0.00  0.00    -0.003 C 
ENDBRANCH  30  32
ENDBRANCH  29  30
ENDBRANCH  28  29
ENDBRANCH   1  28
TORSDOF 7
