REMARK  Name = ZINC04637047
REMARK  8 active torsions:
REMARK  status: ('A' for Active; 'I' for Inactive)
REMARK    1  A    between atoms: C_1  and  C_2
REMARK    2  A    between atoms: C_3  and  C_30
REMARK    3  A    between atoms: C_4  and  C_21
REMARK    4  A    between atoms: C_10  and  C_15
REMARK    5  A    between atoms: C_24  and  N_27
REMARK    6  A    between atoms: N_27  and  C_28
REMARK    7  A    between atoms: N_27  and  C_29
REMARK    8  A    between atoms: N_32  and  C_33
REMARK                            x       y       z     vdW  Elec       q    Type
REMARK                         _______ _______ _______ _____ _____    ______ ____
ROOT
ATOM      1  C   UNL     1      -0.017   1.051   0.014  0.00  0.00    +0.061 C 
ATOM      2  C   UNL     1      -0.724   1.537   1.253  0.00  0.00    +0.014 C 
ATOM      3  C   UNL     1      -0.039   1.680   2.399  0.00  0.00    +0.043 C 
ATOM      4  C   UNL     1      -0.711   2.154   3.654  0.00  0.00    +0.090 C 
ATOM      5  C   UNL     1      -2.027   2.822   3.344  0.00  0.00    +0.024 C 
ATOM      6  C   UNL     1      -2.635   2.627   2.154  0.00  0.00    +0.016 C 
ATOM      7  N   UNL     1      -2.058   1.835   1.200  0.00  0.00    -0.321 N 
ATOM      8  C   UNL     1      -3.958   3.282   1.841  0.00  0.00    +0.059 C 
ATOM      9  C   UNL     1      -4.055   4.620   2.577  0.00  0.00    +0.032 C 
ATOM     10  C   UNL     1      -3.903   4.361   4.080  0.00  0.00    +0.088 C 
ATOM     11  C   UNL     1      -2.600   3.651   4.324  0.00  0.00    +0.162 C 
ATOM     12  O   UNL     1      -2.031   3.796   5.388  0.00  0.00    -0.292 OA
ATOM     13  H   UNL     1      -2.679   1.437   0.385  0.00  0.00    +0.152 HD
ENDROOT
BRANCH   9  14
ATOM     14  C   UNL     1      -5.397   5.250   2.305  0.00  0.00    -0.044 A 
ATOM     15  C   UNL     1      -6.557   4.578   2.640  0.00  0.00    +0.004 A 
ATOM     16  C   UNL     1      -7.788   5.158   2.395  0.00  0.00    +0.000 A 
ATOM     17  C   UNL     1      -7.858   6.407   1.806  0.00  0.00    +0.000 A 
ATOM     18  C   UNL     1      -6.698   7.077   1.467  0.00  0.00    +0.000 A 
ATOM     19  C   UNL     1      -5.467   6.499   1.716  0.00  0.00    +0.004 A 
ENDBRANCH   9  14
BRANCH   4  20
ATOM     20  C   UNL     1      -0.957   0.975   4.559  0.00  0.00    -0.035 A 
ATOM     21  C   UNL     1      -1.752  -0.071   4.129  0.00  0.00    +0.006 A 
ATOM     22  C   UNL     1      -1.974  -1.156   4.954  0.00  0.00    +0.023 A 
ATOM     23  C   UNL     1      -1.408  -1.190   6.222  0.00  0.00    +0.029 A 
ATOM     24  C   UNL     1      -0.615  -0.135   6.654  0.00  0.00    +0.023 A 
ATOM     25  C   UNL     1      -0.392   0.945   5.821  0.00  0.00    +0.006 A 
BRANCH  23  26
ATOM     26  N   UNL     1      -1.637  -2.283   7.062  0.00  0.00    -0.336 N 
ATOM     27  C   UNL     1      -1.039  -2.317   8.399  0.00  0.00    +0.129 C 
ATOM     28  C   UNL     1      -2.474  -3.395   6.605  0.00  0.00    +0.129 C 
ENDBRANCH  23  26
ENDBRANCH   4  20
BRANCH   3  29
ATOM     29  C   UNL     1       1.345   1.378   2.424  0.00  0.00    +0.247 C 
ATOM     30  O   UNL     1       1.923   1.085   1.393  0.00  0.00    -0.270 OA
ATOM     31  N   UNL     1       2.022   1.413   3.589  0.00  0.00    -0.279 N 
ATOM     32  H   UNL     1       1.487   1.607   4.530  0.00  0.00    +0.155 HD
BRANCH  31  33
ATOM     33  C   UNL     1       3.407   1.204   3.601  0.00  0.00    +0.069 A 
ATOM     34  C   UNL     1       3.983   0.314   2.705  0.00  0.00    +0.029 A 
ATOM     35  C   UNL     1       5.349   0.109   2.717  0.00  0.00    +0.040 A 
ATOM     36  C   UNL     1       6.145   0.791   3.623  0.00  0.00    +0.126 A 
ATOM     37  C   UNL     1       5.574   1.679   4.519  0.00  0.00    +0.078 A 
ATOM     38  C   UNL     1       4.207   1.891   4.506  0.00  0.00    +0.147 A 
ATOM     39  F   UNL     1       3.650   2.762   5.377  0.00  0.00    -0.203 F 
ATOM     40  F   UNL     1       7.481   0.589   3.633  0.00  0.00    -0.205 F 
ENDBRANCH  31  33
ENDBRANCH   3  29
TORSDOF 5
