REMARK  Name = ZINC40320148
REMARK  12 active torsions:
REMARK  status: ('A' for Active; 'I' for Inactive)
REMARK    1  A    between atoms: C_1  and  O_2
REMARK    2  A    between atoms: O_2  and  C_3
REMARK    3  A    between atoms: C_5  and  C_31
REMARK    4  A    between atoms: C_8  and  O_9
REMARK    5  A    between atoms: O_9  and  C_10
REMARK    6  A    between atoms: C_10  and  C_11
REMARK    7  A    between atoms: C_11  and  C_13
REMARK    8  A    between atoms: C_11  and  O_30
REMARK    9  A    between atoms: C_13  and  N_14
REMARK   10  A    between atoms: N_14  and  C_15
REMARK   11  A    between atoms: N_14  and  C_22
REMARK   12  A    between atoms: C_15  and  C_16
REMARK                            x       y       z     vdW  Elec       q    Type
REMARK                         _______ _______ _______ _____ _____    ______ ____
ROOT
ATOM      1  C   UNL     1      -0.769  -6.170  -0.690  0.00  0.00    -0.043 C 
ENDROOT
BRANCH   1   2
ATOM      2  N   UNL     1      -1.488  -6.992  -1.671  0.00  0.00    +0.389 N 
ATOM      3  H   UNL     1      -2.481  -6.842  -1.574  0.00  0.00    -0.081 HD
BRANCH   2   4
ATOM      4  C   UNL     1      -1.067  -6.616  -3.028  0.00  0.00    -0.045 C 
ATOM      5  C   UNL     1      -2.148  -7.030  -4.041  0.00  0.00    +0.009 C 
ATOM      6  C   UNL     1      -1.586  -6.935  -5.480  0.00  0.00    +0.164 C 
ATOM      7  S   UNL     1       0.213  -7.224  -5.231  0.00  0.00    -0.033 S 
ATOM      8  O   UNL     1       0.927  -6.060  -5.623  0.00  0.00    -0.174 OA
ATOM      9  O   UNL     1       0.562  -8.481  -5.795  0.00  0.00    -0.174 OA
ATOM     10  C   UNL     1       0.249  -7.359  -3.394  0.00  0.00    +0.151 C 
ENDBRANCH   2   4
BRANCH   2  11
ATOM     11  C   UNL     1      -1.183  -8.411  -1.440  0.00  0.00    -0.003 C 
BRANCH  11  12
ATOM     12  C   UNL     1      -2.019  -9.261  -2.361  0.00  0.00    +0.090 A 
ATOM     13  C   UNL     1      -1.581  -9.881  -3.472  0.00  0.00    +0.044 A 
ATOM     14  C   UNL     1      -2.689 -10.562  -4.025  0.00  0.00    +0.057 A 
ATOM     15  C   UNL     1      -3.739 -10.318  -3.219  0.00  0.00    +0.170 A 
ATOM     16  O   UNL     1      -3.325  -9.534  -2.210  0.00  0.00    -0.455 OA
ATOM     17 BR   UNL     1      -5.497 -10.973  -3.462  0.00  0.00    -0.008 Br
ENDBRANCH  11  12
ENDBRANCH   2  11
ENDBRANCH   1   2
BRANCH   1  18
ATOM     18  C   UNL     1      -1.302  -4.737  -0.737  0.00  0.00    +0.135 C 
BRANCH  18  19
ATOM     19  O   UNL     1      -0.938  -4.134  -1.980  0.00  0.00    -0.390 OA
ATOM     20  H   UNL     1       0.012  -4.153  -2.163  0.00  0.00    +0.210 HD
ENDBRANCH  18  19
BRANCH  18  21
ATOM     21  C   UNL     1      -0.701  -3.930   0.416  0.00  0.00    +0.258 C 
BRANCH  21  22
ATOM     22  O   UNL     1      -1.286  -2.627   0.442  0.00  0.00    -0.486 OA
BRANCH  22  28
ATOM     23  C   UNL     1      -1.390  -0.492   1.494  0.00  0.00    +0.162 A 
ATOM     24  C   UNL     1      -0.962   0.370   2.483  0.00  0.00    +0.060 A 
ATOM     25  C   UNL     1       0.010  -0.049   3.400  0.00  0.00    +0.018 A 
ATOM     26  C   UNL     1       0.542  -1.341   3.308  0.00  0.00    +0.015 A 
ATOM     27  C   UNL     1       0.109  -2.194   2.318  0.00  0.00    +0.050 A 
ATOM     28  C   UNL     1      -0.859  -1.779   1.413  0.00  0.00    +0.162 A 
BRANCH  23  30
ATOM     29  C   UNL     1      -2.833   1.243   0.744  0.00  0.00    +0.277 C 
ATOM     30  O   UNL     1      -2.334  -0.088   0.602  0.00  0.00    -0.491 OA
ENDBRANCH  23  30
BRANCH  25  31
ATOM     31  C   UNL     1       0.470   0.864   4.455  0.00  0.00    +0.258 C 
ATOM     32  O   UNL     1       1.312   0.498   5.248  0.00  0.00    -0.296 OA
ENDBRANCH  25  31
ENDBRANCH  22  28
ENDBRANCH  21  22
ENDBRANCH  18  21
ENDBRANCH   1  18
TORSDOF 11
