REMARK  Name = ZINC20054337
REMARK  13 active torsions:
REMARK  status: ('A' for Active; 'I' for Inactive)
REMARK    1  A    between atoms: C_1  and  C_2
REMARK    2  A    between atoms: C_2  and  N_3
REMARK    3  A    between atoms: N_3  and  C_4
REMARK    4  A    between atoms: N_3  and  S_6
REMARK    5  A    between atoms: C_4  and  C_5
REMARK    6  A    between atoms: S_6  and  C_9
REMARK    7  A    between atoms: C_12  and  O_18
REMARK    8  A    between atoms: C_13  and  N_15
REMARK    9  A    between atoms: O_18  and  C_19
REMARK   10  A    between atoms: C_19  and  C_20
REMARK   11  A    between atoms: N_22  and  C_23
REMARK   12  A    between atoms: C_23  and  C_25
REMARK   13  A    between atoms: C_23  and  C_26
REMARK                            x       y       z     vdW  Elec       q    Type
REMARK                         _______ _______ _______ _____ _____    ______ ____
ROOT
ATOM      1  O   UNL     1       2.829   2.178   4.476  0.00  0.00    -0.480 OA
ENDROOT
BRANCH   1   5
ATOM      2  C   UNL     1       5.145   1.244   7.760  0.00  0.00    +0.108 A 
ATOM      3  C   UNL     1       4.094   0.421   7.400  0.00  0.00    +0.032 A 
ATOM      4  C   UNL     1       3.317   0.731   6.301  0.00  0.00    +0.050 A 
ATOM      5  C   UNL     1       3.592   1.871   5.558  0.00  0.00    +0.151 A 
ATOM      6  C   UNL     1       4.650   2.692   5.918  0.00  0.00    +0.169 A 
ATOM      7  C   UNL     1       5.421   2.380   7.021  0.00  0.00    +0.065 A 
BRANCH   2   8
ATOM      8  S   UNL     1       6.134   0.846   9.163  0.00  0.00    +0.061 S 
ATOM      9  O   UNL     1       6.713   2.064   9.611  0.00  0.00    -0.153 OA
ATOM     10  O   UNL     1       5.333   0.028  10.005  0.00  0.00    -0.153 OA
BRANCH   8  11
ATOM     11  N   UNL     1       7.381  -0.103   8.629  0.00  0.00    -0.177 NA
BRANCH  11  13
ATOM     12  C   UNL     1       9.629   0.530   9.355  0.00  0.00    +0.022 C 
ATOM     13  C   UNL     1       8.636   0.515   8.192  0.00  0.00    +0.106 C 
ENDBRANCH  11  13
BRANCH  11  14
ATOM     14  C   UNL     1       7.231  -1.560   8.593  0.00  0.00    +0.106 C 
ATOM     15  C   UNL     1       6.786  -1.992   7.194  0.00  0.00    +0.022 C 
ENDBRANCH  11  14
ENDBRANCH   8  11
ENDBRANCH   2   8
BRANCH   6  16
ATOM     16  N   UNL     1       4.949   3.905   5.125  0.00  0.00    +0.060 N 
ATOM     17  O   UNL     1       5.878   4.626   5.442  0.00  0.00    -0.126 OA
ATOM     18  O   UNL     1       4.266   4.182   4.155  0.00  0.00    -0.126 OA
ENDBRANCH   6  16
ENDBRANCH   1   5
BRANCH   1  19
ATOM     19  C   UNL     1       1.761   1.283   4.160  0.00  0.00    +0.324 C 
BRANCH  19  20
ATOM     20  C   UNL     1       1.032   1.782   2.939  0.00  0.00    +0.251 C 
ATOM     21  O   UNL     1       1.392   2.804   2.393  0.00  0.00    -0.272 OA
ATOM     22  N   UNL     1      -0.020   1.094   2.454  0.00  0.00    -0.306 N 
ATOM     23  H   UNL     1      -0.347   0.168   2.949  0.00  0.00    +0.149 HD
BRANCH  22  24
ATOM     24  C   UNL     1      -0.729   1.579   1.267  0.00  0.00    +0.100 C 
ATOM     25  C   UNL     1      -0.013   1.086   0.008  0.00  0.00    +0.033 C 
BRANCH  24  26
ATOM     26  C   UNL     1      -2.143   1.058   1.278  0.00  0.00    -0.027 A 
ATOM     27  C   UNL     1      -2.400  -0.241   1.677  0.00  0.00    +0.006 A 
ATOM     28  C   UNL     1      -3.697  -0.710   1.687  0.00  0.00    +0.004 A 
ATOM     29  C   UNL     1      -4.747   0.108   1.288  0.00  0.00    -0.044 A 
ATOM     30  C   UNL     1      -4.490   1.400   0.888  0.00  0.00    -0.044 A 
ATOM     31  C   UNL     1      -3.184   1.872   0.884  0.00  0.00    +0.009 A 
ATOM     32  C   UNL     1      -5.579   2.345   0.452  0.00  0.00    +0.035 C 
ATOM     33  C   UNL     1      -6.851   1.574   0.103  0.00  0.00    +0.005 C 
ATOM     34  C   UNL     1      -7.184   0.637   1.270  0.00  0.00    +0.005 C 
ATOM     35  C   UNL     1      -6.136  -0.474   1.309  0.00  0.00    +0.035 C 
ENDBRANCH  24  26
ENDBRANCH  22  24
ENDBRANCH  19  20
ENDBRANCH   1  19
TORSDOF 10
