REMARK  Name = ZINC00939992
REMARK  11 active torsions:
REMARK  status: ('A' for Active; 'I' for Inactive)
REMARK    1  A    between atoms: C_1  and  N_50
REMARK    2  A    between atoms: C_2  and  N_50
REMARK    3  A    between atoms: C_3  and  C_4
REMARK    4  A    between atoms: C_3  and  N_50
REMARK    5  A    between atoms: C_5  and  O_29
REMARK    6  A    between atoms: C_11  and  C_25
REMARK    7  A    between atoms: C_12  and  C_15
REMARK    8  A    between atoms: C_18  and  O_23
REMARK    9  A    between atoms: C_19  and  O_21
REMARK   10  A    between atoms: O_21  and  C_22
REMARK   11  A    between atoms: O_23  and  C_24
REMARK                            x       y       z     vdW  Elec       q    Type
REMARK                         _______ _______ _______ _____ _____    ______ ____
ROOT
ATOM      1  C   UNL     1       6.093  -1.059   0.146  0.00  0.00    +0.020 A 
ATOM      2  C   UNL     1       7.002  -1.014  -0.897  0.00  0.00    +0.122 A 
ATOM      3  C   UNL     1       6.739  -0.257  -2.036  0.00  0.00    +0.046 A 
ATOM      4  C   UNL     1       5.577   0.453  -2.139  0.00  0.00    +0.019 A 
ATOM      5  C   UNL     1       4.650   0.419  -1.096  0.00  0.00    +0.065 A 
ATOM      6  C   UNL     1       4.906  -0.343   0.058  0.00  0.00    +0.144 A 
ATOM      7  O   UNL     1       4.010  -0.375   1.064  0.00  0.00    -0.450 OA
ATOM      8  C   UNL     1       2.856   0.297   1.039  0.00  0.00    +0.219 A 
ATOM      9  C   UNL     1       2.480   1.066  -0.015  0.00  0.00    +0.077 A 
ATOM     10  C   UNL     1       3.386   1.173  -1.171  0.00  0.00    +0.201 A 
ATOM     11  O   UNL     1       3.103   1.851  -2.144  0.00  0.00    -0.286 OA
ENDROOT
BRANCH   9  12
ATOM     12  C   UNL     1       1.185   1.789   0.000  0.00  0.00    -0.007 A 
ATOM     13  C   UNL     1      -0.013   1.076   0.008  0.00  0.00    +0.012 A 
ATOM     14  C   UNL     1      -1.217   1.749   0.017  0.00  0.00    +0.050 A 
ATOM     15  C   UNL     1      -1.239   3.136   0.030  0.00  0.00    +0.162 A 
ATOM     16  C   UNL     1      -0.046   3.853   0.022  0.00  0.00    +0.162 A 
ATOM     17  C   UNL     1       1.164   3.182   0.008  0.00  0.00    +0.058 A 
BRANCH  16  18
ATOM     18  O   UNL     1      -0.070   5.213   0.030  0.00  0.00    -0.491 OA
ATOM     19  C   UNL     1       1.192   5.884   0.022  0.00  0.00    +0.277 C 
ENDBRANCH  16  18
BRANCH  15  20
ATOM     20  O   UNL     1      -2.428   3.796   0.044  0.00  0.00    -0.491 OA
ATOM     21  C   UNL     1      -3.614   2.997   0.051  0.00  0.00    +0.277 C 
ENDBRANCH  15  20
ENDBRANCH   9  12
BRANCH   8  22
ATOM     22  C   UNL     1       1.932   0.192   2.225  0.00  0.00    +0.451 C 
ATOM     23  F   UNL     1       1.056  -0.884   2.041  0.00  0.00    -0.163 F 
ATOM     24  F   UNL     1       2.684  -0.013   3.386  0.00  0.00    -0.163 F 
ATOM     25  F   UNL     1       1.196   1.376   2.349  0.00  0.00    -0.163 F 
ENDBRANCH   8  22
BRANCH   2  26
ATOM     26  O   UNL     1       8.161  -1.715  -0.809  0.00  0.00    -0.506 OA
ATOM     27  H   UNL     1       8.104  -2.616  -1.156  0.00  0.00    +0.292 HD
ENDBRANCH   2  26
BRANCH   1  28
ATOM     28  C   UNL     1       6.389  -1.882   1.372  0.00  0.00    -0.036 C 
BRANCH  28  31
ATOM     29  C   UNL     1       6.341  -4.138   2.251  0.00  0.00    -0.096 C 
ATOM     30  C   UNL     1       4.401  -3.240   1.113  0.00  0.00    -0.096 C 
ATOM     31  N   UNL     1       5.879  -3.253   1.161  0.00  0.00    +0.379 N 
ATOM     32  H   UNL     1       6.238  -3.609   0.267  0.00  0.00    -0.082 HD
ENDBRANCH  28  31
ENDBRANCH   1  28
TORSDOF 7
