REMARK  Name = ZINC00678747
REMARK  14 active torsions:
REMARK  status: ('A' for Active; 'I' for Inactive)
REMARK    1  A    between atoms: C_1  and  C_2
REMARK    2  A    between atoms: C_3  and  C_35
REMARK    3  A    between atoms: C_4  and  C_25
REMARK    4  A    between atoms: C_10  and  C_15
REMARK    5  A    between atoms: C_18  and  O_23
REMARK    6  A    between atoms: C_19  and  O_21
REMARK    7  A    between atoms: O_21  and  C_22
REMARK    8  A    between atoms: O_23  and  C_24
REMARK    9  A    between atoms: C_29  and  O_33
REMARK   10  A    between atoms: C_30  and  O_31
REMARK   11  A    between atoms: O_31  and  C_32
REMARK   12  A    between atoms: O_33  and  C_34
REMARK   13  A    between atoms: C_35  and  O_37
REMARK   14  A    between atoms: O_37  and  C_38
REMARK                            x       y       z     vdW  Elec       q    Type
REMARK                         _______ _______ _______ _____ _____    ______ ____
ROOT
ATOM      1  C   UNL     1       0.041   1.815  -0.645  0.00  0.00    +0.061 C 
ATOM      2  C   UNL     1      -0.073   0.348  -0.318  0.00  0.00    +0.016 C 
ATOM      3  C   UNL     1      -1.274  -0.254  -0.360  0.00  0.00    +0.065 C 
ATOM      4  C   UNL     1      -1.425  -1.714  -0.050  0.00  0.00    +0.096 C 
ATOM      5  C   UNL     1      -0.221  -2.237   0.692  0.00  0.00    +0.024 C 
ATOM      6  C   UNL     1       0.940  -1.548   0.694  0.00  0.00    +0.016 C 
ATOM      7  N   UNL     1       1.046  -0.362   0.015  0.00  0.00    -0.321 N 
ATOM      8  C   UNL     1       2.147  -2.062   1.439  0.00  0.00    +0.059 C 
ATOM      9  C   UNL     1       2.126  -3.592   1.458  0.00  0.00    +0.032 C 
ATOM     10  C   UNL     1       0.824  -4.052   2.122  0.00  0.00    +0.088 C 
ATOM     11  C   UNL     1      -0.341  -3.459   1.376  0.00  0.00    +0.162 C 
ATOM     12  O   UNL     1      -1.404  -4.047   1.366  0.00  0.00    -0.292 OA
ATOM     13  H   UNL     1       1.921  -0.022  -0.229  0.00  0.00    +0.152 HD
ENDROOT
BRANCH   9  14
ATOM     14  C   UNL     1       3.307  -4.105   2.242  0.00  0.00    -0.040 A 
ATOM     15  C   UNL     1       3.452  -3.762   3.574  0.00  0.00    +0.008 A 
ATOM     16  C   UNL     1       4.534  -4.230   4.297  0.00  0.00    +0.049 A 
ATOM     17  C   UNL     1       5.474  -5.045   3.688  0.00  0.00    +0.161 A 
ATOM     18  C   UNL     1       5.327  -5.390   2.348  0.00  0.00    +0.162 A 
ATOM     19  C   UNL     1       4.239  -4.922   1.630  0.00  0.00    +0.053 A 
BRANCH  18  20
ATOM     20  O   UNL     1       6.248  -6.190   1.746  0.00  0.00    -0.491 OA
ATOM     21  C   UNL     1       6.033  -6.503   0.368  0.00  0.00    +0.277 C 
ENDBRANCH  18  20
BRANCH  17  22
ATOM     22  O   UNL     1       6.539  -5.505   4.398  0.00  0.00    -0.491 OA
ATOM     23  C   UNL     1       6.625  -5.110   5.768  0.00  0.00    +0.277 C 
ENDBRANCH  17  22
ENDBRANCH   9  14
BRANCH   4  24
ATOM     24  C   UNL     1      -1.583  -2.480  -1.338  0.00  0.00    +0.010 A 
ATOM     25  C   UNL     1      -2.572  -3.438  -1.456  0.00  0.00    +0.008 A 
ATOM     26  C   UNL     1      -2.720  -4.143  -2.636  0.00  0.00    +0.004 A 
ATOM     27  C   UNL     1      -1.878  -3.892  -3.704  0.00  0.00    +0.049 A 
ATOM     28  C   UNL     1      -0.884  -2.933  -3.593  0.00  0.00    +0.162 A 
ATOM     29  C   UNL     1      -0.740  -2.219  -2.406  0.00  0.00    +0.166 A 
BRANCH  29  30
ATOM     30  O   UNL     1       0.230  -1.273  -2.294  0.00  0.00    -0.491 OA
ATOM     31  C   UNL     1       1.575  -1.736  -2.157  0.00  0.00    +0.277 C 
ENDBRANCH  29  30
BRANCH  28  32
ATOM     32  O   UNL     1      -0.056  -2.685  -4.642  0.00  0.00    -0.491 OA
ATOM     33  C   UNL     1      -0.266  -3.451  -5.830  0.00  0.00    +0.277 C 
ENDBRANCH  28  32
ENDBRANCH   4  24
BRANCH   3  34
ATOM     34  C   UNL     1      -2.418   0.504  -0.704  0.00  0.00    +0.338 C 
ATOM     35  O   UNL     1      -2.327   1.708  -0.859  0.00  0.00    -0.245 OA
BRANCH  34  36
ATOM     36  O   UNL     1      -3.611  -0.107  -0.860  0.00  0.00    -0.458 OA
BRANCH  36  37
ATOM     37  C   UNL     1      -4.699   0.699  -1.316  0.00  0.00    +0.177 C 
ATOM     38  C   UNL     1      -5.410   1.355  -0.114  0.00  0.00    +0.044 C 
ATOM     39  C   UNL     1      -6.909   1.337  -0.503  0.00  0.00    +0.004 C 
ATOM     40  C   UNL     1      -7.059  -0.026  -1.222  0.00  0.00    +0.004 C 
ATOM     41  C   UNL     1      -5.747  -0.179  -2.020  0.00  0.00    +0.044 C 
ENDBRANCH  36  37
ENDBRANCH  34  36
ENDBRANCH   3  34
TORSDOF 9
