REMARK  Name = ZINC09033668
REMARK  9 active torsions:
REMARK  status: ('A' for Active; 'I' for Inactive)
REMARK    1  A    between atoms: C_1  and  C_2
REMARK    2  A    between atoms: C_5  and  O_43
REMARK    3  A    between atoms: C_17  and  C_42
REMARK    4  A    between atoms: C_22  and  C_23
REMARK    5  A    between atoms: C_23  and  C_25
REMARK    6  A    between atoms: C_25  and  C_26
REMARK    7  A    between atoms: C_33  and  O_34
REMARK    8  A    between atoms: O_34  and  C_35
REMARK    9  A    between atoms: C_41  and  N_82
REMARK                            x       y       z     vdW  Elec       q    Type
REMARK                         _______ _______ _______ _____ _____    ______ ____
ROOT
ATOM      1  C   UNL     1      -1.260  -3.062   1.676  0.00  0.00    +0.016 C 
ATOM      2  C   UNL     1      -2.112  -2.265   2.665  0.00  0.00    -0.008 C 
ATOM      3  C   UNL     1      -1.758  -2.749   4.075  0.00  0.00    +0.014 C 
ATOM      4  C   UNL     1      -2.123  -4.229   4.209  0.00  0.00    +0.032 C 
ATOM      5  C   UNL     1      -3.633  -4.406   4.037  0.00  0.00    +0.119 C 
ATOM      6  C   UNL     1      -4.040  -3.987   2.622  0.00  0.00    +0.062 C 
ATOM      7  C   UNL     1      -3.555  -2.566   2.386  0.00  0.00    -0.065 C 
ATOM      8  C   UNL     1      -4.409  -1.685   1.954  0.00  0.00    -0.027 C 
ATOM      9  C   UNL     1      -4.045  -0.252   1.698  0.00  0.00    +0.031 C 
ATOM     10  C   UNL     1      -2.549  -0.159   1.372  0.00  0.00    +0.001 C 
ATOM     11  C   UNL     1      -1.762  -0.794   2.514  0.00  0.00    +0.003 C 
ATOM     12  C   UNL     1      -0.266  -0.664   2.200  0.00  0.00    +0.005 C 
ATOM     13  C   UNL     1       0.097   0.817   2.168  0.00  0.00    +0.012 C 
ATOM     14  C   UNL     1      -0.650   1.536   1.041  0.00  0.00    -0.001 C 
ATOM     15  C   UNL     1      -2.162   1.261   1.120  0.00  0.00    +0.007 C 
ATOM     16  C   UNL     1      -2.566   2.204   2.273  0.00  0.00    +0.032 C 
ATOM     17  C   UNL     1      -1.654   3.400   2.051  0.00  0.00    -0.019 C 
ATOM     18  C   UNL     1      -0.562   3.028   1.357  0.00  0.00    -0.003 C 
ATOM     19  C   UNL     1      -0.073   1.199  -0.335  0.00  0.00    +0.016 C 
ENDROOT
BRANCH  18  20
ATOM     20  C   UNL     1       0.533   3.911   0.955  0.00  0.00    +0.158 C 
ATOM     21  O   UNL     1       0.473   5.099   1.193  0.00  0.00    -0.292 OA
BRANCH  20  22
ATOM     22  C   UNL     1       1.736   3.344   0.246  0.00  0.00    +0.069 C 
BRANCH  22  23
ATOM     23  C   UNL     1       2.791   4.438   0.076  0.00  0.00    -0.027 C 
ATOM     24  C   UNL     1       3.115   5.029   1.424  0.00  0.00    -0.012 A 
ATOM     25  C   UNL     1       3.267   6.388   1.605  0.00  0.00    -0.040 A 
ATOM     26  C   UNL     1       3.571   6.889   2.861  0.00  0.00    +0.053 A 
ATOM     27  C   UNL     1       3.722   6.036   3.942  0.00  0.00    +0.170 A 
ATOM     28  C   UNL     1       3.567   4.666   3.764  0.00  0.00    +0.208 A 
ATOM     29  C   UNL     1       3.264   4.166   2.505  0.00  0.00    +0.167 A 
ATOM     30  O   UNL     1       3.763   4.044   4.965  0.00  0.00    -0.449 OA
ATOM     31  C   UNL     1       4.441   5.010   5.790  0.00  0.00    +0.467 C 
ATOM     32  O   UNL     1       4.016   6.276   5.253  0.00  0.00    -0.452 OA
ATOM     33  C   UNL     1       3.110   7.360   0.464  0.00  0.00    +0.017 C 
ATOM     34  C   UNL     1       3.197   6.618  -0.870  0.00  0.00    -0.074 C 
ATOM     35  C   UNL     1       2.048   4.928  -2.173  0.00  0.00    -0.095 C 
ATOM     36  N   UNL     1       2.256   5.481  -0.815  0.00  0.00    +0.383 N 
ATOM     37  H   UNL     1       1.356   5.809  -0.446  0.00  0.00    -0.081 HD
BRANCH  29  38
ATOM     38  O   UNL     1       3.112   2.827   2.328  0.00  0.00    -0.491 OA
ATOM     39  C   UNL     1       4.295   2.067   2.072  0.00  0.00    +0.277 C 
ENDBRANCH  29  38
ENDBRANCH  22  23
ENDBRANCH  20  22
ENDBRANCH  18  20
BRANCH   5  40
ATOM     40  O   UNL     1      -3.978  -5.777   4.246  0.00  0.00    -0.391 OA
ATOM     41  H   UNL     1      -4.922  -5.964   4.153  0.00  0.00    +0.210 HD
ENDBRANCH   5  40
TORSDOF 5
