REMARK  Name = ZINC24105441
REMARK  10 active torsions:
REMARK  status: ('A' for Active; 'I' for Inactive)
REMARK    1  A    between atoms: C_1  and  C_2
REMARK    2  A    between atoms: C_2  and  C_4
REMARK    3  A    between atoms: C_2  and  N_34
REMARK    4  A    between atoms: C_7  and  S_16
REMARK    5  A    between atoms: N_8  and  C_9
REMARK    6  A    between atoms: S_16  and  C_17
REMARK    7  A    between atoms: C_17  and  C_18
REMARK    8  A    between atoms: C_24  and  C_29
REMARK    9  A    between atoms: N_34  and  C_35
REMARK   10  A    between atoms: N_34  and  C_36
REMARK                            x       y       z     vdW  Elec       q    Type
REMARK                         _______ _______ _______ _____ _____    ______ ____
ROOT
ATOM      1  C   UNL     1      -1.412  -0.526   0.013  0.00  0.00    +0.125 A 
ATOM      2  N   UNL     1      -2.223  -0.538   1.033  0.00  0.00    -0.135 NA
ATOM      3  N   UNL     1      -3.351  -1.053   0.695  0.00  0.00    -0.122 NA
ATOM      4  C   UNL     1      -3.323  -1.400  -0.571  0.00  0.00    +0.196 A 
ATOM      5  N   UNL     1      -2.085  -1.069  -1.049  0.00  0.00    -0.275 N 
ENDROOT
BRANCH   5   6
ATOM      6  C   UNL     1      -1.603  -1.251  -2.355  0.00  0.00    +0.050 A 
ATOM      7  C   UNL     1      -1.281  -0.150  -3.136  0.00  0.00    +0.029 A 
ATOM      8  C   UNL     1      -0.807  -0.331  -4.421  0.00  0.00    +0.040 A 
ATOM      9  C   UNL     1      -0.654  -1.610  -4.930  0.00  0.00    +0.124 A 
ATOM     10  C   UNL     1      -0.976  -2.709  -4.151  0.00  0.00    +0.040 A 
ATOM     11  C   UNL     1      -1.444  -2.532  -2.864  0.00  0.00    +0.029 A 
ATOM     12  F   UNL     1      -0.192  -1.785  -6.187  0.00  0.00    -0.205 F 
ENDBRANCH   5   6
BRANCH   1  14
ATOM     13  C   UNL     1      -0.019   1.526   0.010  0.00  0.00    -0.005 C 
ATOM     14  C   UNL     1       0.002  -0.004   0.002  0.00  0.00    -0.003 C 
BRANCH  14  15
ATOM     15  N   UNL     1       0.713  -0.491   1.192  0.00  0.00    +0.382 N 
ATOM     16  C   UNL     1       0.733  -1.960   1.184  0.00  0.00    -0.096 C 
ATOM     17  C   UNL     1       2.091   0.018   1.182  0.00  0.00    -0.096 C 
ATOM     18  H   UNL     1       0.240  -0.165   2.022  0.00  0.00    -0.082 HD
ENDBRANCH  14  15
ENDBRANCH   1  14
BRANCH   4  19
ATOM     19  S   UNL     1      -4.634  -2.144  -1.483  0.00  0.00    -0.078 S 
BRANCH  19  20
ATOM     20  C   UNL     1      -5.976  -2.301  -0.273  0.00  0.00    +0.151 C 
BRANCH  20  21
ATOM     21  C   UNL     1      -7.175  -2.932  -0.932  0.00  0.00    +0.121 A 
ATOM     22  N   UNL     1      -8.304  -3.140  -0.206  0.00  0.00    -0.310 N 
ATOM     23  H   UNL     1      -8.323  -2.878   0.727  0.00  0.00    +0.170 HD
ATOM     24  C   UNL     1      -9.396  -3.700  -0.757  0.00  0.00    +0.260 A 
ATOM     25  O   UNL     1     -10.402  -3.879  -0.092  0.00  0.00    -0.267 OA
ATOM     26  C   UNL     1      -9.360  -4.083  -2.136  0.00  0.00    +0.083 A 
ATOM     27  C   UNL     1     -10.401  -4.700  -2.950  0.00  0.00    +0.039 A 
ATOM     28  C   UNL     1     -10.132  -4.975  -4.252  0.00  0.00    +0.059 A 
ATOM     29  S   UNL     1      -8.452  -4.414  -4.454  0.00  0.00    -0.076 S 
ATOM     30  C   UNL     1      -8.151  -3.830  -2.805  0.00  0.00    +0.116 A 
ATOM     31  N   UNL     1      -7.113  -3.266  -2.194  0.00  0.00    -0.226 NA
BRANCH  27  32
ATOM     32  C   UNL     1     -11.721  -5.020  -2.370  0.00  0.00    +0.136 A 
ATOM     33  C   UNL     1     -12.928  -4.690  -2.903  0.00  0.00    +0.050 A 
ATOM     34  C   UNL     1     -13.910  -5.190  -2.023  0.00  0.00    +0.042 A 
ATOM     35  C   UNL     1     -13.262  -5.793  -1.009  0.00  0.00    +0.196 A 
ATOM     36  O   UNL     1     -11.938  -5.694  -1.224  0.00  0.00    -0.463 OA
ENDBRANCH  27  32
ENDBRANCH  20  21
ENDBRANCH  19  20
ENDBRANCH   4  19
TORSDOF 7
