REMARK  Name = ZINC12072815
REMARK  5 active torsions:
REMARK  status: ('A' for Active; 'I' for Inactive)
REMARK    1  A    between atoms: C_4  and  C_8
REMARK    2  A    between atoms: C_8  and  N_59
REMARK    3  A    between atoms: C_14  and  C_16
REMARK    4  A    between atoms: C_16  and  C_17
REMARK    5  A    between atoms: N_19  and  C_20
REMARK                            x       y       z     vdW  Elec       q    Type
REMARK                         _______ _______ _______ _____ _____    ______ ____
ROOT
ATOM      1  C   UNL     1       1.101   2.537  -2.439  0.00  0.00    -0.058 C 
ATOM      2  C   UNL     1       0.737   1.120  -1.992  0.00  0.00    +0.085 C 
ATOM      3  N   UNL     1       1.237   0.877  -0.642  0.00  0.00    -0.318 N 
ATOM      4  C   UNL     1       1.587   1.861   0.192  0.00  0.00    +0.200 C 
ATOM      5  O   UNL     1       1.963   1.572   1.308  0.00  0.00    -0.278 OA
ATOM      6  C   UNL     1       1.535   3.312  -0.196  0.00  0.00    +0.028 C 
ATOM      7  H   UNL     1       1.318  -0.040  -0.336  0.00  0.00    +0.149 HD
ATOM      8  N   UNL     1       0.671   3.474  -1.381  0.00  0.00    +0.391 N 
ATOM      9  H   UNL     1      -0.299   3.263  -1.120  0.00  0.00    -0.080 HD
ENDROOT
BRANCH   8  10
ATOM     10  C   UNL     1       0.745   4.867  -1.876  0.00  0.00    -0.037 C 
BRANCH  10  14
ATOM     11  C   UNL     1      -1.543   5.198  -5.471  0.00  0.00    +0.004 A 
ATOM     12  C   UNL     1      -0.199   4.880  -5.535  0.00  0.00    +0.038 A 
ATOM     13  C   UNL     1       0.544   4.779  -4.371  0.00  0.00    +0.126 A 
ATOM     14  C   UNL     1      -0.061   4.984  -3.143  0.00  0.00    -0.010 A 
ATOM     15  C   UNL     1      -1.406   5.302  -3.081  0.00  0.00    +0.045 A 
ATOM     16  C   UNL     1      -2.146   5.409  -4.246  0.00  0.00    +0.020 A 
ATOM     17 CL   UNL     1      -2.166   5.566  -1.543  0.00  0.00    -0.083 Cl
ATOM     18  F   UNL     1       1.859   4.474  -4.434  0.00  0.00    -0.205 F 
ENDBRANCH  10  14
ENDBRANCH   8  10
BRANCH   6  19
ATOM     19  C   UNL     1       0.951   4.126   0.960  0.00  0.00    +0.089 C 
BRANCH  19  20
ATOM     20  C   UNL     1      -0.464   3.679   1.225  0.00  0.00    +0.212 C 
ATOM     21  O   UNL     1      -0.966   2.815   0.537  0.00  0.00    -0.276 OA
ATOM     22  N   UNL     1      -1.172   4.240   2.225  0.00  0.00    -0.312 N 
ATOM     23  H   UNL     1      -0.771   4.931   2.775  0.00  0.00    +0.149 HD
BRANCH  22  24
ATOM     24  C   UNL     1      -2.547   3.805   2.483  0.00  0.00    +0.079 C 
ATOM     25  C   UNL     1      -3.504   4.575   1.571  0.00  0.00    +0.010 C 
ATOM     26  C   UNL     1      -4.941   4.121   1.840  0.00  0.00    +0.009 C 
ATOM     27  C   UNL     1      -5.297   4.396   3.302  0.00  0.00    -0.010 C 
ATOM     28  C   UNL     1      -5.175   5.895   3.584  0.00  0.00    +0.007 C 
ATOM     29  C   UNL     1      -3.739   6.349   3.315  0.00  0.00    -0.010 C 
ATOM     30  C   UNL     1      -3.382   6.074   1.852  0.00  0.00    +0.009 C 
ATOM     31  C   UNL     1      -2.781   5.579   4.226  0.00  0.00    +0.009 C 
ATOM     32  C   UNL     1      -2.903   4.080   3.945  0.00  0.00    +0.010 C 
ATOM     33  C   UNL     1      -4.340   3.626   4.214  0.00  0.00    +0.009 C 
ENDBRANCH  22  24
ENDBRANCH  19  20
ENDBRANCH   6  19
TORSDOF 5
