REMARK  Name = ZINC09095156
REMARK  13 active torsions:
REMARK  status: ('A' for Active; 'I' for Inactive)
REMARK    1  A    between atoms: C_1  and  C_2
REMARK    2  A    between atoms: C_2  and  N_74
REMARK    3  A    between atoms: C_3  and  C_4
REMARK    4  A    between atoms: C_3  and  N_74
REMARK    5  A    between atoms: C_5  and  C_6
REMARK    6  A    between atoms: C_5  and  N_74
REMARK    7  A    between atoms: C_6  and  N_7
REMARK    8  A    between atoms: C_8  and  C_10
REMARK    9  A    between atoms: C_10  and  C_12
REMARK   10  A    between atoms: C_10  and  N_13
REMARK   11  A    between atoms: C_14  and  C_24
REMARK   12  A    between atoms: C_33  and  C_34
REMARK   13  A    between atoms: C_37  and  C_40
REMARK                            x       y       z     vdW  Elec       q    Type
REMARK                         _______ _______ _______ _____ _____    ______ ____
ROOT
ATOM      1  N   UNL     1       3.416   2.457  -0.012  0.00  0.00    -0.275 N 
ATOM      2  C   UNL     1       2.606   3.681  -0.008  0.00  0.00    +0.141 C 
ATOM      3  C   UNL     1       1.166   3.234   0.016  0.00  0.00    -0.010 A 
ATOM      4  C   UNL     1      -0.031   3.912   0.029  0.00  0.00    +0.006 A 
ATOM      5  C   UNL     1      -1.224   3.210   0.052  0.00  0.00    +0.000 A 
ATOM      6  C   UNL     1      -1.216   1.826   0.055  0.00  0.00    +0.001 A 
ATOM      7  C   UNL     1      -0.022   1.136   0.048  0.00  0.00    +0.013 A 
ATOM      8  C   UNL     1       1.185   1.838   0.025  0.00  0.00    +0.042 A 
ATOM      9  C   UNL     1       2.592   1.394   0.007  0.00  0.00    +0.248 C 
ATOM     10  O   UNL     1       2.955   0.234   0.010  0.00  0.00    -0.270 OA
ENDROOT
BRANCH   2  11
ATOM     11  C   UNL     1       2.914   4.503   1.217  0.00  0.00    +0.010 A 
ATOM     12  C   UNL     1       3.078   4.004   2.581  0.00  0.00    +0.006 A 
ATOM     13  C   UNL     1       3.014   2.734   3.162  0.00  0.00    +0.010 A 
ATOM     14  C   UNL     1       3.219   2.591   4.504  0.00  0.00    +0.001 A 
ATOM     15  C   UNL     1       3.492   3.697   5.298  0.00  0.00    +0.002 A 
ATOM     16  C   UNL     1       3.560   4.958   4.747  0.00  0.00    +0.026 A 
ATOM     17  C   UNL     1       3.354   5.128   3.382  0.00  0.00    +0.047 A 
ATOM     18  N   UNL     1       3.357   6.232   2.557  0.00  0.00    -0.354 N 
ATOM     19  H   UNL     1       3.521   7.143   2.845  0.00  0.00    +0.166 HD
ATOM     20  C   UNL     1       3.098   5.846   1.262  0.00  0.00    +0.053 A 
BRANCH  20  21
ATOM     21  C   UNL     1       3.026   6.756   0.099  0.00  0.00    -0.001 A 
ATOM     22  C   UNL     1       3.662   6.417  -1.096  0.00  0.00    +0.010 A 
ATOM     23  C   UNL     1       3.588   7.269  -2.179  0.00  0.00    +0.004 A 
ATOM     24  C   UNL     1       2.894   8.461  -2.079  0.00  0.00    -0.050 A 
ATOM     25  C   UNL     1       2.266   8.806  -0.895  0.00  0.00    +0.004 A 
ATOM     26  C   UNL     1       2.328   7.961   0.194  0.00  0.00    +0.010 A 
ATOM     27  C   UNL     1       2.822   9.389  -3.264  0.00  0.00    +0.044 C 
ENDBRANCH  20  21
ENDBRANCH   2  11
BRANCH   1  28
ATOM     28  C   UNL     1       4.879   2.402  -0.032  0.00  0.00    +0.160 C 
ATOM     29  C   UNL     1       5.344   1.654  -1.283  0.00  0.00    +0.038 C 
BRANCH  28  31
ATOM     30  N   UNL     1       6.694   1.509   1.392  0.00  0.00    -0.316 N 
ATOM     31  C   UNL     1       5.372   1.681   1.196  0.00  0.00    +0.233 C 
ATOM     32  O   UNL     1       4.578   1.255   2.009  0.00  0.00    -0.274 OA
ATOM     33  H   UNL     1       7.329   1.850   0.743  0.00  0.00    +0.149 HD
BRANCH  30  34
ATOM     34  C   UNL     1       7.173   0.809   2.586  0.00  0.00    +0.086 C 
BRANCH  34  35
ATOM     35  C   UNL     1       8.702   0.751   2.565  0.00  0.00    -0.060 C 
BRANCH  35  36
ATOM     36  N   UNL     1       9.172   0.170   3.840  0.00  0.00    +0.380 N 
ATOM     37  H   UNL     1       8.620   0.566   4.611  0.00  0.00    -0.082 HD
BRANCH  36  39
ATOM     38  C   UNL     1       9.270  -1.844   5.226  0.00  0.00    -0.017 C 
ATOM     39  C   UNL     1       8.990  -1.297   3.825  0.00  0.00    -0.082 C 
ENDBRANCH  36  39
BRANCH  36  40
ATOM     40  C   UNL     1      10.597   0.500   4.051  0.00  0.00    -0.082 C 
ATOM     41  C   UNL     1      10.700   1.953   4.520  0.00  0.00    -0.017 C 
ENDBRANCH  36  40
ENDBRANCH  35  36
ENDBRANCH  34  35
ENDBRANCH  30  34
ENDBRANCH  28  31
ENDBRANCH   1  28
TORSDOF 9
