REMARK  Name = ZINC39654219
REMARK  8 active torsions:
REMARK  status: ('A' for Active; 'I' for Inactive)
REMARK    1  A    between atoms: C_1  and  C_2
REMARK    2  A    between atoms: C_2  and  C_3
REMARK    3  A    between atoms: C_6  and  C_9
REMARK    4  A    between atoms: C_9  and  C_10
REMARK    5  A    between atoms: C_10  and  N_11
REMARK    6  A    between atoms: C_12  and  C_14
REMARK    7  A    between atoms: C_25  and  C_27
REMARK    8  A    between atoms: C_33  and  C_35
REMARK                            x       y       z     vdW  Elec       q    Type
REMARK                         _______ _______ _______ _____ _____    ______ ____
ROOT
ATOM      1  C   UNL     1       5.056  -0.741  -8.911  0.00  0.00    +0.100 C 
ATOM      2  C   UNL     1       4.120  -1.649  -9.741  0.00  0.00    +0.121 C 
ATOM      3  N   UNL     1       3.513  -0.743 -10.744  0.00  0.00    -0.299 N 
ATOM      4  C   UNL     1       4.621   0.156 -11.147  0.00  0.00    +0.115 C 
ATOM      5  C   UNL     1       5.385   0.440  -9.839  0.00  0.00    -0.004 C 
ATOM      6  C   UNL     1       6.886   0.500 -10.106  0.00  0.00    -0.010 C 
ATOM      7  C   UNL     1       7.196   1.717 -10.983  0.00  0.00    -0.082 C 
ATOM      8  N   UNL     1       6.750   2.939 -10.302  0.00  0.00    +0.379 N 
ATOM      9  C   UNL     1       5.292   2.914 -10.133  0.00  0.00    -0.082 C 
ATOM     10  C   UNL     1       4.902   1.748  -9.220  0.00  0.00    -0.010 C 
ATOM     11  C   UNL     1       2.241  -0.738 -11.190  0.00  0.00    +0.236 C 
ATOM     12  O   UNL     1       1.893   0.074 -12.021  0.00  0.00    -0.274 OA
ATOM     13  H   UNL     1       7.192   2.998  -9.397  0.00  0.00    -0.086 HD
ATOM     14  H   UNL     1       7.010   3.743 -10.854  0.00  0.00    -0.086 HD
ENDROOT
BRANCH  11  15
ATOM     15  C   UNL     1       1.251  -1.740 -10.655  0.00  0.00    +0.162 C 
ATOM     16  C   UNL     1       1.441  -3.096 -11.367  0.00  0.00    +0.033 C 
ATOM     17  C   UNL     1      -0.015  -3.605 -11.540  0.00  0.00    +0.021 C 
ATOM     18  C   UNL     1      -0.777  -2.282 -11.804  0.00  0.00    +0.109 C 
ATOM     19  N   UNL     1      -0.119  -1.287 -10.932  0.00  0.00    -0.283 N 
ATOM     20  C   UNL     1      -0.680  -0.152 -10.467  0.00  0.00    +0.320 C 
ATOM     21  O   UNL     1      -0.041   0.593  -9.755  0.00  0.00    -0.266 OA
BRANCH  20  22
ATOM     22  C   UNL     1      -2.102   0.190 -10.833  0.00  0.00    +0.470 C 
ATOM     23  F   UNL     1      -2.457   1.404 -10.236  0.00  0.00    -0.162 F 
ATOM     24  F   UNL     1      -2.212   0.303 -12.223  0.00  0.00    -0.162 F 
ATOM     25  F   UNL     1      -2.956  -0.821 -10.378  0.00  0.00    -0.162 F 
ENDBRANCH  20  22
ENDBRANCH  11  15
BRANCH   1  27
ATOM     26  N   UNL     1       5.061   0.043  -6.565  0.00  0.00    -0.315 N 
ATOM     27  C   UNL     1       4.351  -0.254  -7.671  0.00  0.00    +0.218 C 
ATOM     28  O   UNL     1       3.144  -0.131  -7.669  0.00  0.00    -0.275 OA
ATOM     29  H   UNL     1       6.026  -0.056  -6.567  0.00  0.00    +0.149 HD
BRANCH  26  30
ATOM     30  C   UNL     1       4.375   0.517  -5.360  0.00  0.00    +0.109 C 
BRANCH  30  31
ATOM     31  C   UNL     1       5.404   0.780  -4.258  0.00  0.00    +0.054 C 
BRANCH  31  35
ATOM     32  C   UNL     1       3.407   2.161  -0.744  0.00  0.00    -0.048 A 
ATOM     33  C   UNL     1       3.614   0.808  -0.935  0.00  0.00    +0.004 A 
ATOM     34  C   UNL     1       4.260   0.361  -2.072  0.00  0.00    +0.004 A 
ATOM     35  C   UNL     1       4.698   1.267  -3.019  0.00  0.00    -0.046 A 
ATOM     36  C   UNL     1       4.491   2.621  -2.828  0.00  0.00    +0.004 A 
ATOM     37  C   UNL     1       3.841   3.067  -1.693  0.00  0.00    +0.004 A 
BRANCH  32  39
ATOM     38  C   UNL     1       1.196   2.709   0.237  0.00  0.00    +0.009 C 
ATOM     39  C   UNL     1       2.702   2.648   0.496  0.00  0.00    +0.032 C 
ENDBRANCH  32  39
ENDBRANCH  31  35
ENDBRANCH  30  31
ENDBRANCH  26  30
ENDBRANCH   1  27
TORSDOF 7
