REMARK  Name = ZINC63625552
REMARK  13 active torsions:
REMARK  status: ('A' for Active; 'I' for Inactive)
REMARK    1  A    between atoms: C_1  and  C_2
REMARK    2  A    between atoms: C_2  and  O_3
REMARK    3  A    between atoms: O_3  and  C_4
REMARK    4  A    between atoms: C_4  and  C_6
REMARK    5  A    between atoms: C_7  and  C_36
REMARK    6  A    between atoms: C_9  and  C_13
REMARK    7  A    between atoms: C_10  and  C_12
REMARK    8  A    between atoms: C_18  and  C_21
REMARK    9  A    between atoms: C_21  and  C_23
REMARK   10  A    between atoms: C_21  and  C_24
REMARK   11  A    between atoms: N_26  and  C_27
REMARK   12  A    between atoms: C_27  and  C_28
REMARK   13  A    between atoms: C_28  and  N_29
REMARK                            x       y       z     vdW  Elec       q    Type
REMARK                         _______ _______ _______ _____ _____    ______ ____
ROOT
ATOM      1  C   UNL     1       3.533  -2.721  -4.290  0.00  0.00    +0.261 C 
ATOM      2  O   UNL     1       3.027  -3.044  -3.233  0.00  0.00    -0.269 OA
ATOM      3  N   UNL     1       3.823  -3.659  -5.212  0.00  0.00    -0.297 N 
ATOM      4  C   UNL     1       3.408  -5.055  -5.017  0.00  0.00    +0.108 C 
ATOM      5  C   UNL     1       4.636  -5.959  -5.160  0.00  0.00    +0.023 C 
ATOM      6  C   UNL     1       5.312  -5.687  -6.506  0.00  0.00    +0.004 C 
ATOM      7  C   UNL     1       5.776  -4.230  -6.560  0.00  0.00    +0.023 C 
ATOM      8  C   UNL     1       4.556  -3.305  -6.436  0.00  0.00    +0.108 C 
ENDROOT
BRANCH   1  12
ATOM      9  C   UNL     1       4.137   1.048  -4.428  0.00  0.00    +0.066 C 
ATOM     10  C   UNL     1       4.434   0.530  -5.643  0.00  0.00    +0.049 C 
ATOM     11  N   UNL     1       4.250  -0.792  -5.685  0.00  0.00    -0.250 NA
ATOM     12  C   UNL     1       3.830  -1.298  -4.563  0.00  0.00    +0.111 C 
ATOM     13  C   UNL     1       3.709  -0.142  -3.589  0.00  0.00    +0.078 C 
ATOM     14  C   UNL     1       4.649  -0.333  -2.398  0.00  0.00    +0.019 C 
ATOM     15  C   UNL     1       4.917   1.349  -6.812  0.00  0.00    +0.066 C 
BRANCH   9  16
ATOM     16  C   UNL     1       4.218   2.452  -4.012  0.00  0.00    +0.338 C 
ATOM     17  O   UNL     1       4.582   3.300  -4.803  0.00  0.00    -0.245 OA
BRANCH  16  18
ATOM     18  O   UNL     1       3.889   2.801  -2.751  0.00  0.00    -0.462 OA
BRANCH  18  20
ATOM     19  C   UNL     1       3.579   4.388  -0.955  0.00  0.00    +0.048 C 
ATOM     20  C   UNL     1       3.991   4.186  -2.415  0.00  0.00    +0.229 C 
ENDBRANCH  18  20
ENDBRANCH  16  18
ENDBRANCH   9  16
ENDBRANCH   1  12
BRANCH   6  21
ATOM     21  C   UNL     1       6.519  -6.613  -6.667  0.00  0.00    +0.075 C 
ATOM     22  C   UNL     1       7.195  -6.341  -8.012  0.00  0.00    +0.017 C 
BRANCH  21  23
ATOM     23  C   UNL     1       6.062  -8.048  -6.615  0.00  0.00    +0.216 C 
ATOM     24  O   UNL     1       4.886  -8.305  -6.464  0.00  0.00    -0.276 OA
ATOM     25  N   UNL     1       6.960  -9.046  -6.737  0.00  0.00    -0.317 N 
ATOM     26  H   UNL     1       7.900  -8.841  -6.857  0.00  0.00    +0.149 HD
BRANCH  25  27
ATOM     27  C   UNL     1       6.515 -10.441  -6.686  0.00  0.00    +0.085 C 
BRANCH  27  28
ATOM     28  C   UNL     1       7.723 -11.367  -6.847  0.00  0.00    -0.060 C 
BRANCH  28  29
ATOM     29  N   UNL     1       7.298 -12.761  -6.665  0.00  0.00    +0.381 N 
ATOM     30  C   UNL     1       8.499 -13.614  -6.578  0.00  0.00    -0.079 C 
ATOM     31  C   UNL     1       8.138 -14.865  -5.816  0.00  0.00    -0.019 C 
ATOM     32  C   UNL     1       7.777 -16.020  -6.768  0.00  0.00    -0.002 C 
ATOM     33  C   UNL     1       6.927 -15.536  -7.960  0.00  0.00    -0.002 C 
ATOM     34  C   UNL     1       5.878 -14.536  -7.548  0.00  0.00    -0.019 C 
ATOM     35  C   UNL     1       6.446 -13.111  -7.714  0.00  0.00    -0.079 C 
ATOM     36  H   UNL     1       6.789 -12.833  -5.797  0.00  0.00    -0.082 HD
ENDBRANCH  28  29
ENDBRANCH  27  28
ENDBRANCH  25  27
ENDBRANCH  21  23
ENDBRANCH   6  21
TORSDOF 9
