REMARK  Name = ZINC59282943
REMARK  9 active torsions:
REMARK  status: ('A' for Active; 'I' for Inactive)
REMARK    1  A    between atoms: C_1  and  C_2
REMARK    2  A    between atoms: C_9  and  N_17
REMARK    3  A    between atoms: C_10  and  C_11
REMARK    4  A    between atoms: C_11  and  O_13
REMARK    5  A    between atoms: O_13  and  C_14
REMARK    6  A    between atoms: C_14  and  C_15
REMARK    7  A    between atoms: C_14  and  C_16
REMARK    8  A    between atoms: C_18  and  C_20
REMARK    9  A    between atoms: C_20  and  C_21
REMARK                            x       y       z     vdW  Elec       q    Type
REMARK                         _______ _______ _______ _____ _____    ______ ____
ROOT
ATOM      1  N   UNL     1       1.940  -5.826   1.701  0.00  0.00    -0.279 N 
ATOM      2  C   UNL     1       2.250  -6.085   2.987  0.00  0.00    +0.223 C 
ATOM      3  O   UNL     1       2.229  -5.192   3.808  0.00  0.00    -0.275 OA
ATOM      4  H   UNL     1       1.957  -6.540   1.045  0.00  0.00    +0.155 HD
ENDROOT
BRANCH   1  12
ATOM      5  C   UNL     1      -0.019   1.526   0.010  0.00  0.00    +0.008 C 
ATOM      6  C   UNL     1       0.002  -0.004   0.002  0.00  0.00    -0.009 C 
ATOM      7  C   UNL     1       0.724  -0.500  -1.254  0.00  0.00    +0.008 C 
ATOM      8  C   UNL     1       0.537  -2.012  -1.399  0.00  0.00    +0.037 C 
ATOM      9  C   UNL     1       0.935  -2.680  -0.091  0.00  0.00    -0.021 A 
ATOM     10  C   UNL     1       1.020  -1.977   1.059  0.00  0.00    -0.004 A 
ATOM     11  S   UNL     1       1.507  -3.164   2.276  0.00  0.00    -0.077 S 
ATOM     12  C   UNL     1       1.598  -4.539   1.316  0.00  0.00    +0.086 A 
ATOM     13  C   UNL     1       1.254  -4.091   0.050  0.00  0.00    +0.091 A 
ATOM     14  C   UNL     1       0.750  -0.515   1.242  0.00  0.00    +0.046 C 
BRANCH  13  15
ATOM     15  C   UNL     1       1.213  -5.001  -1.097  0.00  0.00    +0.342 C 
ATOM     16  O   UNL     1       2.208  -5.170  -1.774  0.00  0.00    -0.245 OA
BRANCH  15  17
ATOM     17  O   UNL     1       0.071  -5.651  -1.401  0.00  0.00    -0.458 OA
BRANCH  17  18
ATOM     18  C   UNL     1       0.103  -6.523  -2.533  0.00  0.00    +0.171 C 
ATOM     19  C   UNL     1       0.509  -7.928  -2.083  0.00  0.00    +0.052 C 
ATOM     20  C   UNL     1      -1.284  -6.574  -3.176  0.00  0.00    +0.052 C 
ENDBRANCH  17  18
ENDBRANCH  15  17
ENDBRANCH  13  15
ENDBRANCH   1  12
BRANCH   2  21
ATOM     21  C   UNL     1       2.621  -7.484   3.406  0.00  0.00    +0.153 C 
BRANCH  21  22
ATOM     22  C   UNL     1       2.920  -7.504   4.883  0.00  0.00    +0.078 A 
ATOM     23  C   UNL     1       3.313  -8.755   5.532  0.00  0.00    +0.011 A 
ATOM     24  C   UNL     1       3.425  -9.951   4.822  0.00  0.00    +0.010 A 
ATOM     25  C   UNL     1       3.796 -11.094   5.474  0.00  0.00    +0.001 A 
ATOM     26  C   UNL     1       4.065 -11.082   6.837  0.00  0.00    +0.001 A 
ATOM     27  C   UNL     1       3.962  -9.916   7.564  0.00  0.00    +0.014 A 
ATOM     28  C   UNL     1       3.586  -8.739   6.919  0.00  0.00    +0.050 A 
ATOM     29  C   UNL     1       3.460  -7.465   7.638  0.00  0.00    +0.272 A 
ATOM     30  O   UNL     1       3.685  -7.401   8.833  0.00  0.00    -0.266 OA
ATOM     31  N   UNL     1       3.091  -6.365   6.948  0.00  0.00    -0.242 N 
ATOM     32  H   UNL     1       3.006  -5.520   7.417  0.00  0.00    +0.192 HD
ATOM     33  N   UNL     1       2.833  -6.410   5.578  0.00  0.00    -0.175 NA
ENDBRANCH  21  22
ENDBRANCH   2  21
TORSDOF 6
