REMARK  Name = ZINC37571140
REMARK  8 active torsions:
REMARK  status: ('A' for Active; 'I' for Inactive)
REMARK    1  A    between atoms: C_1  and  O_2
REMARK    2  A    between atoms: O_2  and  C_3
REMARK    3  A    between atoms: C_8  and  C_9
REMARK    4  A    between atoms: C_9  and  N_10
REMARK    5  A    between atoms: C_13  and  N_16
REMARK    6  A    between atoms: N_16  and  C_17
REMARK    7  A    between atoms: N_16  and  S_24
REMARK    8  A    between atoms: S_24  and  C_27
REMARK                            x       y       z     vdW  Elec       q    Type
REMARK                         _______ _______ _______ _____ _____    ______ ____
ROOT
ATOM      1  N   UNL     1       2.108  -4.245   5.031  0.00  0.00    -0.200 N 
ENDROOT
BRANCH   1   5
ATOM      2  N   UNL     1      -0.226  -2.846   1.812  0.00  0.00    +0.383 N 
ATOM      3  C   UNL     1      -0.895  -3.724   2.780  0.00  0.00    -0.077 C 
ATOM      4  C   UNL     1      -0.095  -3.754   4.085  0.00  0.00    +0.006 C 
ATOM      5  C   UNL     1       1.313  -4.285   3.801  0.00  0.00    +0.095 C 
ATOM      6  C   UNL     1       1.974  -3.405   2.736  0.00  0.00    +0.006 C 
ATOM      7  C   UNL     1       1.098  -3.388   1.482  0.00  0.00    -0.077 C 
ATOM      8  H   UNL     1      -0.121  -1.926   2.212  0.00  0.00    -0.081 HD
BRANCH   2   9
ATOM      9  C   UNL     1      -1.036  -2.759   0.591  0.00  0.00    -0.039 C 
BRANCH   9  15
ATOM     10  C   UNL     1      -2.418  -0.708   1.009  0.00  0.00    +0.121 A 
ATOM     11  C   UNL     1      -3.630  -0.095   1.294  0.00  0.00    +0.046 A 
ATOM     12  C   UNL     1      -4.763  -0.862   1.481  0.00  0.00    +0.004 A 
ATOM     13  C   UNL     1      -4.691  -2.240   1.383  0.00  0.00    +0.000 A 
ATOM     14  C   UNL     1      -3.485  -2.853   1.099  0.00  0.00    +0.005 A 
ATOM     15  C   UNL     1      -2.350  -2.090   0.906  0.00  0.00    -0.022 A 
BRANCH  10  17
ATOM     16  C   UNL     1      -1.446   1.460   0.945  0.00  0.00    +0.277 C 
ATOM     17  O   UNL     1      -1.301   0.044   0.825  0.00  0.00    -0.495 OA
ENDBRANCH  10  17
ENDBRANCH   9  15
ENDBRANCH   2   9
ENDBRANCH   1   5
BRANCH   1  18
ATOM     18  C   UNL     1       2.253  -3.044   5.732  0.00  0.00    +0.052 A 
ATOM     19  C   UNL     1       3.058  -2.034   5.221  0.00  0.00    +0.027 A 
ATOM     20  C   UNL     1       3.199  -0.848   5.915  0.00  0.00    +0.040 A 
ATOM     21  C   UNL     1       2.539  -0.665   7.118  0.00  0.00    +0.124 A 
ATOM     22  C   UNL     1       1.736  -1.671   7.629  0.00  0.00    +0.040 A 
ATOM     23  C   UNL     1       1.588  -2.856   6.936  0.00  0.00    +0.027 A 
ATOM     24  F   UNL     1       2.679   0.496   7.795  0.00  0.00    -0.205 F 
ENDBRANCH   1  18
BRANCH   1  25
ATOM     25  S   UNL     1       2.835  -5.623   5.592  0.00  0.00    +0.075 S 
ATOM     26  O   UNL     1       3.144  -5.392   6.960  0.00  0.00    -0.150 OA
ATOM     27  O   UNL     1       2.025  -6.711   5.168  0.00  0.00    -0.150 OA
BRANCH  25  28
ATOM     28  C   UNL     1       4.373  -5.782   4.748  0.00  0.00    +0.109 A 
ATOM     29  C   UNL     1       4.437  -6.473   3.552  0.00  0.00    +0.031 A 
ATOM     30  C   UNL     1       5.643  -6.598   2.889  0.00  0.00    +0.040 A 
ATOM     31  C   UNL     1       6.787  -6.029   3.422  0.00  0.00    +0.124 A 
ATOM     32  C   UNL     1       6.722  -5.337   4.619  0.00  0.00    +0.040 A 
ATOM     33  C   UNL     1       5.514  -5.209   5.278  0.00  0.00    +0.031 A 
ATOM     34  F   UNL     1       7.967  -6.151   2.774  0.00  0.00    -0.205 F 
ENDBRANCH  25  28
ENDBRANCH   1  25
TORSDOF 7
