REMARK  Name = ZINC39422071
REMARK  8 active torsions:
REMARK  status: ('A' for Active; 'I' for Inactive)
REMARK    1  A    between atoms: C_3  and  O_22
REMARK    2  A    between atoms: C_4  and  C_8
REMARK    3  A    between atoms: C_6  and  O_7
REMARK    4  A    between atoms: C_8  and  C_9
REMARK    5  A    between atoms: C_9  and  N_10
REMARK    6  A    between atoms: N_10  and  C_11
REMARK    7  A    between atoms: C_11  and  N_13
REMARK    8  A    between atoms: N_13  and  C_14
REMARK                            x       y       z     vdW  Elec       q    Type
REMARK                         _______ _______ _______ _____ _____    ______ ____
ROOT
ATOM      1  N   UNL     1       5.658  -1.394   1.312  0.00  0.00    -0.326 N 
ATOM      2  H   UNL     1       5.941  -1.851   0.505  0.00  0.00    +0.148 HD
ENDROOT
BRANCH   1   3
ATOM      3  C   UNL     1       6.302  -1.617   2.475  0.00  0.00    +0.135 C 
ATOM      4  S   UNL     1       5.802  -0.809   3.899  0.00  0.00    -0.019 S 
BRANCH   3   5
ATOM      5  N   UNL     1       7.339  -2.477   2.517  0.00  0.00    -0.296 N 
ATOM      6  H   UNL     1       7.583  -2.981   1.725  0.00  0.00    +0.154 HD
BRANCH   5   7
ATOM      7  C   UNL     1       8.065  -2.641   3.703  0.00  0.00    +0.051 A 
ATOM      8  C   UNL     1       7.397  -2.828   4.906  0.00  0.00    +0.026 A 
ATOM      9  C   UNL     1       8.115  -2.990   6.075  0.00  0.00    +0.022 A 
ATOM     10  C   UNL     1       9.499  -2.967   6.048  0.00  0.00    +0.042 A 
ATOM     11  C   UNL     1      10.167  -2.781   4.850  0.00  0.00    +0.041 A 
ATOM     12  C   UNL     1       9.454  -2.623   3.677  0.00  0.00    +0.063 A 
ATOM     13 CL   UNL     1      10.292  -2.397   2.174  0.00  0.00    -0.082 Cl
ATOM     14 CL   UNL     1      10.398  -3.171   7.519  0.00  0.00    -0.083 Cl
ENDBRANCH   5   7
ENDBRANCH   3   5
ENDBRANCH   1   3
BRANCH   1  15
ATOM     15  C   UNL     1       4.531  -0.459   1.266  0.00  0.00    +0.108 C 
BRANCH  15  16
ATOM     16  C   UNL     1       3.984  -0.389  -0.161  0.00  0.00    +0.057 C 
BRANCH  16  20
ATOM     17  C   UNL     1       0.694   2.343  -0.295  0.00  0.00    +0.049 A 
ATOM     18  C   UNL     1       1.988   2.814  -0.415  0.00  0.00    +0.049 A 
ATOM     19  C   UNL     1       3.055   1.930  -0.371  0.00  0.00    +0.120 A 
ATOM     20  C   UNL     1       2.824   0.572  -0.207  0.00  0.00    -0.001 A 
ATOM     21  C   UNL     1       1.531   0.101  -0.088  0.00  0.00    +0.052 A 
ATOM     22  C   UNL     1       0.464   0.986  -0.131  0.00  0.00    +0.117 A 
BRANCH  22  23
ATOM     23  O   UNL     1      -0.809   0.521  -0.013  0.00  0.00    -0.507 OA
ATOM     24  H   UNL     1      -1.223   0.289  -0.856  0.00  0.00    +0.292 HD
ENDBRANCH  22  23
BRANCH  19  25
ATOM     25  O   UNL     1       4.327   2.394  -0.489  0.00  0.00    -0.506 OA
ATOM     26  H   UNL     1       4.741   2.627   0.353  0.00  0.00    +0.292 HD
ENDBRANCH  19  25
ENDBRANCH  16  20
ENDBRANCH  15  16
ENDBRANCH   1  15
TORSDOF 8
