REMARK  Name = ZINC24308984
REMARK  7 active torsions:
REMARK  status: ('A' for Active; 'I' for Inactive)
REMARK    1  A    between atoms: C_1  and  C_2
REMARK    2  A    between atoms: C_2  and  O_3
REMARK    3  A    between atoms: O_3  and  C_4
REMARK    4  A    between atoms: C_9  and  C_10
REMARK    5  A    between atoms: N_12  and  N_13
REMARK    6  A    between atoms: C_14  and  C_16
REMARK    7  A    between atoms: C_23  and  C_26
REMARK                            x       y       z     vdW  Elec       q    Type
REMARK                         _______ _______ _______ _____ _____    ______ ____
ROOT
ATOM      1  N   UNL     1      -0.011   0.966   0.007  0.00  0.00    -0.230 N 
ATOM      2  C   UNL     1      -1.187   1.624   0.017  0.00  0.00    +0.267 C 
ATOM      3  O   UNL     1      -1.204   2.841   0.023  0.00  0.00    -0.268 OA
ATOM      4  H   UNL     1       0.004  -0.134   0.006  0.00  0.00    +0.173 HD
ENDROOT
BRANCH   2   5
ATOM      5  C   UNL     1      -2.447   0.874   0.018  0.00  0.00    +0.076 A 
ATOM      6  C   UNL     1      -3.745   1.349   0.027  0.00  0.00    +0.024 A 
ATOM      7  C   UNL     1      -4.779   0.428   0.027  0.00  0.00    -0.036 A 
ATOM      8  C   UNL     1      -4.427  -0.892   0.018  0.00  0.00    -0.006 A 
ATOM      9  S   UNL     1      -2.705  -0.892   0.002  0.00  0.00    -0.088 S 
ATOM     10  C   UNL     1      -5.349  -2.072   0.014  0.00  0.00    +0.043 C 
ATOM     11  C   UNL     1      -6.758  -1.585  -0.352  0.00  0.00    +0.009 C 
ATOM     12  C   UNL     1      -7.090  -0.354   0.496  0.00  0.00    -0.009 C 
ATOM     13  C   UNL     1      -6.250   0.838   0.037  0.00  0.00    +0.039 C 
ATOM     14  C   UNL     1      -8.575  -0.018   0.345  0.00  0.00    +0.008 C 
ENDBRANCH   2   5
BRANCH   1  17
ATOM     15  C   UNL     1       2.369   1.025  -0.015  0.00  0.00    +0.264 C 
ATOM     16  O   UNL     1       2.385  -0.191  -0.022  0.00  0.00    -0.269 OA
ATOM     17  N   UNL     1       1.193   1.683  -0.000  0.00  0.00    -0.230 N 
ATOM     18  H   UNL     1       1.178   2.783   0.006  0.00  0.00    +0.173 HD
BRANCH  15  24
ATOM     19  C   UNL     1       4.862   1.100  -0.033  0.00  0.00    +0.133 A 
ATOM     20  C   UNL     1       6.047   1.820  -0.046  0.00  0.00    +0.046 A 
ATOM     21  C   UNL     1       6.019   3.200  -0.038  0.00  0.00    +0.004 A 
ATOM     22  C   UNL     1       4.809   3.876  -0.023  0.00  0.00    +0.001 A 
ATOM     23  C   UNL     1       3.622   3.177  -0.015  0.00  0.00    +0.017 A 
ATOM     24  C   UNL     1       3.636   1.780  -0.023  0.00  0.00    +0.080 A 
BRANCH  19  25
ATOM     25  O   UNL     1       4.888  -0.257  -0.035  0.00  0.00    -0.491 OA
BRANCH  25  27
ATOM     26  C   UNL     1       6.003  -2.401  -0.045  0.00  0.00    +0.048 C 
ATOM     27  C   UNL     1       6.174  -0.880  -0.044  0.00  0.00    +0.226 C 
ENDBRANCH  25  27
ENDBRANCH  19  25
ENDBRANCH  15  24
ENDBRANCH   1  17
TORSDOF 5
