REMARK  Name = ZINC28939469
REMARK  7 active torsions:
REMARK  status: ('A' for Active; 'I' for Inactive)
REMARK    1  A    between atoms: C_1  and  C_2
REMARK    2  A    between atoms: C_9  and  C_16
REMARK    3  A    between atoms: C_11  and  O_12
REMARK    4  A    between atoms: C_16  and  S_17
REMARK    5  A    between atoms: S_17  and  C_18
REMARK    6  A    between atoms: C_22  and  C_25
REMARK    7  A    between atoms: N_32  and  C_33
REMARK                            x       y       z     vdW  Elec       q    Type
REMARK                         _______ _______ _______ _____ _____    ______ ____
ROOT
ATOM      1  C   UNL     1       0.478  -7.013   0.429  0.00  0.00    +0.113 C 
ENDROOT
BRANCH   1  10
ATOM      2  C   UNL     1      -2.193   1.470   0.609  0.00  0.00    +0.109 C 
ATOM      3  C   UNL     1      -2.168  -0.036   0.609  0.00  0.00    +0.214 C 
ATOM      4  O   UNL     1      -3.058  -0.658   1.150  0.00  0.00    -0.276 OA
ATOM      5  N   UNL     1      -1.156  -0.694   0.009  0.00  0.00    -0.286 N 
ATOM      6  C   UNL     1      -1.081  -2.085   0.091  0.00  0.00    +0.037 A 
ATOM      7  C   UNL     1       0.164  -2.708   0.166  0.00  0.00    +0.024 A 
ATOM      8  C   UNL     1       0.253  -4.066   0.253  0.00  0.00    +0.013 A 
ATOM      9  C   UNL     1      -0.913  -4.841   0.254  0.00  0.00    +0.022 A 
ATOM     10  C   UNL     1      -0.848  -6.301   0.341  0.00  0.00    -0.020 A 
ATOM     11  C   UNL     1      -2.014  -6.998   0.339  0.00  0.00    +0.092 A 
ATOM     12  C   UNL     1      -3.242  -6.309   0.254  0.00  0.00    +0.285 A 
ATOM     13  O   UNL     1      -3.295  -4.971   0.176  0.00  0.00    -0.425 OA
ATOM     14  C   UNL     1      -2.173  -4.219   0.173  0.00  0.00    +0.141 A 
ATOM     15  C   UNL     1      -2.246  -2.837   0.092  0.00  0.00    +0.070 A 
ATOM     16  H   UNL     1      -0.388  -0.134  -0.545  0.00  0.00    +0.155 HD
BRANCH  12  17
ATOM     17  O   UNL     1      -4.280  -6.946   0.253  0.00  0.00    -0.480 OA
ATOM     18  H   UNL     1      -5.246  -6.423   0.188  0.00  0.00    +0.295 HD
ENDBRANCH  12  17
ENDBRANCH   1  10
BRANCH   1  19
ATOM     19  S   UNL     1       1.070  -7.395  -1.238  0.00  0.00    -0.083 S 
BRANCH  19  20
ATOM     20  C   UNL     1       2.589  -8.198  -0.846  0.00  0.00    +0.173 A 
ATOM     21  N   UNL     1       2.943  -8.341   0.415  0.00  0.00    -0.216 NA
ATOM     22  C   UNL     1       4.082  -8.943   0.739  0.00  0.00    +0.117 A 
ATOM     23  C   UNL     1       4.959  -9.452  -0.234  0.00  0.00    +0.080 A 
ATOM     24  C   UNL     1       6.166 -10.083   0.293  0.00  0.00    +0.010 A 
ATOM     25  C   UNL     1       6.344 -10.127   1.636  0.00  0.00    +0.057 A 
ATOM     26  S   UNL     1       4.889  -9.319   2.274  0.00  0.00    -0.076 S 
ATOM     27  C   UNL     1       4.550  -9.283  -1.592  0.00  0.00    +0.263 A 
ATOM     28  O   UNL     1       5.248  -9.694  -2.503  0.00  0.00    -0.267 OA
ATOM     29  N   UNL     1       3.381  -8.670  -1.853  0.00  0.00    -0.290 N 
ATOM     30  C   UNL     1       2.953  -8.499  -3.244  0.00  0.00    +0.154 C 
BRANCH  24  31
ATOM     31  C   UNL     1       7.175 -10.660  -0.620  0.00  0.00    +0.021 A 
ATOM     32  C   UNL     1       8.529 -10.461  -0.647  0.00  0.00    +0.016 A 
ATOM     33  C   UNL     1       9.277 -11.118  -1.601  0.00  0.00    +0.008 A 
ATOM     34  C   UNL     1       8.649 -11.932  -2.487  0.00  0.00    +0.046 A 
ATOM     35  S   UNL     1       6.943 -11.793  -1.980  0.00  0.00    -0.097 S 
ENDBRANCH  24  31
ENDBRANCH  19  20
ENDBRANCH   1  19
TORSDOF 5
