REMARK  Name = ZINC14479914
REMARK  4 active torsions:
REMARK  status: ('A' for Active; 'I' for Inactive)
REMARK    1  A    between atoms: C_1  and  C_2
REMARK    2  A    between atoms: C_6  and  C_8
REMARK    3  A    between atoms: C_18  and  N_25
REMARK    4  A    between atoms: C_21  and  O_24
REMARK                            x       y       z     vdW  Elec       q    Type
REMARK                         _______ _______ _______ _____ _____    ______ ____
ROOT
ATOM      1  C   UNL     1       0.239  -2.718   1.730  0.00  0.00    +0.105 C 
ATOM      2  C   UNL     1      -1.188  -2.990   2.170  0.00  0.00    +0.029 C 
ATOM      3  C   UNL     1      -2.200  -1.849   2.007  0.00  0.00    +0.033 C 
ATOM      4  C   UNL     1      -3.505  -2.621   1.802  0.00  0.00    -0.030 C 
ATOM      5  C   UNL     1      -3.247  -3.822   1.297  0.00  0.00    -0.023 C 
ATOM      6  C   UNL     1      -1.771  -3.969   1.107  0.00  0.00    +0.051 C 
ATOM      7  C   UNL     1      -1.067  -5.262   1.247  0.00  0.00    +0.014 A 
ATOM      8  C   UNL     1      -1.696  -6.473   1.044  0.00  0.00    +0.132 A 
ATOM      9  C   UNL     1      -0.993  -7.656   1.173  0.00  0.00    +0.037 A 
ATOM     10  C   UNL     1       0.350  -7.630   1.505  0.00  0.00    +0.049 A 
ATOM     11  C   UNL     1       0.989  -6.422   1.716  0.00  0.00    +0.138 A 
ATOM     12  C   UNL     1       0.286  -5.225   1.595  0.00  0.00    +0.076 A 
ATOM     13  N   UNL     1       0.949  -4.011   1.848  0.00  0.00    -0.334 N 
ATOM     14  H   UNL     1       1.884  -4.020   2.105  0.00  0.00    +0.147 HD
ENDROOT
BRANCH   1  20
ATOM     15  C   UNL     1       0.009   1.011  -1.600  0.00  0.00    +0.044 C 
ATOM     16  C   UNL     1       0.150  -0.458  -1.293  0.00  0.00    -0.050 A 
ATOM     17  C   UNL     1       0.300  -1.368  -2.323  0.00  0.00    +0.003 A 
ATOM     18  C   UNL     1       0.430  -2.715  -2.041  0.00  0.00    +0.001 A 
ATOM     19  C   UNL     1       0.410  -3.152  -0.730  0.00  0.00    +0.005 A 
ATOM     20  C   UNL     1       0.261  -2.242   0.300  0.00  0.00    -0.027 A 
ATOM     21  C   UNL     1       0.136  -0.894   0.018  0.00  0.00    +0.008 A 
ENDBRANCH   1  20
BRANCH   8  22
ATOM     22  N   UNL     1      -3.132  -6.506   0.688  0.00  0.00    +0.057 N 
ATOM     23  O   UNL     1      -3.899  -7.183   1.331  0.00  0.00    -0.126 OA
ATOM     24  O   UNL     1      -3.538  -5.855  -0.247  0.00  0.00    -0.126 OA
ENDBRANCH   8  22
BRANCH  11  25
ATOM     25  O   UNL     1       2.310  -6.402   2.041  0.00  0.00    -0.505 OA
ATOM     26  H   UNL     1       2.902  -6.359   1.278  0.00  0.00    +0.292 HD
ENDBRANCH  11  25
TORSDOF 3
