REMARK  Name = ZINC11998601
REMARK  6 active torsions:
REMARK  status: ('A' for Active; 'I' for Inactive)
REMARK    1  A    between atoms: C_3  and  C_6
REMARK    2  A    between atoms: C_6  and  C_8
REMARK    3  A    between atoms: C_6  and  N_58
REMARK    4  A    between atoms: C_8  and  N_9
REMARK    5  A    between atoms: C_10  and  C_12
REMARK    6  A    between atoms: C_15  and  N_18
REMARK                            x       y       z     vdW  Elec       q    Type
REMARK                         _______ _______ _______ _____ _____    ______ ____
ROOT
ATOM      1  N   UNL     1       3.298  -3.393   1.301  0.00  0.00    -0.313 N 
ATOM      2  C   UNL     1       3.438  -4.102   2.438  0.00  0.00    +0.244 C 
ATOM      3  O   UNL     1       3.101  -3.619   3.502  0.00  0.00    -0.270 OA
ATOM      4  H   UNL     1       3.567  -3.778   0.453  0.00  0.00    +0.149 HD
ENDROOT
BRANCH   2   5
ATOM      5  C   UNL     1       4.001  -5.465   2.393  0.00  0.00    +0.037 A 
ATOM      6  C   UNL     1       4.384  -6.025   1.171  0.00  0.00    +0.015 A 
ATOM      7  C   UNL     1       4.915  -7.294   1.133  0.00  0.00    +0.026 A 
ATOM      8  C   UNL     1       5.059  -8.025   2.308  0.00  0.00    +0.059 A 
ATOM      9  C   UNL     1       4.673  -7.474   3.526  0.00  0.00    +0.026 A 
ATOM     10  C   UNL     1       4.148  -6.202   3.571  0.00  0.00    +0.015 A 
BRANCH   8  11
ATOM     11  N   UNL     1       5.591  -9.314   2.265  0.00  0.00    -0.144 N 
ATOM     12  C   UNL     1       6.220  -9.942   3.269  0.00  0.00    +0.240 C 
ATOM     13  O   UNL     1       6.348  -9.408   4.351  0.00  0.00    -0.274 OA
ATOM     14  C   UNL     1       6.758 -11.319   3.026  0.00  0.00    +0.122 C 
ATOM     15  C   UNL     1       6.057 -11.914   1.777  0.00  0.00    +0.198 C 
ATOM     16  S   UNL     1       5.564 -10.347   0.948  0.00  0.00    +0.052 S 
ATOM     17  O   UNL     1       4.207 -10.400   0.529  0.00  0.00    -0.155 OA
ATOM     18  O   UNL     1       6.590  -9.889   0.078  0.00  0.00    -0.155 OA
ENDBRANCH   8  11
ENDBRANCH   2   5
BRANCH   1  19
ATOM     19  C   UNL     1       2.739  -2.039   1.346  0.00  0.00    +0.094 C 
BRANCH  19  20
ATOM     20  C   UNL     1       2.591  -1.501  -0.078  0.00  0.00    -0.013 C 
BRANCH  20  27
ATOM     21  C   UNL     1       0.708  -0.221   0.774  0.00  0.00    -0.078 C 
ATOM     22  C   UNL     1      -0.128   1.021   0.624  0.00  0.00    -0.019 C 
ATOM     23  C   UNL     1      -1.177   0.775  -0.480  0.00  0.00    -0.002 C 
ATOM     24  C   UNL     1      -0.609   0.899  -1.818  0.00  0.00    -0.002 C 
ATOM     25  C   UNL     1       0.514  -0.127  -2.072  0.00  0.00    -0.019 C 
ATOM     26  C   UNL     1       1.770   0.364  -1.403  0.00  0.00    -0.078 C 
ATOM     27  N   UNL     1       1.988  -0.160  -0.012  0.00  0.00    +0.386 N 
ATOM     28  H   UNL     1       2.636   0.471   0.474  0.00  0.00    -0.081 HD
ENDBRANCH  20  27
BRANCH  20  31
ATOM     29  C   UNL     1       5.835  -1.889  -2.037  0.00  0.00    +0.008 A 
ATOM     30  C   UNL     1       4.569  -2.210  -1.582  0.00  0.00    +0.009 A 
ATOM     31  C   UNL     1       3.952  -1.375  -0.712  0.00  0.00    -0.022 A 
ATOM     32  S   UNL     1       5.171  -0.086  -0.509  0.00  0.00    -0.103 S 
ATOM     33  C   UNL     1       6.421  -0.749  -1.599  0.00  0.00    +0.045 A 
ENDBRANCH  20  31
ENDBRANCH  19  20
ENDBRANCH   1  19
TORSDOF 6
