REMARK  Name = ZINC45620908
REMARK  12 active torsions:
REMARK  status: ('A' for Active; 'I' for Inactive)
REMARK    1  A    between atoms: C_1  and  C_2
REMARK    2  A    between atoms: C_2  and  N_3
REMARK    3  A    between atoms: N_3  and  C_4
REMARK    4  A    between atoms: N_3  and  S_6
REMARK    5  A    between atoms: C_4  and  C_5
REMARK    6  A    between atoms: S_6  and  C_9
REMARK    7  A    between atoms: C_12  and  S_18
REMARK    8  A    between atoms: C_13  and  N_15
REMARK    9  A    between atoms: S_18  and  C_19
REMARK   10  A    between atoms: N_24  and  C_25
REMARK   11  A    between atoms: C_25  and  C_26
REMARK   12  A    between atoms: C_26  and  C_27
REMARK                            x       y       z     vdW  Elec       q    Type
REMARK                         _______ _______ _______ _____ _____    ______ ____
ROOT
ATOM      1  C   UNL     1      -0.348   0.586  -3.523  0.00  0.00    +0.108 A 
ATOM      2  C   UNL     1      -1.490   1.366  -3.432  0.00  0.00    +0.030 A 
ATOM      3  C   UNL     1      -1.610   2.509  -4.192  0.00  0.00    +0.019 A 
ATOM      4  C   UNL     1      -0.577   2.882  -5.056  0.00  0.00    +0.045 A 
ATOM      5  C   UNL     1       0.572   2.092  -5.143  0.00  0.00    +0.142 A 
ATOM      6  C   UNL     1       0.682   0.953  -4.373  0.00  0.00    +0.062 A 
ENDROOT
BRANCH   1   7
ATOM      7  S   UNL     1      -0.203  -0.874  -2.548  0.00  0.00    +0.061 S 
ATOM      8  O   UNL     1       0.727  -1.716  -3.214  0.00  0.00    -0.153 OA
ATOM      9  O   UNL     1      -1.527  -1.292  -2.243  0.00  0.00    -0.153 OA
BRANCH   7  10
ATOM     10  N   UNL     1       0.498  -0.437  -1.113  0.00  0.00    -0.177 NA
BRANCH  10  12
ATOM     11  C   UNL     1      -0.465   1.498   0.033  0.00  0.00    +0.022 C 
ATOM     12  C   UNL     1      -0.340  -0.027   0.017  0.00  0.00    +0.106 C 
ENDBRANCH  10  12
BRANCH  10  13
ATOM     13  C   UNL     1       1.956  -0.459  -0.973  0.00  0.00    +0.106 C 
ATOM     14  C   UNL     1       2.388  -1.792  -0.358  0.00  0.00    +0.022 C 
ENDBRANCH  10  13
ENDBRANCH   7  10
ENDBRANCH   1   7
BRANCH   5  15
ATOM     15  N   UNL     1       1.672   2.479  -6.055  0.00  0.00    +0.058 N 
ATOM     16  O   UNL     1       2.754   1.733  -6.136  0.00  0.00    -0.126 OA
ATOM     17  O   UNL     1       1.567   3.569  -6.786  0.00  0.00    -0.126 OA
ENDBRANCH   5  15
BRANCH   4  18
ATOM     18  S   UNL     1      -0.722   4.342  -6.031  0.00  0.00    -0.059 S 
BRANCH  18  19
ATOM     19  C   UNL     1      -1.095   3.777  -7.546  0.00  0.00    +0.165 A 
ATOM     20  N   UNL     1      -1.354   2.494  -7.963  0.00  0.00    -0.133 NA
ATOM     21  N   UNL     1      -1.617   2.308  -9.185  0.00  0.00    -0.125 NA
ATOM     22  C   UNL     1      -1.643   3.356 -10.065  0.00  0.00    +0.182 A 
ATOM     23  S   UNL     1      -1.276   4.673  -9.081  0.00  0.00    -0.024 S 
ATOM     24  N   UNL     1      -1.902   3.339 -11.382  0.00  0.00    -0.322 N 
ATOM     25  H   UNL     1      -1.886   4.165 -11.890  0.00  0.00    +0.148 HD
BRANCH  24  26
ATOM     26  C   UNL     1      -2.208   2.073 -12.052  0.00  0.00    +0.108 C 
BRANCH  26  27
ATOM     27  C   UNL     1      -2.462   2.331 -13.539  0.00  0.00    +0.061 C 
BRANCH  27  28
ATOM     28  C   UNL     1      -2.777   1.028 -14.228  0.00  0.00    -0.009 A 
ATOM     29  C   UNL     1      -3.980   0.436 -14.424  0.00  0.00    +0.011 A 
ATOM     30  C   UNL     1      -4.031  -0.773 -15.092  0.00  0.00    +0.008 A 
ATOM     31  C   UNL     1      -2.876  -1.331 -15.531  0.00  0.00    +0.045 A 
ATOM     32  S   UNL     1      -1.664  -0.131 -15.005  0.00  0.00    -0.102 S 
ENDBRANCH  27  28
ENDBRANCH  26  27
ENDBRANCH  24  26
ENDBRANCH  18  19
ENDBRANCH   4  18
TORSDOF 10
