REMARK  Name = ZINC54199357
REMARK  6 active torsions:
REMARK  status: ('A' for Active; 'I' for Inactive)
REMARK    1  A    between atoms: C_1  and  C_2
REMARK    2  A    between atoms: C_2  and  C_3
REMARK    3  A    between atoms: C_3  and  C_11
REMARK    4  A    between atoms: C_14  and  N_17
REMARK    5  A    between atoms: C_18  and  C_20
REMARK    6  A    between atoms: C_24  and  C_29
REMARK                            x       y       z     vdW  Elec       q    Type
REMARK                         _______ _______ _______ _____ _____    ______ ____
ROOT
ATOM      1  C   UNL     1       0.132  -0.101  -2.469  0.00  0.00    -0.032 A 
ATOM      2  C   UNL     1      -0.338  -1.008  -3.400  0.00  0.00    +0.006 A 
ATOM      3  C   UNL     1      -0.905  -0.561  -4.577  0.00  0.00    +0.023 A 
ATOM      4  C   UNL     1      -1.002   0.802  -4.826  0.00  0.00    +0.034 A 
ATOM      5  C   UNL     1      -0.528   1.711  -3.889  0.00  0.00    +0.023 A 
ATOM      6  C   UNL     1       0.032   1.257  -2.711  0.00  0.00    +0.006 A 
ENDROOT
BRANCH   1   7
ATOM      7  C   UNL     1       0.749  -0.592  -1.185  0.00  0.00    +0.072 C 
ATOM      8  C   UNL     1       0.623  -2.117  -1.105  0.00  0.00    +0.030 C 
ATOM      9  C   UNL     1       1.354  -2.602   0.151  0.00  0.00    +0.097 C 
ATOM     10  C   UNL     1       2.778  -2.115   0.114  0.00  0.00    +0.219 C 
ATOM     11  O   UNL     1       3.643  -2.764   0.661  0.00  0.00    -0.275 OA
ATOM     12  N   UNL     1       3.108  -0.976  -0.514  0.00  0.00    -0.256 N 
ATOM     13  C   UNL     1       2.206  -0.214  -1.149  0.00  0.00    +0.230 C 
ATOM     14  O   UNL     1       2.571   0.799  -1.706  0.00  0.00    -0.274 OA
ATOM     15  H   UNL     1       4.036  -0.693  -0.508  0.00  0.00    +0.157 HD
BRANCH   7  17
ATOM     16  C   UNL     1      -1.462  -0.306  -0.055  0.00  0.00    +0.005 C 
ATOM     17  C   UNL     1       0.027   0.044   0.005  0.00  0.00    +0.017 C 
ENDBRANCH   7  17
ENDBRANCH   1   7
BRANCH   4  18
ATOM     18  N   UNL     1      -1.574   1.258  -6.018  0.00  0.00    -0.279 N 
ATOM     19  C   UNL     1      -1.123   2.390  -6.592  0.00  0.00    +0.284 C 
ATOM     20  O   UNL     1      -0.158   2.966  -6.125  0.00  0.00    -0.266 OA
ATOM     21  H   UNL     1      -2.296   0.758  -6.431  0.00  0.00    +0.155 HD
BRANCH  19  22
ATOM     22  C   UNL     1      -1.797   2.930  -7.781  0.00  0.00    +0.191 A 
ATOM     23  C   UNL     1      -1.428   4.057  -8.444  0.00  0.00    +0.063 A 
ATOM     24  C   UNL     1      -2.375   4.204  -9.549  0.00  0.00    +0.021 A 
ATOM     25  C   UNL     1      -2.535   5.138 -10.576  0.00  0.00    +0.015 A 
ATOM     26  C   UNL     1      -3.551   4.986 -11.476  0.00  0.00    -0.050 A 
ATOM     27  C   UNL     1      -4.424   3.911 -11.377  0.00  0.00    +0.007 A 
ATOM     28  C   UNL     1      -4.283   2.979 -10.372  0.00  0.00    +0.047 A 
ATOM     29  C   UNL     1      -3.256   3.112  -9.444  0.00  0.00    +0.136 A 
ATOM     30  O   UNL     1      -2.871   2.378  -8.382  0.00  0.00    -0.450 OA
ATOM     31  C   UNL     1      -3.726   5.992 -12.585  0.00  0.00    +0.044 C 
ENDBRANCH  19  22
ENDBRANCH   4  18
TORSDOF 4
