REMARK  Name = ZINC47640405
REMARK  3 active torsions:
REMARK  status: ('A' for Active; 'I' for Inactive)
REMARK    1  A    between atoms: C_5  and  N_8
REMARK    2  A    between atoms: N_11  and  C_12
REMARK    3  A    between atoms: C_18  and  C_20
REMARK                            x       y       z     vdW  Elec       q    Type
REMARK                         _______ _______ _______ _____ _____    ______ ____
ROOT
ATOM      1  C   UNL     1       2.949  -5.433   2.464  0.00  0.00    +0.077 C 
ATOM      2  C   UNL     1       1.726  -6.264   2.072  0.00  0.00    +0.041 C 
ATOM      3  C   UNL     1       2.089  -7.179   0.898  0.00  0.00    +0.109 C 
ATOM      4  N   UNL     1       3.268  -7.976   1.267  0.00  0.00    -0.301 N 
ATOM      5  C   UNL     1       4.470  -7.279   1.744  0.00  0.00    +0.109 C 
ATOM      6  C   UNL     1       4.080  -6.364   2.909  0.00  0.00    +0.041 C 
ATOM      7  C   UNL     1       3.246  -9.320   1.169  0.00  0.00    +0.219 C 
ATOM      8  O   UNL     1       2.223  -9.888   0.850  0.00  0.00    -0.275 OA
ENDROOT
BRANCH   1  12
ATOM      9  N   UNL     1       1.702  -2.512   4.316  0.00  0.00    -0.297 N 
ATOM     10  C   UNL     1       2.027  -3.339   3.303  0.00  0.00    +0.300 C 
ATOM     11  O   UNL     1       1.808  -3.009   2.154  0.00  0.00    -0.253 OA
ATOM     12  N   UNL     1       2.596  -4.533   3.564  0.00  0.00    -0.296 N 
ATOM     13  H   UNL     1       1.877  -2.775   5.233  0.00  0.00    +0.151 HD
ATOM     14  H   UNL     1       2.771  -4.796   4.481  0.00  0.00    +0.151 HD
BRANCH   9  19
ATOM     15  C   UNL     1      -1.083   0.918   3.279  0.00  0.00    +0.000 C 
ATOM     16  C   UNL     1       0.212   1.537   3.844  0.00  0.00    +0.000 C 
ATOM     17  C   UNL     1       0.451   0.972   5.218  0.00  0.00    +0.002 C 
ATOM     18  C   UNL     1       1.386  -0.253   5.197  0.00  0.00    +0.022 C 
ATOM     19  C   UNL     1       1.084  -1.214   4.032  0.00  0.00    +0.074 C 
ATOM     20  C   UNL     1      -0.392  -1.414   3.817  0.00  0.00    +0.022 C 
ATOM     21  C   UNL     1      -0.871  -0.418   2.742  0.00  0.00    +0.002 C 
ENDBRANCH   9  19
ENDBRANCH   1  12
BRANCH   7  22
ATOM     22  C   UNL     1       4.492 -10.116   1.456  0.00  0.00    +0.075 C 
ATOM     23  C   UNL     1       5.389 -10.125   0.216  0.00  0.00    +0.013 C 
ATOM     24  C   UNL     1       6.655 -10.934   0.508  0.00  0.00    +0.001 C 
ATOM     25  C   UNL     1       6.270 -12.370   0.868  0.00  0.00    +0.000 C 
ATOM     26  C   UNL     1       5.373 -12.362   2.108  0.00  0.00    +0.001 C 
ATOM     27  C   UNL     1       4.108 -11.553   1.817  0.00  0.00    +0.013 C 
ENDBRANCH   7  22
TORSDOF 3
