REMARK  Name = ZINC01423065
REMARK  3 active torsions:
REMARK  status: ('A' for Active; 'I' for Inactive)
REMARK    1  A    between atoms: C_8  and  C_26
REMARK    2  A    between atoms: C_9  and  N_25
REMARK    3  A    between atoms: N_10  and  C_18
REMARK                            x       y       z     vdW  Elec       q    Type
REMARK                         _______ _______ _______ _____ _____    ______ ____
ROOT
ATOM      1  C   UNL     1      -0.182   1.399  -1.683  0.00  0.00    +0.000 A 
ATOM      2  C   UNL     1       0.988   2.126  -1.769  0.00  0.00    +0.002 A 
ATOM      3  C   UNL     1       1.056   3.455  -1.380  0.00  0.00    +0.023 A 
ATOM      4  C   UNL     1      -0.114   4.038  -0.893  0.00  0.00    +0.038 A 
ATOM      5  C   UNL     1      -1.294   3.290  -0.811  0.00  0.00    -0.002 A 
ATOM      6  C   UNL     1      -1.356   1.970  -1.205  0.00  0.00    +0.007 A 
ATOM      7  C   UNL     1      -2.339   4.208  -0.254  0.00  0.00    +0.141 C 
ATOM      8  C   UNL     1      -2.856   3.697   1.057  0.00  0.00    +0.089 C 
ATOM      9  C   UNL     1      -4.093   3.141   1.150  0.00  0.00    +0.108 C 
ATOM     10  N   UNL     1      -4.892   3.043   0.034  0.00  0.00    -0.260 N 
ATOM     11  C   UNL     1      -4.654   3.821  -1.068  0.00  0.00    +0.025 C 
ATOM     12  C   UNL     1      -3.451   4.407  -1.250  0.00  0.00    +0.037 C 
ATOM     13  C   UNL     1      -3.204   5.221  -2.369  0.00  0.00    +0.162 C 
ATOM     14  O   UNL     1      -2.108   5.728  -2.506  0.00  0.00    -0.292 OA
ATOM     15  C   UNL     1      -4.269   5.477  -3.400  0.00  0.00    +0.080 C 
ATOM     16  C   UNL     1      -5.644   5.378  -2.731  0.00  0.00    +0.014 C 
ATOM     17  C   UNL     1      -5.766   4.001  -2.073  0.00  0.00    +0.052 C 
ATOM     18  C   UNL     1      -1.606   5.518  -0.045  0.00  0.00    +0.238 C 
ATOM     19  O   UNL     1      -2.078   6.545   0.396  0.00  0.00    -0.274 OA
ATOM     20  N   UNL     1      -0.331   5.328  -0.441  0.00  0.00    -0.284 N 
ATOM     21  H   UNL     1       0.354   6.014  -0.411  0.00  0.00    +0.155 HD
ENDROOT
BRANCH  10  22
ATOM     22  C   UNL     1      -5.961   2.139   0.026  0.00  0.00    +0.042 A 
ATOM     23  C   UNL     1      -5.786   0.860  -0.487  0.00  0.00    +0.024 A 
ATOM     24  C   UNL     1      -6.840  -0.032  -0.491  0.00  0.00    +0.005 A 
ATOM     25  C   UNL     1      -8.073   0.349   0.006  0.00  0.00    +0.038 A 
ATOM     26  C   UNL     1      -8.253   1.625   0.514  0.00  0.00    +0.125 A 
ATOM     27  C   UNL     1      -7.199   2.521   0.525  0.00  0.00    +0.062 A 
ATOM     28  F   UNL     1      -9.458   1.995   1.000  0.00  0.00    -0.205 F 
ENDBRANCH  10  22
BRANCH   9  29
ATOM     29  N   UNL     1      -4.545   2.674   2.361  0.00  0.00    -0.345 N 
ATOM     30  H   UNL     1      -3.952   2.662   3.128  0.00  0.00    +0.144 HD
ATOM     31  H   UNL     1      -5.458   2.358   2.449  0.00  0.00    +0.144 HD
ENDBRANCH   9  29
BRANCH   8  32
ATOM     32  C   UNL     1      -2.037   3.796   2.227  0.00  0.00    +0.100 C 
ATOM     33  N   UNL     1      -1.386   3.875   3.155  0.00  0.00    -0.191 NA
ENDBRANCH   8  32
TORSDOF 3
