REMARK  Name = ZINC21142377
REMARK  9 active torsions:
REMARK  status: ('A' for Active; 'I' for Inactive)
REMARK    1  A    between atoms: C_1  and  C_2
REMARK    2  A    between atoms: C_2  and  C_3
REMARK    3  A    between atoms: C_2  and  C_4
REMARK    4  A    between atoms: C_4  and  C_6
REMARK    5  A    between atoms: C_4  and  N_23
REMARK    6  A    between atoms: N_8  and  C_9
REMARK    7  A    between atoms: C_13  and  N_15
REMARK    8  A    between atoms: C_16  and  C_18
REMARK    9  A    between atoms: C_24  and  C_26
REMARK                            x       y       z     vdW  Elec       q    Type
REMARK                         _______ _______ _______ _____ _____    ______ ____
ROOT
ATOM      1  C   UNL     1      -0.030   0.009   0.024  0.00  0.00    +0.238 C 
ATOM      2  O   UNL     1       1.032  -0.577   0.002  0.00  0.00    -0.273 OA
ATOM      3  N   UNL     1      -1.183  -0.688   0.029  0.00  0.00    -0.284 N 
ATOM      4  H   UNL     1      -2.144  -0.161   0.125  0.00  0.00    +0.155 HD
ENDROOT
BRANCH   3   5
ATOM      5  C   UNL     1      -1.159  -2.082  -0.090  0.00  0.00    +0.035 A 
ATOM      6  C   UNL     1      -0.127  -2.811   0.488  0.00  0.00    +0.023 A 
ATOM      7  C   UNL     1      -0.103  -4.188   0.372  0.00  0.00    +0.004 A 
ATOM      8  C   UNL     1      -1.104  -4.843  -0.318  0.00  0.00    +0.023 A 
ATOM      9  C   UNL     1      -2.139  -4.120  -0.899  0.00  0.00    +0.035 A 
ATOM     10  C   UNL     1      -2.169  -2.738  -0.779  0.00  0.00    +0.046 A 
BRANCH   9  11
ATOM     11  N   UNL     1      -3.151  -4.785  -1.597  0.00  0.00    -0.281 N 
ATOM     12  C   UNL     1      -3.705  -4.214  -2.686  0.00  0.00    +0.255 C 
ATOM     13  O   UNL     1      -3.385  -3.086  -3.011  0.00  0.00    -0.269 OA
ATOM     14  H   UNL     1      -3.495  -5.773  -1.259  0.00  0.00    +0.155 HD
BRANCH  12  15
ATOM     15  C   UNL     1      -4.694  -4.952  -3.477  0.00  0.00    +0.074 A 
ATOM     16  C   UNL     1      -5.375  -4.553  -4.616  0.00  0.00    +0.021 A 
ATOM     17  C   UNL     1      -6.256  -5.451  -5.164  0.00  0.00    +0.008 A 
ATOM     18  C   UNL     1      -6.417  -6.666  -4.577  0.00  0.00    +0.046 A 
ATOM     19  S   UNL     1      -5.328  -6.601  -3.229  0.00  0.00    -0.092 S 
ENDBRANCH  12  15
ENDBRANCH   9  11
ENDBRANCH   3   5
BRANCH   1  20
ATOM     20  C   UNL     1      -0.059   1.515   0.046  0.00  0.00    +0.162 C 
BRANCH  20  21
ATOM     21  N   UNL     1       1.312   2.031   0.037  0.00  0.00    -0.303 N 
ATOM     22  C   UNL     1       1.577   3.251   0.544  0.00  0.00    +0.220 C 
ATOM     23  O   UNL     1       0.680   3.922   1.010  0.00  0.00    -0.275 OA
ATOM     24  H   UNL     1       2.125   1.422  -0.385  0.00  0.00    +0.149 HD
BRANCH  22  25
ATOM     25  C   UNL     1       2.987   3.781   0.535  0.00  0.00    +0.048 C 
ATOM     26  C   UNL     1       3.491   3.864  -0.908  0.00  0.00    +0.019 C 
ATOM     27  C   UNL     1       4.923   4.402  -0.918  0.00  0.00    -0.009 C 
ATOM     28  C   UNL     1       4.948   5.796  -0.288  0.00  0.00    +0.007 C 
ATOM     29  C   UNL     1       4.445   5.714   1.154  0.00  0.00    -0.009 C 
ATOM     30  C   UNL     1       3.013   5.175   1.164  0.00  0.00    +0.019 C 
ATOM     31  C   UNL     1       5.348   4.775   1.957  0.00  0.00    +0.007 C 
ATOM     32  C   UNL     1       5.323   3.381   1.327  0.00  0.00    -0.009 C 
ATOM     33  C   UNL     1       5.827   3.464  -0.115  0.00  0.00    +0.007 C 
ATOM     34  C   UNL     1       3.891   2.843   1.337  0.00  0.00    +0.019 C 
ENDBRANCH  22  25
ENDBRANCH  20  21
BRANCH  20  36
ATOM     35  C   UNL     1      -0.836   3.559  -1.164  0.00  0.00    +0.009 C 
ATOM     36  C   UNL     1      -0.806   2.029  -1.186  0.00  0.00    +0.012 C 
ATOM     37  C   UNL     1      -0.091   1.552  -2.452  0.00  0.00    +0.009 C 
ENDBRANCH  20  36
ENDBRANCH   1  20
TORSDOF 7
