REMARK  Name = ZINC39969868
REMARK  1 active torsions:
REMARK  status: ('A' for Active; 'I' for Inactive)
REMARK    1  A    between atoms: C_3  and  C_8
REMARK                            x       y       z     vdW  Elec       q    Type
REMARK                         _______ _______ _______ _____ _____    ______ ____
ROOT
ATOM      1  C   UNL     1       3.672   2.184  -0.021  0.00  0.00    +0.047 C 
ATOM      2  C   UNL     1       4.446   1.907   1.271  0.00  0.00    +0.105 C 
ATOM      3  C   UNL     1       5.012   0.518   1.271  0.00  0.00    +0.219 C 
ATOM      4  O   UNL     1       5.325   0.028   2.334  0.00  0.00    -0.275 OA
ATOM      5  N   UNL     1       5.190  -0.211   0.161  0.00  0.00    -0.273 N 
ATOM      6  C   UNL     1       4.784   0.255  -1.057  0.00  0.00    +0.117 C 
ATOM      7  N   UNL     1       4.612  -0.560  -2.058  0.00  0.00    -0.205 NA
ATOM      8  C   UNL     1       4.107  -0.155  -3.230  0.00  0.00    +0.206 C 
ATOM      9  N   UNL     1       3.709   1.091  -3.433  0.00  0.00    -0.147 NA
ATOM     10  C   UNL     1       3.860   2.030  -2.509  0.00  0.00    +0.250 C 
ATOM     11  O   UNL     1       3.444   3.152  -2.724  0.00  0.00    -0.273 OA
ATOM     12  C   UNL     1       4.533   1.735  -1.205  0.00  0.00    +0.148 C 
ATOM     13  N   UNL     1       3.997  -1.059  -4.250  0.00  0.00    -0.329 N 
ATOM     14  H   UNL     1       5.613  -1.082   0.223  0.00  0.00    +0.156 HD
ATOM     15  H   UNL     1       4.284  -1.976  -4.119  0.00  0.00    +0.145 HD
ATOM     16  H   UNL     1       3.633  -0.783  -5.106  0.00  0.00    +0.145 HD
ENDROOT
BRANCH   1  19
ATOM     17  C   UNL     1       1.192  -0.644   0.308  0.00  0.00    +0.002 A 
ATOM     18  C   UNL     1       2.378   0.066   0.301  0.00  0.00    +0.004 A 
ATOM     19  C   UNL     1       2.378   1.412  -0.013  0.00  0.00    -0.041 A 
ATOM     20  C   UNL     1       1.190   2.050  -0.319  0.00  0.00    +0.024 A 
ATOM     21  C   UNL     1       0.002   1.341  -0.311  0.00  0.00    +0.041 A 
ATOM     22  C   UNL     1       0.004  -0.007   0.003  0.00  0.00    +0.020 A 
ATOM     23 CL   UNL     1      -1.489   2.142  -0.694  0.00  0.00    -0.084 Cl
ENDBRANCH   1  19
TORSDOF 1
