REMARK  Name = ZINC21991763
REMARK  15 active torsions:
REMARK  status: ('A' for Active; 'I' for Inactive)
REMARK    1  A    between atoms: C_1  and  C_2
REMARK    2  A    between atoms: C_2  and  C_3
REMARK    3  A    between atoms: C_2  and  C_4
REMARK    4  A    between atoms: C_2  and  C_35
REMARK    5  A    between atoms: C_7  and  C_10
REMARK    6  A    between atoms: C_10  and  C_12
REMARK    7  A    between atoms: C_12  and  C_13
REMARK    8  A    between atoms: C_13  and  C_14
REMARK    9  A    between atoms: C_14  and  N_15
REMARK   10  A    between atoms: C_18  and  C_21
REMARK   11  A    between atoms: C_21  and  C_22
REMARK   12  A    between atoms: C_21  and  C_28
REMARK   13  A    between atoms: C_21  and  O_34
REMARK   14  A    between atoms: C_35  and  O_37
REMARK   15  A    between atoms: O_37  and  C_38
REMARK                            x       y       z     vdW  Elec       q    Type
REMARK                         _______ _______ _______ _____ _____    ______ ____
ROOT
ATOM      1  N   UNL     1       2.174   0.063   3.683  0.00  0.00    +0.380 N 
ATOM      2  C   UNL     1       2.894  -0.439   2.505  0.00  0.00    -0.078 C 
ATOM      3  C   UNL     1       2.178   0.021   1.234  0.00  0.00    -0.012 C 
ATOM      4  C   UNL     1       0.742  -0.511   1.242  0.00  0.00    +0.026 C 
ATOM      5  C   UNL     1       0.028  -0.015   2.502  0.00  0.00    -0.012 C 
ATOM      6  C   UNL     1       0.808  -0.472   3.737  0.00  0.00    -0.078 C 
ATOM      7  H   UNL     1       2.102   1.157   3.591  0.00  0.00    -0.082 HD
ENDROOT
BRANCH   1   8
ATOM      8  C   UNL     1       2.908  -0.242   4.918  0.00  0.00    -0.078 C 
BRANCH   8   9
ATOM      9  C   UNL     1       2.023   0.067   6.127  0.00  0.00    -0.011 C 
BRANCH   9  10
ATOM     10  C   UNL     1       2.787  -0.250   7.414  0.00  0.00    +0.078 C 
BRANCH  10  11
ATOM     11  C   UNL     1       1.915   0.054   8.604  0.00  0.00    +0.163 C 
ATOM     12  O   UNL     1       0.793   0.482   8.440  0.00  0.00    -0.292 OA
BRANCH  11  16
ATOM     13  C   UNL     1       3.387  -0.587  12.531  0.00  0.00    -0.031 A 
ATOM     14  C   UNL     1       2.105  -0.099  12.347  0.00  0.00    +0.005 A 
ATOM     15  C   UNL     1       1.619   0.113  11.074  0.00  0.00    +0.011 A 
ATOM     16  C   UNL     1       2.426  -0.168   9.966  0.00  0.00    +0.017 A 
ATOM     17  C   UNL     1       3.718  -0.667  10.160  0.00  0.00    +0.011 A 
ATOM     18  C   UNL     1       4.191  -0.867  11.440  0.00  0.00    +0.005 A 
BRANCH  13  20
ATOM     19  C   UNL     1       5.340  -1.353  13.852  0.00  0.00    +0.027 C 
ATOM     20  C   UNL     1       3.910  -0.814  13.925  0.00  0.00    +0.087 C 
ATOM     21  C   UNL     1       3.902   0.509  14.695  0.00  0.00    +0.027 C 
BRANCH  20  22
ATOM     22  C   UNL     1       3.033  -1.813  14.635  0.00  0.00    +0.317 C 
ATOM     23  O   UNL     1       2.080  -2.291  14.066  0.00  0.00    -0.250 OA
BRANCH  22  24
ATOM     24  O   UNL     1       3.309  -2.171  15.899  0.00  0.00    -0.467 OA
ATOM     25  C   UNL     1       2.421  -3.138  16.519  0.00  0.00    +0.280 C 
ENDBRANCH  22  24
ENDBRANCH  20  22
ENDBRANCH  13  20
ENDBRANCH  11  16
ENDBRANCH  10  11
ENDBRANCH   9  10
ENDBRANCH   8   9
ENDBRANCH   1   8
BRANCH   4  26
ATOM     26  C   UNL     1       0.002  -0.004   0.002  0.00  0.00    +0.119 C 
BRANCH  26  27
ATOM     27  C   UNL     1      -1.412  -0.526   0.013  0.00  0.00    -0.011 A 
ATOM     28  C   UNL     1      -1.695  -1.743   0.603  0.00  0.00    +0.007 A 
ATOM     29  C   UNL     1      -2.992  -2.220   0.616  0.00  0.00    +0.000 A 
ATOM     30  C   UNL     1      -4.005  -1.483   0.032  0.00  0.00    +0.000 A 
ATOM     31  C   UNL     1      -3.721  -0.268  -0.562  0.00  0.00    +0.000 A 
ATOM     32  C   UNL     1      -2.425   0.211  -0.572  0.00  0.00    +0.007 A 
ENDBRANCH  26  27
BRANCH  26  33
ATOM     33  C   UNL     1       0.707  -0.490  -1.238  0.00  0.00    -0.011 A 
ATOM     34  C   UNL     1       1.400  -1.686  -1.215  0.00  0.00    +0.007 A 
ATOM     35  C   UNL     1       2.044  -2.134  -2.354  0.00  0.00    +0.000 A 
ATOM     36  C   UNL     1       2.002  -1.381  -3.512  0.00  0.00    +0.000 A 
ATOM     37  C   UNL     1       1.313  -0.183  -3.534  0.00  0.00    +0.000 A 
ATOM     38  C   UNL     1       0.666   0.263  -2.396  0.00  0.00    +0.007 A 
ENDBRANCH  26  33
BRANCH  26  39
ATOM     39  O   UNL     1      -0.017   1.425   0.010  0.00  0.00    -0.379 OA
ATOM     40  H   UNL     1      -0.509   1.973  -0.807  0.00  0.00    +0.211 HD
ENDBRANCH  26  39
ENDBRANCH   4  26
TORSDOF 12
