REMARK  Name = ZINC35174038
REMARK  11 active torsions:
REMARK  status: ('A' for Active; 'I' for Inactive)
REMARK    1  A    between atoms: C_1  and  C_2
REMARK    2  A    between atoms: C_5  and  S_8
REMARK    3  A    between atoms: S_8  and  O_11
REMARK    4  A    between atoms: O_11  and  C_12
REMARK    5  A    between atoms: C_16  and  C_18
REMARK    6  A    between atoms: C_19  and  N_28
REMARK    7  A    between atoms: C_23  and  C_27
REMARK    8  A    between atoms: N_28  and  C_29
REMARK    9  A    between atoms: C_29  and  C_30
REMARK   10  A    between atoms: C_29  and  C_31
REMARK   11  A    between atoms: C_29  and  C_32
REMARK                            x       y       z     vdW  Elec       q    Type
REMARK                         _______ _______ _______ _____ _____    ______ ____
ROOT
ATOM      1  C   UNL     1       0.492  -7.297   2.429  0.00  0.00    +0.157 A 
ATOM      2  C   UNL     1       0.614  -5.918   2.539  0.00  0.00    +0.048 A 
ATOM      3  C   UNL     1       1.400  -5.367   3.534  0.00  0.00    +0.004 A 
ATOM      4  C   UNL     1       2.067  -6.184   4.424  0.00  0.00    +0.010 A 
ATOM      5  C   UNL     1       1.950  -7.569   4.321  0.00  0.00    +0.005 A 
ATOM      6  C   UNL     1       1.154  -8.125   3.321  0.00  0.00    +0.058 A 
ENDROOT
BRANCH   5   7
ATOM      7  C   UNL     1       2.667  -8.449   5.274  0.00  0.00    +0.087 A 
ATOM      8  C   UNL     1       3.978  -8.308   5.679  0.00  0.00    +0.129 A 
ATOM      9  N   UNL     1       4.232  -9.324   6.557  0.00  0.00    -0.289 N 
ATOM     10  C   UNL     1       5.352  -9.674   7.263  0.00  0.00    +0.094 A 
ATOM     11  C   UNL     1       5.341 -10.746   8.080  0.00  0.00    +0.021 A 
ATOM     12  C   UNL     1       4.176 -11.522   8.220  0.00  0.00    -0.046 A 
ATOM     13  C   UNL     1       3.055 -11.188   7.527  0.00  0.00    +0.048 A 
ATOM     14  C   UNL     1       3.077 -10.064   6.674  0.00  0.00    +0.117 A 
ATOM     15  N   UNL     1       2.150  -9.521   5.902  0.00  0.00    -0.338 N 
ATOM     16  C   UNL     1       4.170 -12.720   9.134  0.00  0.00    +0.044 C 
ATOM     17  H   UNL     1       1.241  -9.846   5.803  0.00  0.00    +0.167 HD
BRANCH   8  18
ATOM     18  N   UNL     1       4.872  -7.320   5.269  0.00  0.00    -0.324 N 
ATOM     19  H   UNL     1       4.611  -6.681   4.588  0.00  0.00    +0.148 HD
BRANCH  18  20
ATOM     20  C   UNL     1       6.207  -7.246   5.868  0.00  0.00    +0.025 C 
ATOM     21  C   UNL     1       6.999  -8.504   5.506  0.00  0.00    +0.031 C 
ATOM     22  C   UNL     1       6.938  -6.012   5.335  0.00  0.00    +0.031 C 
ATOM     23  C   UNL     1       6.079  -7.145   7.389  0.00  0.00    +0.031 C 
ENDBRANCH  18  20
ENDBRANCH   8  18
ENDBRANCH   5   7
BRANCH   1  24
ATOM     24  O   UNL     1      -0.281  -7.835   1.449  0.00  0.00    -0.342 OA
BRANCH  24  25
ATOM     25  S   UNL     1      -1.734  -8.044   1.853  0.00  0.00    +0.151 S 
ATOM     26  O   UNL     1      -1.721  -8.490   3.202  0.00  0.00    -0.131 OA
ATOM     27  O   UNL     1      -2.341  -8.793   0.808  0.00  0.00    -0.131 OA
BRANCH  25  32
ATOM     28  C   UNL     1      -4.386  -2.625   1.856  0.00  0.00    +0.044 C 
ATOM     29  C   UNL     1      -3.724  -3.978   1.855  0.00  0.00    -0.050 A 
ATOM     30  C   UNL     1      -3.717  -4.744   0.704  0.00  0.00    +0.005 A 
ATOM     31  C   UNL     1      -3.110  -5.985   0.703  0.00  0.00    +0.031 A 
ATOM     32  C   UNL     1      -2.508  -6.461   1.853  0.00  0.00    +0.128 A 
ATOM     33  C   UNL     1      -2.513  -5.695   3.004  0.00  0.00    +0.031 A 
ATOM     34  C   UNL     1      -3.118  -4.452   3.003  0.00  0.00    +0.005 A 
ENDBRANCH  25  32
ENDBRANCH  24  25
ENDBRANCH   1  24
TORSDOF 6
