REMARK  Name = ZINC32529056
REMARK  9 active torsions:
REMARK  status: ('A' for Active; 'I' for Inactive)
REMARK    1  A    between atoms: C_1  and  C_2
REMARK    2  A    between atoms: C_2  and  C_3
REMARK    3  A    between atoms: C_3  and  C_5
REMARK    4  A    between atoms: C_3  and  S_22
REMARK    5  A    between atoms: C_10  and  C_13
REMARK    6  A    between atoms: C_17  and  N_19
REMARK    7  A    between atoms: S_22  and  C_23
REMARK    8  A    between atoms: C_25  and  C_34
REMARK    9  A    between atoms: C_30  and  C_33
REMARK                            x       y       z     vdW  Elec       q    Type
REMARK                         _______ _______ _______ _____ _____    ______ ____
ROOT
ATOM      1  C   UNL     1       1.789   9.649  -0.143  0.00  0.00    +0.232 C 
ATOM      2  O   UNL     1       0.728  10.224  -0.262  0.00  0.00    -0.274 OA
ATOM      3  N   UNL     1       1.833   8.302  -0.177  0.00  0.00    -0.264 N 
ATOM      4  C   UNL     1       0.662   7.573  -0.347  0.00  0.00    +0.165 A 
ATOM      5  N   UNL     1       0.494   6.265  -0.402  0.00  0.00    -0.225 NA
ATOM      6  C   UNL     1      -0.707   5.733  -0.576  0.00  0.00    +0.080 A 
ATOM      7  C   UNL     1      -1.794   6.554  -0.691  0.00  0.00    +0.076 A 
ATOM      8  S   UNL     1      -1.015   8.157  -0.544  0.00  0.00    -0.060 S 
ATOM      9  H   UNL     1       2.795   7.780  -0.069  0.00  0.00    +0.157 HD
ENDROOT
BRANCH   6  10
ATOM     10  C   UNL     1      -0.871   4.260  -0.640  0.00  0.00    +0.003 A 
ATOM     11  C   UNL     1      -2.137   3.705  -0.817  0.00  0.00    +0.010 A 
ATOM     12  C   UNL     1      -2.283   2.334  -0.880  0.00  0.00    +0.003 A 
ATOM     13  C   UNL     1      -1.178   1.511  -0.758  0.00  0.00    +0.033 A 
ATOM     14  C   UNL     1       0.081   2.057  -0.583  0.00  0.00    +0.127 A 
ATOM     15  C   UNL     1       0.240   3.427  -0.523  0.00  0.00    +0.042 A 
BRANCH  14  16
ATOM     16  N   UNL     1       1.260   1.171  -0.459  0.00  0.00    +0.056 N 
ATOM     17  O   UNL     1       1.121  -0.038  -0.511  0.00  0.00    -0.126 OA
ATOM     18  O   UNL     1       2.369   1.650  -0.304  0.00  0.00    -0.126 OA
ENDBRANCH  14  16
ENDBRANCH   6  10
BRANCH   1  19
ATOM     19  C   UNL     1       3.059  10.439   0.042  0.00  0.00    +0.139 C 
BRANCH  19  21
ATOM     20  C   UNL     1       5.095  11.315  -1.112  0.00  0.00    +0.005 C 
ATOM     21  C   UNL     1       3.736  10.641  -1.315  0.00  0.00    +0.020 C 
ENDBRANCH  19  21
BRANCH  19  22
ATOM     22  S   UNL     1       2.666  12.051   0.766  0.00  0.00    -0.093 S 
BRANCH  22  23
ATOM     23  C   UNL     1       2.157  11.547   2.376  0.00  0.00    +0.099 A 
ATOM     24  C   UNL     1       1.613  12.499   3.252  0.00  0.00    +0.038 A 
ATOM     25  C   UNL     1       1.215  12.124   4.499  0.00  0.00    -0.039 A 
ATOM     26  C   UNL     1       1.368  10.772   4.871  0.00  0.00    +0.004 A 
ATOM     27  C   UNL     1       0.979  10.318   6.140  0.00  0.00    +0.010 A 
ATOM     28  C   UNL     1       1.141   9.005   6.465  0.00  0.00    +0.001 A 
ATOM     29  C   UNL     1       1.688   8.105   5.553  0.00  0.00    +0.005 A 
ATOM     30  C   UNL     1       2.076   8.512   4.313  0.00  0.00    -0.024 A 
ATOM     31  C   UNL     1       1.924   9.859   3.942  0.00  0.00    +0.075 A 
ATOM     32  N   UNL     1       2.292  10.284   2.728  0.00  0.00    -0.240 NA
ATOM     33  C   UNL     1       2.665   7.522   3.342  0.00  0.00    +0.046 C 
ATOM     34  C   UNL     1       0.628  13.127   5.457  0.00  0.00    +0.044 C 
ENDBRANCH  22  23
ENDBRANCH  19  22
ENDBRANCH   1  19
TORSDOF 6
