REMARK  Name = ZINC66752007
REMARK  4 active torsions:
REMARK  status: ('A' for Active; 'I' for Inactive)
REMARK    1  A    between atoms: C_1  and  C_2
REMARK    2  A    between atoms: C_5  and  N_8
REMARK    3  A    between atoms: C_10  and  C_15
REMARK    4  A    between atoms: N_17  and  N_18
REMARK                            x       y       z     vdW  Elec       q    Type
REMARK                         _______ _______ _______ _____ _____    ______ ____
ROOT
ATOM      1  C   UNL     1      -3.499  -2.439   5.384  0.00  0.00    +0.235 C 
ATOM      2  O   UNL     1      -4.235  -3.284   4.922  0.00  0.00    -0.274 OA
ATOM      3  N   UNL     1      -3.842  -1.791   6.515  0.00  0.00    -0.224 N 
ATOM      4  H   UNL     1      -3.253  -1.115   6.885  0.00  0.00    +0.174 HD
ENDROOT
BRANCH   3   5
ATOM      5  N   UNL     1      -5.051  -2.094   7.156  0.00  0.00    -0.147 N 
ATOM      6  C   UNL     1      -6.263  -1.708   6.718  0.00  0.00    +0.271 C 
ATOM      7  O   UNL     1      -6.479  -1.051   5.719  0.00  0.00    -0.268 OA
ATOM      8  C   UNL     1      -7.287  -2.216   7.654  0.00  0.00    +0.051 A 
ATOM      9  C   UNL     1      -8.669  -2.134   7.715  0.00  0.00    +0.014 A 
ATOM     10  C   UNL     1      -9.348  -2.741   8.760  0.00  0.00    +0.001 A 
ATOM     11  C   UNL     1      -8.656  -3.428   9.740  0.00  0.00    +0.001 A 
ATOM     12  C   UNL     1      -7.274  -3.519   9.692  0.00  0.00    +0.014 A 
ATOM     13  C   UNL     1      -6.581  -2.917   8.654  0.00  0.00    +0.051 A 
ATOM     14  C   UNL     1      -5.153  -2.814   8.288  0.00  0.00    +0.271 C 
ATOM     15  O   UNL     1      -4.226  -3.297   8.906  0.00  0.00    -0.268 OA
ENDBRANCH   3   5
BRANCH   1  18
ATOM     16  N   UNL     1      -1.358  -2.098   2.449  0.00  0.00    -0.298 N 
ATOM     17  C   UNL     1      -2.015  -2.975   3.426  0.00  0.00    +0.121 C 
ATOM     18  C   UNL     1      -2.199  -2.114   4.695  0.00  0.00    +0.102 C 
ATOM     19  C   UNL     1      -2.227  -0.684   4.105  0.00  0.00    +0.110 C 
ATOM     20  C   UNL     1      -1.462  -0.806   2.806  0.00  0.00    +0.217 C 
ATOM     21  O   UNL     1      -1.009   0.127   2.176  0.00  0.00    -0.276 OA
BRANCH  16  26
ATOM     22  C   UNL     1      -4.424  -2.512  -0.913  0.00  0.00    +0.007 C 
ATOM     23  C   UNL     1      -2.935  -2.696  -0.614  0.00  0.00    -0.014 C 
ATOM     24  C   UNL     1      -2.763  -3.723   0.507  0.00  0.00    +0.005 C 
ATOM     25  C   UNL     1      -1.274  -3.907   0.806  0.00  0.00    +0.023 C 
ATOM     26  C   UNL     1      -0.673  -2.570   1.244  0.00  0.00    +0.076 C 
ATOM     27  C   UNL     1      -0.844  -1.543   0.124  0.00  0.00    +0.023 C 
ATOM     28  C   UNL     1      -2.333  -1.359  -0.176  0.00  0.00    +0.005 C 
ENDBRANCH  16  26
ENDBRANCH   1  18
TORSDOF 3
