REMARK  Name = ZINC35884999
REMARK  11 active torsions:
REMARK  status: ('A' for Active; 'I' for Inactive)
REMARK    1  A    between atoms: C_1  and  C_2
REMARK    2  A    between atoms: C_5  and  C_8
REMARK    3  A    between atoms: N_11  and  C_30
REMARK    4  A    between atoms: C_13  and  C_15
REMARK    5  A    between atoms: C_15  and  N_16
REMARK    6  A    between atoms: N_16  and  C_17
REMARK    7  A    between atoms: C_17  and  C_18
REMARK    8  A    between atoms: C_25  and  C_27
REMARK    9  A    between atoms: C_27  and  C_28
REMARK   10  A    between atoms: C_27  and  C_29
REMARK   11  A    between atoms: C_30  and  C_31
REMARK                            x       y       z     vdW  Elec       q    Type
REMARK                         _______ _______ _______ _____ _____    ______ ____
ROOT
ATOM      1  C   UNL     1       0.259  -3.168   0.322  0.00  0.00    +0.005 C 
ATOM      2  C   UNL     1       1.655  -3.791   0.065  0.00  0.00    -0.070 C 
ATOM      3  N   UNL     1       1.336  -5.067  -0.625  0.00  0.00    +0.383 N 
ATOM      4  C   UNL     1       0.132  -5.601   0.050  0.00  0.00    -0.073 C 
ATOM      5  C   UNL     1      -0.615  -4.397   0.662  0.00  0.00    -0.005 C 
ATOM      6  H   UNL     1       1.141  -4.897  -1.600  0.00  0.00    -0.081 HD
ENDROOT
BRANCH   1  11
ATOM      7  C   UNL     1       0.444   0.504   4.780  0.00  0.00    +0.044 C 
ATOM      8  C   UNL     1       0.396  -0.454   3.617  0.00  0.00    -0.050 A 
ATOM      9  C   UNL     1      -0.058  -0.022   2.385  0.00  0.00    +0.003 A 
ATOM     10  C   UNL     1      -0.102  -0.901   1.318  0.00  0.00    +0.004 A 
ATOM     11  C   UNL     1       0.308  -2.211   1.484  0.00  0.00    -0.046 A 
ATOM     12  C   UNL     1       0.763  -2.642   2.716  0.00  0.00    +0.004 A 
ATOM     13  C   UNL     1       0.811  -1.762   3.781  0.00  0.00    +0.003 A 
ENDBRANCH   1  11
BRANCH   5  14
ATOM     14  C   UNL     1      -2.002  -4.253   0.032  0.00  0.00    +0.110 C 
BRANCH  14  15
ATOM     15  N   UNL     1      -2.838  -5.389   0.427  0.00  0.00    -0.297 N 
ATOM     16  C   UNL     1      -2.938  -6.464  -0.380  0.00  0.00    +0.218 C 
ATOM     17  O   UNL     1      -2.395  -6.461  -1.464  0.00  0.00    -0.275 OA
BRANCH  16  18
ATOM     18  C   UNL     1      -3.725  -7.670   0.066  0.00  0.00    +0.069 C 
ATOM     19  C   UNL     1      -5.150  -7.580  -0.483  0.00  0.00    +0.017 C 
ATOM     20  C   UNL     1      -3.054  -8.940  -0.461  0.00  0.00    +0.017 C 
ENDBRANCH  16  18
BRANCH  15  21
ATOM     21  C   UNL     1      -3.566  -5.356   1.698  0.00  0.00    +0.142 C 
BRANCH  21  22
ATOM     22  C   UNL     1      -4.980  -4.894   1.456  0.00  0.00    -0.030 A 
ATOM     23  C   UNL     1      -5.215  -3.743   0.728  0.00  0.00    +0.008 A 
ATOM     24  C   UNL     1      -6.511  -3.318   0.505  0.00  0.00    +0.038 A 
ATOM     25  C   UNL     1      -7.574  -4.047   1.011  0.00  0.00    +0.123 A 
ATOM     26  C   UNL     1      -7.338  -5.200   1.739  0.00  0.00    +0.038 A 
ATOM     27  C   UNL     1      -6.041  -5.626   1.957  0.00  0.00    +0.008 A 
ATOM     28  F   UNL     1      -8.842  -3.633   0.794  0.00  0.00    -0.205 F 
ENDBRANCH  21  22
ENDBRANCH  15  21
ENDBRANCH  14  15
ENDBRANCH   5  14
BRANCH   3  29
ATOM     29  C   UNL     1       2.453  -6.011  -0.487  0.00  0.00    -0.043 C 
BRANCH  29  30
ATOM     30  C   UNL     1       3.650  -5.485  -1.238  0.00  0.00    -0.064 A 
ATOM     31  C   UNL     1       3.831  -5.815  -2.568  0.00  0.00    +0.002 A 
ATOM     32  C   UNL     1       4.928  -5.332  -3.256  0.00  0.00    +0.000 A 
ATOM     33  C   UNL     1       5.844  -4.520  -2.615  0.00  0.00    +0.000 A 
ATOM     34  C   UNL     1       5.663  -4.189  -1.285  0.00  0.00    +0.000 A 
ATOM     35  C   UNL     1       4.563  -4.668  -0.597  0.00  0.00    +0.002 A 
ENDBRANCH  29  30
ENDBRANCH   3  29
TORSDOF 8
