REMARK  Name = ZINC63514157
REMARK  10 active torsions:
REMARK  status: ('A' for Active; 'I' for Inactive)
REMARK    1  A    between atoms: C_1  and  C_2
REMARK    2  A    between atoms: C_4  and  C_28
REMARK    3  A    between atoms: C_5  and  S_10
REMARK    4  A    between atoms: C_7  and  O_8
REMARK    5  A    between atoms: O_8  and  C_9
REMARK    6  A    between atoms: S_10  and  N_13
REMARK    7  A    between atoms: N_13  and  C_14
REMARK    8  A    between atoms: C_14  and  C_15
REMARK    9  A    between atoms: C_15  and  C_16
REMARK   10  A    between atoms: C_24  and  C_26
REMARK                            x       y       z     vdW  Elec       q    Type
REMARK                         _______ _______ _______ _____ _____    ______ ____
ROOT
ATOM      1  N   UNL     1      -0.812  -5.141  -0.053  0.00  0.00    -0.190 NA
ATOM      2  H   UNL     1      -1.514  -5.517   0.501  0.00  0.00    +0.148 HD
ENDROOT
BRANCH   1   3
ATOM      3  S   UNL     1       0.647  -4.739   0.618  0.00  0.00    +0.059 S 
ATOM      4  O   UNL     1       0.560  -5.057   2.000  0.00  0.00    -0.153 OA
ATOM      5  O   UNL     1       0.961  -3.432   0.155  0.00  0.00    -0.153 OA
BRANCH   3  10
ATOM      6  C   UNL     1       4.776  -8.455  -1.747  0.00  0.00    +0.047 C 
ATOM      7  C   UNL     1       3.746  -7.526  -1.157  0.00  0.00    -0.008 A 
ATOM      8  C   UNL     1       2.736  -8.030  -0.361  0.00  0.00    +0.012 A 
ATOM      9  C   UNL     1       1.791  -7.179   0.180  0.00  0.00    -0.024 A 
ATOM     10  C   UNL     1       1.854  -5.821  -0.073  0.00  0.00    +0.112 A 
ATOM     11  C   UNL     1       2.862  -5.312  -0.868  0.00  0.00    +0.074 A 
ATOM     12  C   UNL     1       3.815  -6.164  -1.409  0.00  0.00    +0.125 A 
ATOM     13  C   UNL     1       0.689  -7.731   1.048  0.00  0.00    +0.046 C 
BRANCH  12  14
ATOM     14  O   UNL     1       4.812  -5.665  -2.187  0.00  0.00    -0.495 OA
ATOM     15  C   UNL     1       4.821  -4.252  -2.403  0.00  0.00    +0.277 C 
ENDBRANCH  12  14
ENDBRANCH   3  10
ENDBRANCH   1   3
BRANCH   1  16
ATOM     16  C   UNL     1      -1.044  -4.928  -1.484  0.00  0.00    +0.110 C 
BRANCH  16  17
ATOM     17  C   UNL     1      -2.285  -5.709  -1.921  0.00  0.00    +0.050 C 
BRANCH  17  18
ATOM     18  C   UNL     1      -2.518  -5.499  -3.395  0.00  0.00    -0.037 C 
ATOM     19  C   UNL     1      -1.764  -4.758  -4.240  0.00  0.00    +0.000 A 
ATOM     20  C   UNL     1      -0.550  -3.957  -4.046  0.00  0.00    +0.025 A 
ATOM     21  C   UNL     1      -0.012  -3.312  -5.107  0.00  0.00    +0.019 A 
ATOM     22  C   UNL     1      -0.586  -3.390  -6.385  0.00  0.00    +0.017 A 
ATOM     23  C   UNL     1      -1.701  -4.106  -6.640  0.00  0.00    +0.027 A 
ATOM     24  C   UNL     1      -2.349  -4.824  -5.598  0.00  0.00    +0.043 A 
ATOM     25  N   UNL     1      -3.423  -5.577  -5.593  0.00  0.00    -0.378 N 
ATOM     26  C   UNL     1      -3.637  -6.078  -4.231  0.00  0.00    +0.103 C 
ATOM     27  C   UNL     1      -3.572  -7.607  -4.212  0.00  0.00    +0.035 C 
ATOM     28 BR   UNL     1       1.552  -2.279  -4.862  0.00  0.00    -0.050 Br
ATOM     29  H   UNL     1      -3.980  -5.772  -6.362  0.00  0.00    +0.160 HD
ENDBRANCH  17  18
ENDBRANCH  16  17
ENDBRANCH   1  16
TORSDOF 6
