REMARK  Name = ZINC08408099
REMARK  11 active torsions:
REMARK  status: ('A' for Active; 'I' for Inactive)
REMARK    1  A    between atoms: C_1  and  C_2
REMARK    2  A    between atoms: C_2  and  C_3
REMARK    3  A    between atoms: C_3  and  C_4
REMARK    4  A    between atoms: C_4  and  N_5
REMARK    5  A    between atoms: C_7  and  C_11
REMARK    6  A    between atoms: C_8  and  C_10
REMARK    7  A    between atoms: N_12  and  N_13
REMARK    8  A    between atoms: C_16  and  C_20
REMARK    9  A    between atoms: C_16  and  C_21
REMARK   10  A    between atoms: C_24  and  O_27
REMARK   11  A    between atoms: O_27  and  C_28
REMARK                            x       y       z     vdW  Elec       q    Type
REMARK                         _______ _______ _______ _____ _____    ______ ____
ROOT
ATOM      1  N   UNL     1      -6.785  -4.170   3.645  0.00  0.00    -0.109 N 
ATOM      2  C   UNL     1      -6.756  -4.168   4.993  0.00  0.00    +0.271 C 
ATOM      3  O   UNL     1      -5.867  -3.752   5.705  0.00  0.00    -0.271 OA
ATOM      4  C   UNL     1      -8.066  -4.791   5.432  0.00  0.00    +0.137 C 
ATOM      5  N   UNL     1      -8.744  -5.102   4.162  0.00  0.00    -0.280 N 
ATOM      6  C   UNL     1      -7.921  -4.698   3.177  0.00  0.00    +0.330 C 
ATOM      7  O   UNL     1      -8.180  -4.805   1.994  0.00  0.00    -0.250 OA
ATOM      8  C   UNL     1      -7.811  -6.070   6.233  0.00  0.00    +0.047 C 
ATOM      9  H   UNL     1      -9.616  -5.514   4.056  0.00  0.00    +0.152 HD
ENDROOT
BRANCH   4  10
ATOM     10  C   UNL     1      -8.875  -3.810   6.240  0.00  0.00    -0.015 A 
ATOM     11  C   UNL     1      -8.236  -2.844   6.995  0.00  0.00    +0.010 A 
ATOM     12  C   UNL     1      -8.976  -1.944   7.737  0.00  0.00    +0.046 A 
ATOM     13  C   UNL     1     -10.362  -2.010   7.724  0.00  0.00    +0.120 A 
ATOM     14  C   UNL     1     -11.001  -2.979   6.965  0.00  0.00    +0.046 A 
ATOM     15  C   UNL     1     -10.256  -3.874   6.221  0.00  0.00    +0.010 A 
BRANCH  13  16
ATOM     16  O   UNL     1     -11.092  -1.125   8.453  0.00  0.00    -0.495 OA
ATOM     17  C   UNL     1     -12.514  -1.252   8.392  0.00  0.00    +0.277 C 
ENDBRANCH  13  16
ENDBRANCH   4  10
BRANCH   1  19
ATOM     18  C   UNL     1      -4.642  -3.276   3.371  0.00  0.00    +0.143 C 
ATOM     19  N   UNL     1      -5.755  -3.675   2.835  0.00  0.00    -0.176 NA
BRANCH  18  22
ATOM     20  N   UNL     1      -2.292  -2.397   0.748  0.00  0.00    -0.252 N 
ATOM     21  C   UNL     1      -3.505  -2.840   1.132  0.00  0.00    +0.136 A 
ATOM     22  C   UNL     1      -3.518  -2.860   2.512  0.00  0.00    +0.054 A 
ATOM     23  C   UNL     1      -2.254  -2.406   2.949  0.00  0.00    +0.070 A 
ATOM     24  N   UNL     1      -1.532  -2.139   1.894  0.00  0.00    -0.174 NA
ATOM     25  C   UNL     1      -1.813  -2.261   4.382  0.00  0.00    +0.068 C 
ATOM     26 CL   UNL     1      -4.810  -3.303   0.085  0.00  0.00    -0.062 Cl
BRANCH  20  27
ATOM     27  C   UNL     1      -1.843  -2.220  -0.635  0.00  0.00    +0.145 C 
BRANCH  27  28
ATOM     28  C   UNL     1      -1.201  -3.517  -1.133  0.00  0.00    +0.023 C 
BRANCH  28  30
ATOM     29  C   UNL     1      -0.090  -4.629  -3.075  0.00  0.00    +0.004 C 
ATOM     30  C   UNL     1      -0.732  -3.333  -2.577  0.00  0.00    -0.002 C 
ENDBRANCH  28  30
ENDBRANCH  27  28
ENDBRANCH  20  27
ENDBRANCH  18  22
ENDBRANCH   1  19
TORSDOF 7
