REMARK  Name = ZINC15859346
REMARK  6 active torsions:
REMARK  status: ('A' for Active; 'I' for Inactive)
REMARK    1  A    between atoms: C_1  and  C_2
REMARK    2  A    between atoms: C_7  and  C_9
REMARK    3  A    between atoms: C_7  and  C_16
REMARK    4  A    between atoms: C_7  and  N_57
REMARK    5  A    between atoms: C_17  and  N_25
REMARK    6  A    between atoms: C_26  and  C_28
REMARK                            x       y       z     vdW  Elec       q    Type
REMARK                         _______ _______ _______ _____ _____    ______ ____
ROOT
ATOM      1  C   UNL     1      -2.224  -4.311   0.466  0.00  0.00    +0.118 A 
ATOM      2  C   UNL     1      -2.166  -3.018   0.100  0.00  0.00    +0.082 A 
ATOM      3  C   UNL     1      -3.551  -2.611  -0.180  0.00  0.00    +0.042 A 
ATOM      4  C   UNL     1      -4.151  -1.424  -0.597  0.00  0.00    +0.013 A 
ATOM      5  C   UNL     1      -5.506  -1.374  -0.769  0.00  0.00    +0.001 A 
ATOM      6  C   UNL     1      -6.287  -2.497  -0.531  0.00  0.00    +0.004 A 
ATOM      7  C   UNL     1      -5.710  -3.679  -0.118  0.00  0.00    +0.047 A 
ATOM      8  C   UNL     1      -4.334  -3.751   0.063  0.00  0.00    +0.137 A 
ATOM      9  O   UNL     1      -3.501  -4.738   0.448  0.00  0.00    -0.459 OA
ENDROOT
BRANCH   2  10
ATOM     10  N   UNL     1      -1.014  -2.220   0.000  0.00  0.00    -0.276 N 
ATOM     11  C   UNL     1      -0.363  -2.121  -1.176  0.00  0.00    +0.284 C 
ATOM     12  O   UNL     1      -0.718  -2.793  -2.126  0.00  0.00    -0.266 OA
ATOM     13  H   UNL     1      -0.687  -1.740   0.777  0.00  0.00    +0.155 HD
BRANCH  11  14
ATOM     14  C   UNL     1       0.774  -1.204  -1.310  0.00  0.00    +0.189 A 
ATOM     15  C   UNL     1       1.518  -1.008  -2.438  0.00  0.00    +0.054 A 
ATOM     16  C   UNL     1       2.493  -0.050  -2.116  0.00  0.00    +0.042 A 
ATOM     17  C   UNL     1       2.304   0.291  -0.823  0.00  0.00    +0.196 A 
ATOM     18  O   UNL     1       1.267  -0.406  -0.340  0.00  0.00    -0.458 OA
ENDBRANCH  11  14
ENDBRANCH   2  10
BRANCH   1  19
ATOM     19  C   UNL     1      -1.035  -5.157   0.843  0.00  0.00    +0.032 C 
BRANCH  19  26
ATOM     20  C   UNL     1      -0.663  -9.969  -2.219  0.00  0.00    +0.007 C 
ATOM     21  C   UNL     1      -0.401  -8.574  -1.648  0.00  0.00    -0.018 C 
ATOM     22  C   UNL     1      -0.137  -8.678  -0.143  0.00  0.00    -0.015 C 
ATOM     23  C   UNL     1       0.064  -7.275   0.433  0.00  0.00    -0.077 C 
ATOM     24  C   UNL     1      -1.383  -6.312  -1.256  0.00  0.00    -0.077 C 
ATOM     25  C   UNL     1      -1.627  -7.686  -1.883  0.00  0.00    -0.015 C 
ATOM     26  N   UNL     1      -1.160  -6.479   0.196  0.00  0.00    +0.389 N 
ATOM     27  H   UNL     1      -1.963  -6.975   0.602  0.00  0.00    -0.080 HD
ENDBRANCH  19  26
BRANCH  19  28
ATOM     28  C   UNL     1      -1.009  -5.349   2.338  0.00  0.00    -0.054 A 
ATOM     29  C   UNL     1      -1.831  -6.291   2.928  0.00  0.00    +0.003 A 
ATOM     30  C   UNL     1      -1.804  -6.470   4.298  0.00  0.00    +0.015 A 
ATOM     31  C   UNL     1      -0.962  -5.699   5.080  0.00  0.00    +0.018 A 
ATOM     32  C   UNL     1      -0.144  -4.753   4.490  0.00  0.00    +0.015 A 
ATOM     33  C   UNL     1      -0.168  -4.578   3.119  0.00  0.00    +0.003 A 
ATOM     34 BR   UNL     1      -0.930  -5.939   6.956  0.00  0.00    -0.050 Br
ENDBRANCH  19  28
ENDBRANCH   1  19
TORSDOF 5
