REMARK  Name = ZINC36133183
REMARK  7 active torsions:
REMARK  status: ('A' for Active; 'I' for Inactive)
REMARK    1  A    between atoms: C_1  and  C_2
REMARK    2  A    between atoms: C_2  and  C_3
REMARK    3  A    between atoms: C_7  and  C_23
REMARK    4  A    between atoms: N_10  and  S_11
REMARK    5  A    between atoms: S_11  and  C_14
REMARK    6  A    between atoms: C_16  and  C_22
REMARK    7  A    between atoms: C_17  and  C_19
REMARK                            x       y       z     vdW  Elec       q    Type
REMARK                         _______ _______ _______ _____ _____    ______ ____
ROOT
ATOM      1  S   UNL     1       2.736   1.043  -2.242  0.00  0.00    +0.068 S 
ATOM      2  O   UNL     1       4.133   0.803  -2.346  0.00  0.00    -0.152 OA
ATOM      3  O   UNL     1       1.879   1.058  -3.375  0.00  0.00    -0.152 OA
ENDROOT
BRANCH   1   9
ATOM      4  C   UNL     1       0.718  -0.497  -1.257  0.00  0.00    +0.105 C 
ATOM      5  C   UNL     1       0.644  -2.027  -1.327  0.00  0.00    +0.180 C 
ATOM      6  O   UNL     1       1.422  -2.585  -0.265  0.00  0.00    -0.374 OA
ATOM      7  C   UNL     1       2.816  -2.274  -0.335  0.00  0.00    +0.131 C 
ATOM      8  C   UNL     1       3.001  -0.757  -0.214  0.00  0.00    +0.141 C 
ATOM      9  N   UNL     1       2.135  -0.102  -1.208  0.00  0.00    -0.168 NA
ATOM     10  C   UNL     1       3.553  -2.973   0.810  0.00  0.00    +0.039 C 
BRANCH   4  12
ATOM     11  C   UNL     1      -0.019   1.526   0.010  0.00  0.00    +0.005 C 
ATOM     12  C   UNL     1       0.002  -0.004   0.002  0.00  0.00    +0.019 C 
ENDBRANCH   4  12
ENDBRANCH   1   9
BRANCH   1  13
ATOM     13  C   UNL     1       2.552   2.607  -1.451  0.00  0.00    +0.144 A 
ATOM     14  C   UNL     1       3.436   3.240  -0.638  0.00  0.00    +0.040 A 
ATOM     15  C   UNL     1       3.104   4.465  -0.116  0.00  0.00    -0.027 A 
ATOM     16  C   UNL     1       1.856   4.957  -0.478  0.00  0.00    +0.105 A 
ATOM     17  S   UNL     1       1.244   3.658  -1.536  0.00  0.00    -0.062 S 
ATOM     18  C   UNL     1       4.033   5.227   0.794  0.00  0.00    +0.045 C 
BRANCH  16  19
ATOM     19  C   UNL     1       1.234   6.176  -0.108  0.00  0.00    +0.393 C 
ATOM     20  O   UNL     1       1.814   6.959   0.633  0.00  0.00    -0.240 OA
ATOM     21  O   UNL     1       0.116   6.446  -0.530  0.00  0.00    -0.240 OA
ENDBRANCH  16  19
ENDBRANCH   1  13
TORSDOF 4
