REMARK  Name = ZINC13729589
REMARK  11 active torsions:
REMARK  status: ('A' for Active; 'I' for Inactive)
REMARK    1  A    between atoms: C_1  and  C_2
REMARK    2  A    between atoms: C_2  and  O_3
REMARK    3  A    between atoms: O_3  and  C_4
REMARK    4  A    between atoms: C_6  and  C_22
REMARK    5  A    between atoms: C_9  and  O_10
REMARK    6  A    between atoms: O_10  and  C_11
REMARK    7  A    between atoms: N_15  and  C_16
REMARK    8  A    between atoms: C_22  and  N_69
REMARK    9  A    between atoms: C_23  and  N_69
REMARK   10  A    between atoms: C_27  and  C_34
REMARK   11  A    between atoms: C_30  and  C_33
REMARK                            x       y       z     vdW  Elec       q    Type
REMARK                         _______ _______ _______ _____ _____    ______ ____
ROOT
ATOM      1  C   UNL     1       3.630   4.507   0.200  0.00  0.00    +0.163 A 
ATOM      2  C   UNL     1       5.001   4.684   0.299  0.00  0.00    +0.051 A 
ATOM      3  C   UNL     1       5.843   3.588   0.283  0.00  0.00    -0.061 A 
ATOM      4  C   UNL     1       5.320   2.312   0.172  0.00  0.00    +0.005 A 
ATOM      5  C   UNL     1       3.953   2.128   0.079  0.00  0.00    +0.050 A 
ATOM      6  C   UNL     1       3.104   3.223   0.094  0.00  0.00    +0.173 A 
ENDROOT
BRANCH   1   7
ATOM      7  O   UNL     1       2.801   5.585   0.210  0.00  0.00    -0.489 OA
BRANCH   7   9
ATOM      8  C   UNL     1       2.329   7.953   0.315  0.00  0.00    +0.048 C 
ATOM      9  C   UNL     1       3.412   6.872   0.320  0.00  0.00    +0.226 C 
ENDBRANCH   7   9
ENDBRANCH   1   7
BRANCH   6  10
ATOM     10  O   UNL     1       1.759   3.044   0.002  0.00  0.00    -0.419 OA
BRANCH  10  11
ATOM     11  C   UNL     1       1.301   1.798  -0.267  0.00  0.00    +0.347 A 
ATOM     12  N   UNL     1       2.028   0.747  -0.568  0.00  0.00    -0.070 NA
ATOM     13  N   UNL     1       1.280  -0.278  -0.763  0.00  0.00    -0.019 NA
ATOM     14  N   UNL     1       0.040   0.035  -0.605  0.00  0.00    -0.036 NA
ATOM     15  N   UNL     1       0.005   1.401  -0.274  0.00  0.00    -0.162 N 
BRANCH  15  16
ATOM     16  C   UNL     1      -1.128   2.186  -0.015  0.00  0.00    +0.072 A 
ATOM     17  C   UNL     1      -1.072   3.194   0.938  0.00  0.00    +0.028 A 
ATOM     18  C   UNL     1      -2.188   3.969   1.188  0.00  0.00    +0.002 A 
ATOM     19  C   UNL     1      -3.362   3.734   0.498  0.00  0.00    +0.000 A 
ATOM     20  C   UNL     1      -3.423   2.728  -0.448  0.00  0.00    +0.002 A 
ATOM     21  C   UNL     1      -2.309   1.953  -0.706  0.00  0.00    +0.028 A 
ENDBRANCH  15  16
ENDBRANCH  10  11
ENDBRANCH   6  10
BRANCH   3  22
ATOM     22  C   UNL     1       7.333   3.783   0.385  0.00  0.00    -0.046 C 
BRANCH  22  23
ATOM     23  N   UNL     1       7.896   3.931  -0.970  0.00  0.00    +0.385 N 
ATOM     24  H   UNL     1       7.468   4.745  -1.427  0.00  0.00    -0.085 HD
ATOM     25  H   UNL     1       7.692   3.085  -1.516  0.00  0.00    -0.085 HD
BRANCH  23  26
ATOM     26  C   UNL     1       9.357   4.123  -0.900  0.00  0.00    -0.067 C 
ATOM     27  C   UNL     1      10.004   2.912  -0.226  0.00  0.00    -0.009 C 
ATOM     28  C   UNL     1      11.519   3.112  -0.162  0.00  0.00    -0.011 C 
ATOM     29  C   UNL     1      11.833   4.374   0.645  0.00  0.00    +0.010 C 
ATOM     30  C   UNL     1      11.187   5.585  -0.030  0.00  0.00    -0.033 C 
ATOM     31  C   UNL     1       9.671   5.385  -0.093  0.00  0.00    -0.006 C 
ATOM     32  C   UNL     1      11.741   5.735  -1.448  0.00  0.00    +0.013 C 
ATOM     33  C   UNL     1      11.427   4.474  -2.255  0.00  0.00    -0.033 C 
ATOM     34  C   UNL     1      12.073   3.263  -1.580  0.00  0.00    +0.010 C 
ATOM     35  C   UNL     1       9.911   4.274  -2.318  0.00  0.00    -0.006 C 
ATOM     36  C   UNL     1      11.981   4.624  -3.673  0.00  0.00    +0.011 C 
ATOM     37  C   UNL     1      11.501   6.847   0.777  0.00  0.00    +0.011 C 
ENDBRANCH  23  26
ENDBRANCH  22  23
ENDBRANCH   3  22
TORSDOF 8
