REMARK  Name = ZINC34750057
REMARK  10 active torsions:
REMARK  status: ('A' for Active; 'I' for Inactive)
REMARK    1  A    between atoms: C_1  and  C_2
REMARK    2  A    between atoms: C_2  and  C_3
REMARK    3  A    between atoms: C_2  and  C_4
REMARK    4  A    between atoms: C_4  and  S_5
REMARK    5  A    between atoms: S_5  and  C_6
REMARK    6  A    between atoms: C_17  and  C_19
REMARK    7  A    between atoms: C_17  and  C_20
REMARK    8  A    between atoms: N_24  and  C_27
REMARK    9  A    between atoms: C_27  and  C_28
REMARK   10  A    between atoms: C_28  and  C_30
REMARK                            x       y       z     vdW  Elec       q    Type
REMARK                         _______ _______ _______ _____ _____    ______ ____
ROOT
ATOM      1  C   UNL     1      -2.758  -2.885   0.214  0.00  0.00    +0.191 A 
ATOM      2  N   UNL     1      -3.163  -4.138   0.041  0.00  0.00    -0.206 NA
ATOM      3  C   UNL     1      -4.439  -4.449  -0.113  0.00  0.00    +0.134 A 
ATOM      4  C   UNL     1      -5.416  -3.414  -0.093  0.00  0.00    +0.051 A 
ATOM      5  C   UNL     1      -6.866  -3.519  -0.243  0.00  0.00    -0.020 A 
ATOM      6  C   UNL     1      -7.575  -2.371  -0.185  0.00  0.00    +0.021 A 
ATOM      7  S   UNL     1      -6.372  -1.098   0.069  0.00  0.00    -0.071 S 
ATOM      8  C   UNL     1      -4.914  -2.110   0.096  0.00  0.00    +0.115 A 
ATOM      9  N   UNL     1      -3.624  -1.881   0.247  0.00  0.00    -0.215 NA
ATOM     10  C   UNL     1      -9.061  -2.240  -0.314  0.00  0.00    +0.203 C 
ATOM     11  O   UNL     1      -9.571  -3.482  -0.824  0.00  0.00    -0.368 OA
ATOM     12  C   UNL     1      -9.075  -4.630  -0.130  0.00  0.00    +0.068 C 
ATOM     13  C   UNL     1      -7.594  -4.844  -0.456  0.00  0.00    +0.071 C 
ATOM     14  C   UNL     1      -9.237  -4.420   1.377  0.00  0.00    +0.041 C 
ATOM     15  C   UNL     1      -9.872  -5.864  -0.556  0.00  0.00    +0.041 C 
ATOM     16  N   UNL     1      -4.820  -5.766  -0.292  0.00  0.00    -0.318 N 
ATOM     17  C   UNL     1      -5.021  -6.319  -1.640  0.00  0.00    +0.088 C 
ATOM     18  C   UNL     1      -4.232  -7.628  -1.751  0.00  0.00    -0.059 C 
ATOM     19  N   UNL     1      -4.626  -8.530  -0.661  0.00  0.00    +0.384 N 
ATOM     20  C   UNL     1      -4.246  -7.947   0.632  0.00  0.00    -0.059 C 
ATOM     21  C   UNL     1      -5.030  -6.656   0.861  0.00  0.00    +0.088 C 
ATOM     22  H   UNL     1      -5.625  -8.668  -0.685  0.00  0.00    -0.081 HD
ENDROOT
BRANCH   1  23
ATOM     23  S   UNL     1      -1.039  -2.551   0.412  0.00  0.00    -0.086 S 
BRANCH  23  24
ATOM     24  C   UNL     1      -0.963  -0.751   0.623  0.00  0.00    +0.080 C 
BRANCH  24  26
ATOM     25  C   UNL     1       0.571   1.207   0.860  0.00  0.00    +0.008 C 
ATOM     26  C   UNL     1       0.494  -0.321   0.807  0.00  0.00    -0.007 C 
ATOM     27  C   UNL     1       1.037  -0.904   2.113  0.00  0.00    +0.008 C 
ENDBRANCH  24  26
ENDBRANCH  23  24
ENDBRANCH   1  23
BRANCH  19  28
ATOM     28  C   UNL     1      -3.952  -9.824  -0.831  0.00  0.00    -0.048 C 
BRANCH  28  29
ATOM     29  C   UNL     1      -4.459 -10.495  -2.081  0.00  0.00    -0.096 C 
ATOM     30  C   UNL     1      -3.791 -10.382  -3.202  0.00  0.00    +0.005 C 
ATOM     31  C   UNL     1      -5.736 -11.294  -2.042  0.00  0.00    +0.036 C 
ENDBRANCH  28  29
ENDBRANCH  19  28
TORSDOF 5
