REMARK  Name = ZINC64357391
REMARK  5 active torsions:
REMARK  status: ('A' for Active; 'I' for Inactive)
REMARK    1  A    between atoms: C_4  and  C_7
REMARK    2  A    between atoms: C_7  and  C_9
REMARK    3  A    between atoms: C_7  and  C_26
REMARK    4  A    between atoms: C_9  and  N_10
REMARK    5  A    between atoms: C_11  and  C_13
REMARK                            x       y       z     vdW  Elec       q    Type
REMARK                         _______ _______ _______ _____ _____    ______ ____
ROOT
ATOM      1  C   UNL     1       2.559  -0.851  -0.070  0.00  0.00    +0.064 C 
ENDROOT
BRANCH   1   2
ATOM      2  C   UNL     1       2.413  -1.738  -1.279  0.00  0.00    -0.033 C 
ATOM      3  C   UNL     1       3.144  -1.689  -2.417  0.00  0.00    -0.000 A 
ATOM      4  C   UNL     1       4.250  -0.827  -2.852  0.00  0.00    +0.010 A 
ATOM      5  C   UNL     1       4.791  -1.023  -4.075  0.00  0.00    +0.001 A 
ATOM      6  C   UNL     1       4.324  -2.025  -4.936  0.00  0.00    +0.002 A 
ATOM      7  C   UNL     1       3.312  -2.856  -4.608  0.00  0.00    +0.026 A 
ATOM      8  C   UNL     1       2.669  -2.740  -3.344  0.00  0.00    +0.043 A 
ATOM      9  N   UNL     1       1.683  -3.413  -2.802  0.00  0.00    -0.380 N 
ATOM     10  C   UNL     1       1.425  -2.868  -1.465  0.00  0.00    +0.145 C 
ATOM     11  H   UNL     1       1.207  -4.150  -3.214  0.00  0.00    +0.160 HD
ENDBRANCH   1   2
BRANCH   1  15
ATOM     12  C   UNL     1      -1.106   1.236   0.612  0.00  0.00    +0.000 A 
ATOM     13  C   UNL     1       0.057   1.943   0.371  0.00  0.00    +0.000 A 
ATOM     14  C   UNL     1       1.243   1.268   0.150  0.00  0.00    +0.004 A 
ATOM     15  C   UNL     1       1.266  -0.114   0.171  0.00  0.00    -0.039 A 
ATOM     16  C   UNL     1       0.103  -0.821   0.413  0.00  0.00    +0.004 A 
ATOM     17  C   UNL     1      -1.083  -0.146   0.632  0.00  0.00    +0.000 A 
ENDBRANCH   1  15
BRANCH   1  18
ATOM     18  C   UNL     1       2.894  -1.706   1.153  0.00  0.00    +0.116 C 
BRANCH  18  19
ATOM     19  N   UNL     1       3.153  -0.835   2.302  0.00  0.00    -0.314 N 
ATOM     20  C   UNL     1       3.471  -1.373   3.497  0.00  0.00    +0.218 C 
ATOM     21  O   UNL     1       3.542  -2.577   3.620  0.00  0.00    -0.275 OA
ATOM     22  H   UNL     1       3.096   0.128   2.204  0.00  0.00    +0.149 HD
BRANCH  20  23
ATOM     23  C   UNL     1       3.737  -0.477   4.679  0.00  0.00    +0.092 C 
ATOM     24  C   UNL     1       4.071  -1.332   5.903  0.00  0.00    +0.016 C 
ATOM     25  C   UNL     1       4.374  -0.423   7.096  0.00  0.00    +0.020 C 
ATOM     26  C   UNL     1       3.135   0.419   7.418  0.00  0.00    +0.106 C 
ATOM     27  N   UNL     1       2.721   1.135   6.204  0.00  0.00    -0.313 N 
ATOM     28  C   UNL     1       2.491   0.365   4.973  0.00  0.00    +0.119 C 
ATOM     29  C   UNL     1       2.549   2.514   6.218  0.00  0.00    +0.140 A 
ATOM     30  C   UNL     1       2.550   3.206   7.428  0.00  0.00    +0.154 A 
ATOM     31  N   UNL     1       2.387   4.515   7.437  0.00  0.00    -0.258 NA
ATOM     32  C   UNL     1       2.221   5.170   6.300  0.00  0.00    +0.130 A 
ATOM     33  C   UNL     1       2.219   4.488   5.098  0.00  0.00    +0.132 A 
ATOM     34  N   UNL     1       2.388   3.176   5.080  0.00  0.00    -0.237 NA
ENDBRANCH  20  23
ENDBRANCH  18  19
ENDBRANCH   1  18
TORSDOF 5
