REMARK  Name = ZINC02147490
REMARK  5 active torsions:
REMARK  status: ('A' for Active; 'I' for Inactive)
REMARK    1  A    between atoms: C_3  and  C_6
REMARK    2  A    between atoms: C_7  and  C_16
REMARK    3  A    between atoms: C_8  and  N_15
REMARK    4  A    between atoms: C_10  and  N_14
REMARK    5  A    between atoms: C_11  and  C_12
REMARK                            x       y       z     vdW  Elec       q    Type
REMARK                         _______ _______ _______ _____ _____    ______ ____
ROOT
ATOM      1  C   UNL     1       1.226  -0.853  -0.025  0.00  0.00    +0.111 C 
ATOM      2  C   UNL     1       0.002  -0.004   0.002  0.00  0.00    +0.070 C 
ATOM      3  C   UNL     1      -0.016   1.340   0.009  0.00  0.00    +0.079 C 
ATOM      4  S   UNL     1       1.440   2.320   0.001  0.00  0.00    -0.058 S 
ATOM      5  C   UNL     1       2.627   1.157   0.566  0.00  0.00    +0.079 C 
ATOM      6  C   UNL     1       2.436  -0.172   0.514  0.00  0.00    +0.070 C 
ENDROOT
BRANCH   1   9
ATOM      7  C   UNL     1       1.827  -2.643  -3.334  0.00  0.00    +0.008 A 
ATOM      8  C   UNL     1       1.562  -2.506  -1.984  0.00  0.00    +0.012 A 
ATOM      9  C   UNL     1       1.498  -1.262  -1.450  0.00  0.00    +0.003 A 
ATOM     10  S   UNL     1       1.810  -0.232  -2.875  0.00  0.00    -0.101 S 
ATOM     11  C   UNL     1       2.014  -1.530  -4.084  0.00  0.00    +0.045 A 
ENDBRANCH   1   9
BRANCH   5  12
ATOM     12  N   UNL     1       3.809   1.629   1.085  0.00  0.00    -0.352 N 
ATOM     13  H   UNL     1       4.571   0.924   1.447  0.00  0.00    +0.143 HD
ATOM     14  H   UNL     1       3.992   2.713   1.139  0.00  0.00    +0.143 HD
ENDBRANCH   5  12
BRANCH   3  15
ATOM     15  N   UNL     1      -1.234   1.978   0.019  0.00  0.00    -0.352 N 
ATOM     16  H   UNL     1      -1.279   3.077   0.025  0.00  0.00    +0.143 HD
ATOM     17  H   UNL     1      -2.163   1.389   0.020  0.00  0.00    +0.143 HD
ENDBRANCH   3  15
BRANCH   6  18
ATOM     18  C   UNL     1       3.485  -1.005   1.021  0.00  0.00    +0.098 C 
ATOM     19  N   UNL     1       4.317  -1.665   1.424  0.00  0.00    -0.191 NA
ENDBRANCH   6  18
BRANCH   2  20
ATOM     20  C   UNL     1      -1.262  -0.677   0.023  0.00  0.00    +0.098 C 
ATOM     21  N   UNL     1      -2.265  -1.210   0.039  0.00  0.00    -0.191 NA
ENDBRANCH   2  20
TORSDOF 5
