REMARK  Name = ZINC63385141
REMARK  5 active torsions:
REMARK  status: ('A' for Active; 'I' for Inactive)
REMARK    1  A    between atoms: C_1  and  C_2
REMARK    2  A    between atoms: C_2  and  C_3
REMARK    3  A    between atoms: C_3  and  N_4
REMARK    4  A    between atoms: C_19  and  O_24
REMARK    5  A    between atoms: O_24  and  C_25
REMARK                            x       y       z     vdW  Elec       q    Type
REMARK                         _______ _______ _______ _____ _____    ______ ____
ROOT
ATOM      1  N   UNL     1      -1.413  -1.998   0.005  0.00  0.00    -0.269 N 
ATOM      2  C   UNL     1      -1.408  -2.766  -1.147  0.00  0.00    +0.042 A 
ATOM      3  C   UNL     1      -1.421  -2.360  -2.483  0.00  0.00    +0.025 A 
ATOM      4  C   UNL     1      -1.412  -3.355  -3.448  0.00  0.00    +0.017 A 
ATOM      5  C   UNL     1      -1.392  -4.695  -3.116  0.00  0.00    +0.018 A 
ATOM      6  C   UNL     1      -1.379  -5.113  -1.789  0.00  0.00    +0.023 A 
ATOM      7  C   UNL     1      -1.387  -4.128  -0.824  0.00  0.00    +0.006 A 
ATOM      8  C   UNL     1      -1.379  -4.204   0.670  0.00  0.00    +0.148 C 
ATOM      9  C   UNL     1      -1.393  -2.759   1.120  0.00  0.00    +0.247 C 
ATOM     10  O   UNL     1      -1.388  -2.360   2.265  0.00  0.00    -0.273 OA
ATOM     11  C   UNL     1      -0.122  -4.900   1.181  0.00  0.00    +0.140 C 
ATOM     12  C   UNL     1      -0.281  -5.021   2.693  0.00  0.00    -0.035 C 
ATOM     13  C   UNL     1       0.809  -4.492   3.228  0.00  0.00    +0.003 A 
ATOM     14  C   UNL     1       1.277  -4.397   4.619  0.00  0.00    +0.055 A 
ATOM     15  C   UNL     1       2.465  -3.763   4.823  0.00  0.00    +0.121 A 
ATOM     16  C   UNL     1       3.244  -3.209   3.797  0.00  0.00    +0.047 A 
ATOM     17  C   UNL     1       2.912  -3.246   2.481  0.00  0.00    +0.029 A 
ATOM     18  C   UNL     1       1.650  -3.913   2.133  0.00  0.00    +0.043 A 
ATOM     19  N   UNL     1       1.095  -4.121   0.961  0.00  0.00    -0.375 N 
ATOM     20  C   UNL     1      -1.544  -5.567   3.313  0.00  0.00    +0.048 C 
ATOM     21  C   UNL     1      -2.713  -4.837   2.627  0.00  0.00    +0.086 C 
ATOM     22  N   UNL     1      -2.566  -4.905   1.169  0.00  0.00    -0.297 NA
ATOM     23 BR   UNL     1      -1.382  -5.990  -4.494  0.00  0.00    -0.050 Br
ATOM     24  H   UNL     1      -3.401  -4.578   0.706  0.00  0.00    +0.123 HD
ATOM     25  H   UNL     1       1.424  -3.812   0.102  0.00  0.00    +0.160 HD
ENDROOT
BRANCH  15  26
ATOM     26  O   UNL     1       2.922  -3.660   6.098  0.00  0.00    -0.495 OA
ATOM     27  C   UNL     1       4.171  -2.990   6.288  0.00  0.00    +0.277 C 
ENDBRANCH  15  26
BRANCH   1  28
ATOM     28  C   UNL     1      -1.433  -0.534   0.013  0.00  0.00    +0.113 C 
BRANCH  28  30
ATOM     29  C   UNL     1      -0.019   1.526   0.010  0.00  0.00    +0.005 C 
ATOM     30  C   UNL     1       0.002  -0.004   0.002  0.00  0.00    +0.016 C 
ENDBRANCH  28  30
ENDBRANCH   1  28
TORSDOF 3
