REMARK  Name = ZINC21137871
REMARK  14 active torsions:
REMARK  status: ('A' for Active; 'I' for Inactive)
REMARK    1  A    between atoms: C_1  and  C_2
REMARK    2  A    between atoms: C_4  and  N_34
REMARK    3  A    between atoms: C_7  and  N_8
REMARK    4  A    between atoms: C_9  and  C_11
REMARK    5  A    between atoms: C_11  and  O_12
REMARK    6  A    between atoms: O_12  and  C_13
REMARK    7  A    between atoms: C_13  and  C_15
REMARK    8  A    between atoms: C_15  and  C_32
REMARK    9  A    between atoms: C_16  and  C_17
REMARK   10  A    between atoms: C_19  and  C_31
REMARK   11  A    between atoms: N_20  and  C_23
REMARK   12  A    between atoms: C_21  and  C_22
REMARK   13  A    between atoms: C_26  and  O_29
REMARK   14  A    between atoms: O_29  and  C_30
REMARK                            x       y       z     vdW  Elec       q    Type
REMARK                         _______ _______ _______ _____ _____    ______ ____
ROOT
ATOM      1  C   UNL     1       3.972   1.444  -0.862  0.00  0.00    +0.136 C 
ATOM      2  C   UNL     1       5.309   1.639  -1.153  0.00  0.00    +0.035 C 
ENDROOT
BRANCH   2   3
ATOM      3  C   UNL     1       6.089   0.565  -1.652  0.00  0.00    -0.003 A 
ATOM      4  C   UNL     1       5.777  -0.869  -1.571  0.00  0.00    +0.031 A 
ATOM      5  C   UNL     1       6.791  -1.513  -2.172  0.00  0.00    +0.022 A 
ATOM      6  N   UNL     1       7.704  -0.598  -2.618  0.00  0.00    -0.317 N 
ATOM      7  C   UNL     1       7.300   0.653  -2.321  0.00  0.00    +0.028 A 
ATOM      8  C   UNL     1       8.036   1.924  -2.656  0.00  0.00    +0.064 C 
ATOM      9  C   UNL     1       6.905  -3.007  -2.330  0.00  0.00    +0.064 C 
BRANCH   6  10
ATOM     10  C   UNL     1       8.891  -0.915  -3.295  0.00  0.00    +0.047 A 
ATOM     11  C   UNL     1      10.119  -0.633  -2.712  0.00  0.00    +0.030 A 
ATOM     12  C   UNL     1      11.287  -0.950  -3.376  0.00  0.00    +0.047 A 
ATOM     13  C   UNL     1      11.234  -1.541  -4.630  0.00  0.00    +0.120 A 
ATOM     14  C   UNL     1      10.007  -1.818  -5.215  0.00  0.00    +0.047 A 
ATOM     15  C   UNL     1       8.838  -1.506  -4.550  0.00  0.00    +0.030 A 
BRANCH  13  16
ATOM     16  O   UNL     1      12.384  -1.849  -5.286  0.00  0.00    -0.495 OA
ATOM     17  C   UNL     1      13.612  -1.536  -4.624  0.00  0.00    +0.277 C 
ENDBRANCH  13  16
ENDBRANCH   6  10
ENDBRANCH   2   3
BRANCH   1  18
ATOM     18  C   UNL     1       3.196   2.515  -0.226  0.00  0.00    +0.350 C 
ATOM     19  O   UNL     1       3.730   3.574   0.044  0.00  0.00    -0.244 OA
BRANCH  18  20
ATOM     20  O   UNL     1       1.892   2.326   0.059  0.00  0.00    -0.451 OA
BRANCH  20  21
ATOM     21  C   UNL     1       1.187   3.429   0.687  0.00  0.00    +0.328 C 
BRANCH  21  23
ATOM     22  N   UNL     1      -1.099   3.910   1.500  0.00  0.00    -0.282 N 
ATOM     23  C   UNL     1      -0.248   3.036   0.928  0.00  0.00    +0.255 C 
ATOM     24  O   UNL     1      -0.638   1.935   0.602  0.00  0.00    -0.272 OA
ATOM     25  H   UNL     1      -0.720   4.856   1.914  0.00  0.00    +0.155 HD
BRANCH  22  32
ATOM     26  C   UNL     1      -2.676   5.281   3.432  0.00  0.00    +0.046 C 
ATOM     27  C   UNL     1      -3.271   4.261   2.496  0.00  0.00    -0.027 A 
ATOM     28  C   UNL     1      -4.620   3.970   2.557  0.00  0.00    +0.038 A 
ATOM     29  C   UNL     1      -5.166   3.030   1.703  0.00  0.00    +0.127 A 
ATOM     30  C   UNL     1      -4.364   2.381   0.782  0.00  0.00    +0.034 A 
ATOM     31  C   UNL     1      -3.016   2.670   0.712  0.00  0.00    +0.026 A 
ATOM     32  C   UNL     1      -2.465   3.615   1.568  0.00  0.00    +0.037 A 
BRANCH  29  33
ATOM     33  N   UNL     1      -6.611   2.717   1.775  0.00  0.00    +0.056 N 
ATOM     34  O   UNL     1      -7.093   1.889   1.023  0.00  0.00    -0.126 OA
ATOM     35  O   UNL     1      -7.318   3.288   2.586  0.00  0.00    -0.126 OA
ENDBRANCH  29  33
ENDBRANCH  22  32
ENDBRANCH  21  23
ENDBRANCH  20  21
ENDBRANCH  18  20
ENDBRANCH   1  18
BRANCH   1  36
ATOM     36  C   UNL     1       3.344   0.197  -1.179  0.00  0.00    +0.106 C 
ATOM     37  N   UNL     1       2.846  -0.792  -1.432  0.00  0.00    -0.191 NA
ENDBRANCH   1  36
TORSDOF 10
