REMARK  Name = ZINC14740376
REMARK  8 active torsions:
REMARK  status: ('A' for Active; 'I' for Inactive)
REMARK    1  A    between atoms: C_1  and  C_2
REMARK    2  A    between atoms: N_5  and  C_7
REMARK    3  A    between atoms: C_7  and  C_8
REMARK    4  A    between atoms: C_8  and  N_9
REMARK    5  A    between atoms: C_13  and  C_16
REMARK    6  A    between atoms: C_26  and  C_27
REMARK    7  A    between atoms: C_26  and  N_67
REMARK    8  A    between atoms: N_29  and  C_36
REMARK                            x       y       z     vdW  Elec       q    Type
REMARK                         _______ _______ _______ _____ _____    ______ ____
ROOT
ATOM      1  N   UNL     1       2.360   0.028  -0.020  0.00  0.00    -0.310 N 
ATOM      2  C   UNL     1       1.183  -0.661  -0.018  0.00  0.00    +0.022 A 
ATOM      3  C   UNL     1       0.002  -0.004   0.002  0.00  0.00    -0.044 A 
ATOM      4  C   UNL     1      -0.017   1.400   0.010  0.00  0.00    +0.017 A 
ATOM      5  C   UNL     1       1.177   2.099   0.002  0.00  0.00    +0.047 A 
ATOM      6  C   UNL     1       2.391   1.371  -0.011  0.00  0.00    +0.259 A 
ATOM      7  O   UNL     1       3.459   1.960  -0.016  0.00  0.00    -0.267 OA
ATOM      8  C   UNL     1      -1.319  -0.727   0.024  0.00  0.00    -0.041 C 
ATOM      9  C   UNL     1      -0.088  -2.764   0.384  0.00  0.00    -0.072 C 
ATOM     10  C   UNL     1       1.252  -2.168  -0.046  0.00  0.00    +0.035 C 
ATOM     11  N   UNL     1      -1.144  -2.118  -0.421  0.00  0.00    +0.385 N 
ATOM     12  H   UNL     1      -0.863  -2.122  -1.408  0.00  0.00    -0.081 HD
ENDROOT
BRANCH   5  13
ATOM     13  C   UNL     1       1.184   3.581   0.007  0.00  0.00    -0.010 A 
ATOM     14  C   UNL     1       1.707   4.274   1.099  0.00  0.00    +0.009 A 
ATOM     15  C   UNL     1       1.713   5.654   1.099  0.00  0.00    +0.003 A 
ATOM     16  C   UNL     1       1.201   6.351   0.020  0.00  0.00    +0.038 A 
ATOM     17  C   UNL     1       0.681   5.670  -1.068  0.00  0.00    +0.124 A 
ATOM     18  C   UNL     1       0.674   4.287  -1.081  0.00  0.00    +0.047 A 
ATOM     19  F   UNL     1       0.183   6.356  -2.120  0.00  0.00    -0.205 F 
ENDBRANCH   5  13
BRANCH   1  20
ATOM     20  C   UNL     1       3.623  -0.716  -0.031  0.00  0.00    +0.148 C 
BRANCH  20  21
ATOM     21  C   UNL     1       4.054  -0.965  -1.478  0.00  0.00    +0.165 C 
BRANCH  21  26
ATOM     22  C   UNL     1       8.827  -2.235  -0.580  0.00  0.00    +0.067 C 
ATOM     23  C   UNL     1       7.407  -2.245  -1.084  0.00  0.00    +0.060 A 
ATOM     24  C   UNL     1       6.829  -3.231  -1.890  0.00  0.00    +0.044 A 
ATOM     25  C   UNL     1       5.542  -2.880  -2.120  0.00  0.00    +0.108 A 
ATOM     26  N   UNL     1       5.317  -1.708  -1.489  0.00  0.00    -0.269 N 
ATOM     27  N   UNL     1       6.501  -1.331  -0.843  0.00  0.00    -0.176 NA
ENDBRANCH  21  26
ENDBRANCH  20  21
ENDBRANCH   1  20
BRANCH  11  28
ATOM     28  C   UNL     1      -2.417  -2.861  -0.278  0.00  0.00    -0.040 C 
BRANCH  28  29
ATOM     29  C   UNL     1      -3.412  -2.325  -1.276  0.00  0.00    -0.039 A 
ATOM     30  C   UNL     1      -4.413  -1.466  -1.023  0.00  0.00    +0.088 A 
ATOM     31  N   UNL     1      -5.105  -1.205  -2.174  0.00  0.00    -0.349 N 
ATOM     32  C   UNL     1      -4.559  -1.914  -3.220  0.00  0.00    +0.049 A 
ATOM     33  C   UNL     1      -3.475  -2.647  -2.703  0.00  0.00    +0.001 A 
ATOM     34  C   UNL     1      -2.723  -3.467  -3.546  0.00  0.00    +0.010 A 
ATOM     35  C   UNL     1      -3.046  -3.555  -4.872  0.00  0.00    +0.001 A 
ATOM     36  C   UNL     1      -4.115  -2.835  -5.386  0.00  0.00    +0.002 A 
ATOM     37  C   UNL     1      -4.870  -2.019  -4.572  0.00  0.00    +0.026 A 
ATOM     38  C   UNL     1      -6.259  -0.308  -2.276  0.00  0.00    +0.149 C 
ENDBRANCH  28  29
ENDBRANCH  11  28
TORSDOF 6
