REMARK  Name = ZINC64061243
REMARK  12 active torsions:
REMARK  status: ('A' for Active; 'I' for Inactive)
REMARK    1  A    between atoms: C_1  and  O_2
REMARK    2  A    between atoms: O_2  and  C_3
REMARK    3  A    between atoms: C_5  and  C_13
REMARK    4  A    between atoms: C_6  and  O_11
REMARK    5  A    between atoms: C_8  and  O_9
REMARK    6  A    between atoms: O_9  and  C_10
REMARK    7  A    between atoms: O_11  and  C_12
REMARK    8  A    between atoms: C_13  and  N_14
REMARK    9  A    between atoms: C_21  and  C_23
REMARK   10  A    between atoms: N_25  and  C_26
REMARK   11  A    between atoms: C_26  and  C_27
REMARK   12  A    between atoms: C_27  and  C_28
REMARK                            x       y       z     vdW  Elec       q    Type
REMARK                         _______ _______ _______ _____ _____    ______ ____
ROOT
ATOM      1  N   UNL     1       3.923   0.331   4.048  0.00  0.00    +0.382 N 
ATOM      2  C   UNL     1       4.412  -1.051   4.114  0.00  0.00    -0.078 C 
ATOM      3  C   UNL     1       5.911  -1.080   3.794  0.00  0.00    -0.011 C 
ATOM      4  C   UNL     1       6.636  -0.143   4.767  0.00  0.00    -0.021 C 
ATOM      5  C   UNL     1       6.036   1.263   4.867  0.00  0.00    -0.011 C 
ATOM      6  C   UNL     1       4.529   1.135   5.115  0.00  0.00    -0.078 C 
ATOM      7  C   UNL     1       7.234  -0.755   6.032  0.00  0.00    +0.020 C 
ATOM      8  C   UNL     1       8.150  -0.285   4.900  0.00  0.00    +0.082 C 
ATOM      9  H   UNL     1       4.166   0.727   3.152  0.00  0.00    -0.081 HD
ENDROOT
BRANCH   8  10
ATOM     10  C   UNL     1       8.826  -1.344   4.066  0.00  0.00    +0.217 C 
ATOM     11  O   UNL     1       8.168  -2.044   3.326  0.00  0.00    -0.275 OA
ATOM     12  N   UNL     1      10.161  -1.513   4.144  0.00  0.00    -0.315 N 
ATOM     13  H   UNL     1      10.687  -0.953   4.736  0.00  0.00    +0.149 HD
BRANCH  12  14
ATOM     14  C   UNL     1      10.817  -2.542   3.334  0.00  0.00    +0.108 C 
BRANCH  14  15
ATOM     15  C   UNL     1      12.322  -2.524   3.609  0.00  0.00    +0.052 C 
BRANCH  15  16
ATOM     16  C   UNL     1      12.998  -3.582   2.776  0.00  0.00    -0.040 C 
ATOM     17  C   UNL     1      13.587  -3.415   1.569  0.00  0.00    -0.001 A 
ATOM     18  C   UNL     1      13.767  -2.243   0.705  0.00  0.00    +0.010 A 
ATOM     19  C   UNL     1      14.413  -2.390  -0.474  0.00  0.00    +0.001 A 
ATOM     20  C   UNL     1      14.913  -3.631  -0.890  0.00  0.00    +0.002 A 
ATOM     21  C   UNL     1      14.787  -4.754  -0.151  0.00  0.00    +0.026 A 
ATOM     22  C   UNL     1      14.125  -4.715   1.107  0.00  0.00    +0.043 A 
ATOM     23  N   UNL     1      13.878  -5.649   1.993  0.00  0.00    -0.380 N 
ATOM     24  C   UNL     1      13.160  -5.046   3.122  0.00  0.00    +0.144 C 
ATOM     25  H   UNL     1      14.131  -6.582   1.917  0.00  0.00    +0.160 HD
ENDBRANCH  15  16
ENDBRANCH  14  15
ENDBRANCH  12  14
ENDBRANCH   8  10
BRANCH   1  26
ATOM     26  C   UNL     1       2.462   0.338   4.203  0.00  0.00    -0.039 C 
BRANCH  26  29
ATOM     27  C   UNL     1       0.724  -2.281   2.108  0.00  0.00    +0.162 A 
ATOM     28  C   UNL     1       1.307  -1.634   3.185  0.00  0.00    +0.054 A 
ATOM     29  C   UNL     1       1.829  -0.364   3.030  0.00  0.00    -0.019 A 
ATOM     30  C   UNL     1       1.770   0.266   1.795  0.00  0.00    +0.125 A 
ATOM     31  C   UNL     1       1.188  -0.378   0.715  0.00  0.00    +0.095 A 
ATOM     32  C   UNL     1       0.669  -1.654   0.867  0.00  0.00    +0.165 A 
BRANCH  27  34
ATOM     33  C   UNL     1       0.300  -4.115   3.563  0.00  0.00    +0.277 C 
ATOM     34  O   UNL     1       0.210  -3.531   2.262  0.00  0.00    -0.491 OA
ENDBRANCH  27  34
BRANCH  32  35
ATOM     35  O   UNL     1       0.102  -2.290  -0.193  0.00  0.00    -0.491 OA
ATOM     36  C   UNL     1       0.081  -1.585  -1.436  0.00  0.00    +0.277 C 
ENDBRANCH  32  35
BRANCH  30  37
ATOM     37  O   UNL     1       2.284   1.516   1.645  0.00  0.00    -0.495 OA
ATOM     38  C   UNL     1       2.190   2.104   0.346  0.00  0.00    +0.277 C 
ENDBRANCH  30  37
ENDBRANCH  26  29
ENDBRANCH   1  26
TORSDOF 9
