REMARK  Name = ZINC44907747
REMARK  13 active torsions:
REMARK  status: ('A' for Active; 'I' for Inactive)
REMARK    1  A    between atoms: C_1  and  C_2
REMARK    2  A    between atoms: C_5  and  C_35
REMARK    3  A    between atoms: N_8  and  C_10
REMARK    4  A    between atoms: C_10  and  C_11
REMARK    5  A    between atoms: C_11  and  C_12
REMARK    6  A    between atoms: C_12  and  N_13
REMARK    7  A    between atoms: C_14  and  C_16
REMARK    8  A    between atoms: N_19  and  S_31
REMARK    9  A    between atoms: C_22  and  C_27
REMARK   10  A    between atoms: C_27  and  C_28
REMARK   11  A    between atoms: C_27  and  C_29
REMARK   12  A    between atoms: C_27  and  C_30
REMARK   13  A    between atoms: S_31  and  C_34
REMARK                            x       y       z     vdW  Elec       q    Type
REMARK                         _______ _______ _______ _____ _____    ______ ____
ROOT
ATOM      1  C   UNL     1       7.560  -1.973   4.113  0.00  0.00    +0.277 C 
ATOM      2  C   UNL     1       8.146  -2.671   2.877  0.00  0.00    +0.185 C 
ATOM      3  N   UNL     1       9.572  -2.309   2.796  0.00  0.00    -0.200 N 
ATOM      4  C   UNL     1      10.311  -2.298   3.990  0.00  0.00    +0.093 A 
ATOM      5  C   UNL     1      11.695  -2.249   3.949  0.00  0.00    +0.032 A 
ATOM      6  C   UNL     1      12.419  -2.235   5.127  0.00  0.00    -0.040 A 
ATOM      7  C   UNL     1      11.763  -2.267   6.344  0.00  0.00    +0.008 A 
ATOM      8  C   UNL     1      10.382  -2.317   6.390  0.00  0.00    +0.048 A 
ATOM      9  C   UNL     1       9.648  -2.334   5.213  0.00  0.00    +0.144 A 
ATOM     10  O   UNL     1       8.290  -2.388   5.270  0.00  0.00    -0.476 OA
ENDROOT
BRANCH   1  12
ATOM     11  N   UNL     1       5.211  -1.976   3.337  0.00  0.00    -0.312 N 
ATOM     12  C   UNL     1       6.110  -2.354   4.267  0.00  0.00    +0.255 C 
ATOM     13  O   UNL     1       5.752  -3.000   5.229  0.00  0.00    -0.272 OA
ATOM     14  H   UNL     1       5.498  -1.460   2.567  0.00  0.00    +0.149 HD
BRANCH  11  15
ATOM     15  C   UNL     1       3.802  -2.346   3.487  0.00  0.00    +0.102 C 
BRANCH  15  16
ATOM     16  C   UNL     1       3.002  -1.798   2.304  0.00  0.00    +0.000 C 
BRANCH  16  17
ATOM     17  C   UNL     1       1.530  -2.185   2.461  0.00  0.00    -0.077 C 
BRANCH  17  23
ATOM     18  C   UNL     1       0.092   1.890   0.160  0.00  0.00    +0.005 C 
ATOM     19  C   UNL     1       0.062   0.361   0.127  0.00  0.00    -0.031 C 
ATOM     20  C   UNL     1      -1.392  -0.122   0.144  0.00  0.00    +0.003 C 
ATOM     21  C   UNL     1      -1.410  -1.652   0.190  0.00  0.00    -0.031 C 
ATOM     22  C   UNL     1      -0.626  -2.130   1.413  0.00  0.00    -0.076 C 
ATOM     23  N   UNL     1       0.762  -1.659   1.324  0.00  0.00    +0.380 N 
ATOM     24  C   UNL     1       0.793  -0.192   1.352  0.00  0.00    -0.076 C 
ATOM     25  C   UNL     1      -2.856  -2.143   0.285  0.00  0.00    +0.005 C 
ATOM     26  H   UNL     1       1.172  -1.986   0.463  0.00  0.00    -0.082 HD
ENDBRANCH  17  23
ENDBRANCH  16  17
ENDBRANCH  15  16
ENDBRANCH  11  15
ENDBRANCH   1  12
BRANCH   6  27
ATOM     27  C   UNL     1      13.925  -2.183   5.085  0.00  0.00    -0.013 C 
ATOM     28  C   UNL     1      14.371  -0.911   4.361  0.00  0.00    +0.015 C 
ATOM     29  C   UNL     1      14.475  -2.176   6.513  0.00  0.00    +0.015 C 
ATOM     30  C   UNL     1      14.457  -3.408   4.340  0.00  0.00    +0.015 C 
ENDBRANCH   6  27
BRANCH   3  31
ATOM     31  S   UNL     1      10.278  -1.930   1.347  0.00  0.00    +0.043 S 
ATOM     32  O   UNL     1       9.193  -1.614   0.487  0.00  0.00    -0.155 OA
ATOM     33  O   UNL     1      11.259  -0.952   1.667  0.00  0.00    -0.155 OA
ATOM     34  C   UNL     1      11.080  -3.464   0.804  0.00  0.00    +0.218 C 
ENDBRANCH   3  31
TORSDOF 7
