REMARK  Name = ZINC38771607
REMARK  17 active torsions:
REMARK  status: ('A' for Active; 'I' for Inactive)
REMARK    1  A    between atoms: C_1  and  C_2
REMARK    2  A    between atoms: C_2  and  O_3
REMARK    3  A    between atoms: O_3  and  C_4
REMARK    4  A    between atoms: C_7  and  S_10
REMARK    5  A    between atoms: S_10  and  N_13
REMARK    6  A    between atoms: N_13  and  C_14
REMARK    7  A    between atoms: N_13  and  C_32
REMARK    8  A    between atoms: C_14  and  C_15
REMARK    9  A    between atoms: N_17  and  C_18
REMARK   10  A    between atoms: C_18  and  C_20
REMARK   11  A    between atoms: C_18  and  C_24
REMARK   12  A    between atoms: C_20  and  C_21
REMARK   13  A    between atoms: C_21  and  C_22
REMARK   14  A    between atoms: C_21  and  C_23
REMARK   15  A    between atoms: C_27  and  O_30
REMARK   16  A    between atoms: O_30  and  C_31
REMARK   17  A    between atoms: C_35  and  C_38
REMARK                            x       y       z     vdW  Elec       q    Type
REMARK                         _______ _______ _______ _____ _____    ______ ____
ROOT
ATOM      1  N   UNL     1      -2.081  -6.839   1.568  0.00  0.00    -0.194 N 
ENDROOT
BRANCH   1   2
ATOM      2  C   UNL     1      -0.917  -7.289   2.196  0.00  0.00    +0.052 A 
ATOM      3  C   UNL     1      -0.555  -6.780   3.437  0.00  0.00    +0.025 A 
ATOM      4  C   UNL     1       0.596  -7.227   4.056  0.00  0.00    +0.005 A 
ATOM      5  C   UNL     1       1.388  -8.180   3.441  0.00  0.00    -0.050 A 
ATOM      6  C   UNL     1       1.030  -8.689   2.206  0.00  0.00    +0.005 A 
ATOM      7  C   UNL     1      -0.123  -8.250   1.584  0.00  0.00    +0.025 A 
ATOM      8  C   UNL     1       2.643  -8.665   4.119  0.00  0.00    +0.044 C 
ENDBRANCH   1   2
BRANCH   1   9
ATOM      9  S   UNL     1      -1.993  -6.120   0.079  0.00  0.00    +0.075 S 
ATOM     10  O   UNL     1      -3.221  -6.397  -0.579  0.00  0.00    -0.150 OA
ATOM     11  O   UNL     1      -0.734  -6.483  -0.474  0.00  0.00    -0.150 OA
BRANCH   9  15
ATOM     12  C   UNL     1      -1.868  -1.645   0.757  0.00  0.00    +0.121 A 
ATOM     13  C   UNL     1      -0.688  -2.373   0.704  0.00  0.00    +0.047 A 
ATOM     14  C   UNL     1      -0.729  -3.738   0.497  0.00  0.00    +0.032 A 
ATOM     15  C   UNL     1      -1.944  -4.379   0.343  0.00  0.00    +0.109 A 
ATOM     16  C   UNL     1      -3.121  -3.656   0.395  0.00  0.00    +0.032 A 
ATOM     17  C   UNL     1      -3.086  -2.291   0.607  0.00  0.00    +0.047 A 
BRANCH  12  18
ATOM     18  O   UNL     1      -1.830  -0.301   0.960  0.00  0.00    -0.492 OA
BRANCH  18  20
ATOM     19  C   UNL     1      -0.699   1.803   1.325  0.00  0.00    +0.048 C 
ATOM     20  C   UNL     1      -0.541   0.297   1.106  0.00  0.00    +0.225 C 
ENDBRANCH  18  20
ENDBRANCH  12  18
ENDBRANCH   9  15
ENDBRANCH   1   9
BRANCH   1  21
ATOM     21  C   UNL     1      -3.379  -7.003   2.226  0.00  0.00    +0.227 C 
BRANCH  21  22
ATOM     22  C   UNL     1      -3.923  -8.377   1.930  0.00  0.00    +0.233 C 
ATOM     23  O   UNL     1      -3.288  -9.144   1.236  0.00  0.00    -0.274 OA
ATOM     24  N   UNL     1      -5.114  -8.754   2.435  0.00  0.00    -0.307 N 
ATOM     25  H   UNL     1      -5.622  -8.141   2.989  0.00  0.00    +0.149 HD
BRANCH  24  26
ATOM     26  C   UNL     1      -5.642 -10.089   2.146  0.00  0.00    +0.103 C 
BRANCH  26  27
ATOM     27  C   UNL     1      -7.145 -10.071   2.262  0.00  0.00    -0.027 A 
ATOM     28  C   UNL     1      -7.750  -9.350   3.274  0.00  0.00    +0.009 A 
ATOM     29  C   UNL     1      -9.127  -9.331   3.383  0.00  0.00    +0.046 A 
ATOM     30  C   UNL     1      -9.903 -10.038   2.475  0.00  0.00    +0.120 A 
ATOM     31  C   UNL     1      -9.293 -10.760   1.460  0.00  0.00    +0.046 A 
ATOM     32  C   UNL     1      -7.916 -10.771   1.353  0.00  0.00    +0.009 A 
BRANCH  30  33
ATOM     33  O   UNL     1     -11.258 -10.022   2.580  0.00  0.00    -0.495 OA
ATOM     34  C   UNL     1     -11.992 -10.771   1.610  0.00  0.00    +0.277 C 
ENDBRANCH  30  33
ENDBRANCH  26  27
BRANCH  26  35
ATOM     35  C   UNL     1      -5.066 -11.093   3.147  0.00  0.00    +0.030 C 
BRANCH  35  36
ATOM     36  C   UNL     1      -3.554 -11.204   2.945  0.00  0.00    -0.015 C 
ATOM     37  C   UNL     1      -2.960 -12.111   4.024  0.00  0.00    +0.007 C 
ATOM     38  C   UNL     1      -3.266 -11.798   1.564  0.00  0.00    +0.007 C 
ENDBRANCH  35  36
ENDBRANCH  26  35
ENDBRANCH  24  26
ENDBRANCH  21  22
ENDBRANCH   1  21
TORSDOF 12
