REMARK  Name = ZINC12497305
REMARK  12 active torsions:
REMARK  status: ('A' for Active; 'I' for Inactive)
REMARK    1  A    between atoms: C_1  and  C_2
REMARK    2  A    between atoms: C_2  and  C_3
REMARK    3  A    between atoms: C_3  and  N_4
REMARK    4  A    between atoms: C_6  and  O_35
REMARK    5  A    between atoms: N_13  and  C_14
REMARK    6  A    between atoms: C_14  and  C_16
REMARK    7  A    between atoms: C_19  and  S_22
REMARK    8  A    between atoms: S_22  and  N_25
REMARK    9  A    between atoms: C_27  and  C_34
REMARK   10  A    between atoms: C_30  and  C_33
REMARK   11  A    between atoms: O_35  and  C_36
REMARK   12  A    between atoms: C_36  and  C_37
REMARK                            x       y       z     vdW  Elec       q    Type
REMARK                         _______ _______ _______ _____ _____    ______ ____
ROOT
ATOM      1  C   UNL     1      -1.366  -3.021   3.459  0.00  0.00    +0.269 C 
ATOM      2  O   UNL     1      -1.351  -4.227   3.284  0.00  0.00    -0.268 OA
ENDROOT
BRANCH   1  12
ATOM      3  N   UNL     1      -1.413  -1.998   0.005  0.00  0.00    -0.318 N 
ATOM      4  C   UNL     1      -1.410  -2.686  -1.196  0.00  0.00    +0.100 A 
ATOM      5  C   UNL     1      -1.424  -2.182  -2.509  0.00  0.00    +0.145 A 
ATOM      6  C   UNL     1      -1.418  -3.040  -3.589  0.00  0.00    +0.048 A 
ATOM      7  C   UNL     1      -1.398  -4.413  -3.412  0.00  0.00    +0.005 A 
ATOM      8  C   UNL     1      -1.384  -4.932  -2.130  0.00  0.00    +0.017 A 
ATOM      9  C   UNL     1      -1.390  -4.079  -1.050  0.00  0.00    +0.042 A 
ATOM     10  S   UNL     1      -1.378  -4.301   0.710  0.00  0.00    -0.052 S 
ATOM     11  C   UNL     1      -1.393  -2.686   1.175  0.00  0.00    +0.167 A 
ATOM     12  N   UNL     1      -1.387  -2.194   2.410  0.00  0.00    -0.152 NA
BRANCH   3  13
ATOM     13  C   UNL     1      -1.433  -0.534   0.013  0.00  0.00    +0.124 C 
BRANCH  13  15
ATOM     14  C   UNL     1      -0.019   1.526   0.010  0.00  0.00    +0.005 C 
ATOM     15  C   UNL     1       0.002  -0.004   0.002  0.00  0.00    +0.018 C 
ENDBRANCH  13  15
ENDBRANCH   3  13
BRANCH   5  16
ATOM     16  O   UNL     1      -1.444  -0.838  -2.714  0.00  0.00    -0.490 OA
BRANCH  16  17
ATOM     17  C   UNL     1      -1.458  -0.390  -4.071  0.00  0.00    +0.226 C 
ATOM     18  C   UNL     1      -1.480   1.140  -4.103  0.00  0.00    +0.048 C 
ENDBRANCH  16  17
ENDBRANCH   5  16
ENDBRANCH   1  12
BRANCH   1  19
ATOM     19  C   UNL     1      -1.360  -2.472   4.835  0.00  0.00    +0.039 A 
ATOM     20  C   UNL     1      -1.383  -1.093   5.039  0.00  0.00    +0.015 A 
ATOM     21  C   UNL     1      -1.378  -0.588   6.323  0.00  0.00    +0.029 A 
ATOM     22  C   UNL     1      -1.350  -1.447   7.407  0.00  0.00    +0.106 A 
ATOM     23  C   UNL     1      -1.326  -2.816   7.211  0.00  0.00    +0.029 A 
ATOM     24  C   UNL     1      -1.337  -3.333   5.932  0.00  0.00    +0.015 A 
BRANCH  22  25
ATOM     25  S   UNL     1      -1.343  -0.794   9.043  0.00  0.00    +0.061 S 
ATOM     26  O   UNL     1      -0.764  -1.790   9.876  0.00  0.00    -0.153 OA
ATOM     27  O   UNL     1      -0.817   0.523   8.953  0.00  0.00    -0.153 OA
BRANCH  25  28
ATOM     28  N   UNL     1      -2.922  -0.642   9.517  0.00  0.00    -0.176 NA
ATOM     29  C   UNL     1      -3.665   0.599   9.257  0.00  0.00    +0.112 C 
ATOM     30  C   UNL     1      -4.262   1.102  10.575  0.00  0.00    +0.002 C 
ATOM     31  C   UNL     1      -5.100  -0.012  11.208  0.00  0.00    +0.009 C 
ATOM     32  C   UNL     1      -4.205  -1.216  11.511  0.00  0.00    +0.002 C 
ATOM     33  C   UNL     1      -3.610  -1.747  10.198  0.00  0.00    +0.112 C 
ATOM     34  C   UNL     1      -5.037  -2.316  12.175  0.00  0.00    +0.009 C 
ATOM     35  C   UNL     1      -5.150   2.318  10.303  0.00  0.00    +0.009 C 
ENDBRANCH  25  28
ENDBRANCH  22  25
ENDBRANCH   1  19
TORSDOF 8
