REMARK  Name = ZINC59472787
REMARK  10 active torsions:
REMARK  status: ('A' for Active; 'I' for Inactive)
REMARK    1  A    between atoms: C_4  and  S_7
REMARK    2  A    between atoms: S_7  and  N_10
REMARK    3  A    between atoms: N_10  and  C_11
REMARK    4  A    between atoms: N_10  and  C_27
REMARK    5  A    between atoms: C_11  and  C_12
REMARK    6  A    between atoms: N_14  and  N_15
REMARK    7  A    between atoms: C_16  and  C_17
REMARK    8  A    between atoms: C_20  and  O_23
REMARK    9  A    between atoms: O_23  and  C_24
REMARK   10  A    between atoms: C_24  and  C_25
REMARK                            x       y       z     vdW  Elec       q    Type
REMARK                         _______ _______ _______ _____ _____    ______ ____
ROOT
ATOM      1  N   UNL     1       4.378  -1.079   1.536  0.00  0.00    -0.194 N 
ENDROOT
BRANCH   1   2
ATOM      2  C   UNL     1       5.241  -0.179   2.167  0.00  0.00    +0.052 A 
ATOM      3  C   UNL     1       4.914   0.340   3.413  0.00  0.00    +0.026 A 
ATOM      4  C   UNL     1       5.770   1.228   4.036  0.00  0.00    +0.022 A 
ATOM      5  C   UNL     1       6.951   1.600   3.419  0.00  0.00    +0.041 A 
ATOM      6  C   UNL     1       7.279   1.084   2.178  0.00  0.00    +0.022 A 
ATOM      7  C   UNL     1       6.430   0.192   1.553  0.00  0.00    +0.026 A 
ATOM      8 CL   UNL     1       8.024   2.718   4.203  0.00  0.00    -0.084 Cl
ENDBRANCH   1   2
BRANCH   1   9
ATOM      9  S   UNL     1       3.741  -0.711   0.052  0.00  0.00    +0.075 S 
ATOM     10  O   UNL     1       3.524  -1.947  -0.615  0.00  0.00    -0.150 OA
ATOM     11  O   UNL     1       4.554   0.317  -0.496  0.00  0.00    -0.150 OA
BRANCH   9  15
ATOM     12  C   UNL     1      -0.343   1.109   0.759  0.00  0.00    +0.000 A 
ATOM     13  C   UNL     1       0.776   1.920   0.709  0.00  0.00    +0.002 A 
ATOM     14  C   UNL     1       2.023   1.364   0.493  0.00  0.00    +0.029 A 
ATOM     15  C   UNL     1       2.151  -0.003   0.328  0.00  0.00    +0.109 A 
ATOM     16  C   UNL     1       1.033  -0.813   0.379  0.00  0.00    +0.029 A 
ATOM     17  C   UNL     1      -0.215  -0.257   0.593  0.00  0.00    +0.002 A 
ENDBRANCH   9  15
ENDBRANCH   1   9
BRANCH   1  18
ATOM     18  C   UNL     1       4.036  -2.346   2.186  0.00  0.00    +0.228 C 
BRANCH  18  19
ATOM     19  C   UNL     1       5.096  -3.371   1.877  0.00  0.00    +0.251 C 
ATOM     20  O   UNL     1       6.045  -3.072   1.182  0.00  0.00    -0.272 OA
ATOM     21  N   UNL     1       4.991  -4.620   2.373  0.00  0.00    -0.206 N 
ATOM     22  H   UNL     1       4.233  -4.859   2.929  0.00  0.00    +0.177 HD
BRANCH  21  23
ATOM     23  N   UNL     1       5.977  -5.573   2.086  0.00  0.00    -0.188 NA
ATOM     24  C   UNL     1       5.876  -6.775   2.564  0.00  0.00    +0.138 C 
BRANCH  24  25
ATOM     25  C   UNL     1       6.913  -7.778   2.261  0.00  0.00    -0.005 A 
ATOM     26  C   UNL     1       8.009  -7.435   1.466  0.00  0.00    +0.013 A 
ATOM     27  C   UNL     1       8.977  -8.375   1.186  0.00  0.00    +0.046 A 
ATOM     28  C   UNL     1       8.864  -9.663   1.694  0.00  0.00    +0.122 A 
ATOM     29  C   UNL     1       7.776 -10.009   2.485  0.00  0.00    +0.046 A 
ATOM     30  C   UNL     1       6.807  -9.074   2.775  0.00  0.00    +0.013 A 
BRANCH  28  31
ATOM     31  O   UNL     1       9.820 -10.587   1.416  0.00  0.00    -0.477 OA
BRANCH  31  32
ATOM     32  C   UNL     1       9.642 -11.892   1.970  0.00  0.00    +0.346 C 
BRANCH  32  33
ATOM     33  C   UNL     1      10.765 -12.754   1.567  0.00  0.00    +0.104 C 
ATOM     34  N   UNL     1      11.632 -13.419   1.256  0.00  0.00    -0.193 NA
ENDBRANCH  32  33
ENDBRANCH  31  32
ENDBRANCH  28  31
ENDBRANCH  24  25
ENDBRANCH  21  23
ENDBRANCH  18  19
ENDBRANCH   1  18
TORSDOF 10
