REMARK  Name = ZINC34802417
REMARK  10 active torsions:
REMARK  status: ('A' for Active; 'I' for Inactive)
REMARK    1  A    between atoms: C_1  and  C_2
REMARK    2  A    between atoms: C_3  and  C_35
REMARK    3  A    between atoms: C_4  and  C_25
REMARK    4  A    between atoms: C_7  and  O_9
REMARK    5  A    between atoms: O_9  and  C_10
REMARK    6  A    between atoms: C_10  and  C_11
REMARK    7  A    between atoms: C_13  and  C_15
REMARK    8  A    between atoms: C_15  and  S_16
REMARK    9  A    between atoms: S_16  and  C_19
REMARK   10  A    between atoms: C_30  and  C_31
REMARK                            x       y       z     vdW  Elec       q    Type
REMARK                         _______ _______ _______ _____ _____    ______ ____
ROOT
ATOM      1  C   UNL     1      -0.018   1.503   0.010  0.00  0.00    +0.066 C 
ATOM      2  C   UNL     1       0.002  -0.004   0.002  0.00  0.00    +0.053 C 
ATOM      3  C   UNL     1      -1.183  -0.676   0.004  0.00  0.00    +0.062 C 
ATOM      4  C   UNL     1      -1.132  -2.192  -0.005  0.00  0.00    +0.100 C 
ATOM      5  C   UNL     1       0.256  -2.808  -0.015  0.00  0.00    +0.072 C 
ATOM      6  C   UNL     1       0.436  -4.162  -0.025  0.00  0.00    +0.338 C 
ATOM      7  O   UNL     1      -0.633  -4.984  -0.024  0.00  0.00    -0.245 OA
ATOM      8  C   UNL     1       1.342  -1.927  -0.016  0.00  0.00    +0.074 C 
ATOM      9  N   UNL     1       1.174  -0.627  -0.013  0.00  0.00    -0.254 NA
ENDROOT
BRANCH   4  10
ATOM     10  C   UNL     1      -1.869  -2.681  -1.225  0.00  0.00    -0.023 A 
ATOM     11  C   UNL     1      -1.440  -2.311  -2.486  0.00  0.00    +0.005 A 
ATOM     12  C   UNL     1      -2.115  -2.759  -3.606  0.00  0.00    +0.000 A 
ATOM     13  C   UNL     1      -3.220  -3.578  -3.464  0.00  0.00    +0.001 A 
ATOM     14  C   UNL     1      -3.649  -3.949  -2.204  0.00  0.00    +0.012 A 
ATOM     15  C   UNL     1      -2.970  -3.504  -1.084  0.00  0.00    +0.059 A 
BRANCH  15  16
ATOM     16  C   UNL     1      -3.434  -3.913   0.290  0.00  0.00    +0.418 C 
ATOM     17  F   UNL     1      -4.557  -4.739   0.177  0.00  0.00    -0.166 F 
ATOM     18  F   UNL     1      -2.409  -4.606   0.942  0.00  0.00    -0.166 F 
ATOM     19  F   UNL     1      -3.768  -2.772   1.028  0.00  0.00    -0.166 F 
ENDBRANCH  15  16
ENDBRANCH   4  10
BRANCH   3  20
ATOM     20  C   UNL     1      -2.432   0.024   0.015  0.00  0.00    +0.098 C 
ATOM     21  N   UNL     1      -3.423   0.580   0.024  0.00  0.00    -0.191 NA
ENDBRANCH   3  20
BRANCH   6  22
ATOM     22  O   UNL     1       1.682  -4.677  -0.034  0.00  0.00    -0.457 OA
BRANCH  22  23
ATOM     23  C   UNL     1       1.795  -6.101  -0.043  0.00  0.00    +0.259 C 
BRANCH  23  24
ATOM     24  C   UNL     1       3.251  -6.489  -0.053  0.00  0.00    +0.006 C 
ATOM     25  C   UNL     1       3.682  -7.438   0.742  0.00  0.00    +0.007 C 
ENDBRANCH  23  24
ENDBRANCH  22  23
ENDBRANCH   6  22
BRANCH   8  26
ATOM     26  C   UNL     1       2.742  -2.487  -0.026  0.00  0.00    +0.227 C 
BRANCH  26  27
ATOM     27  S   UNL     1       3.938  -1.123  -0.024  0.00  0.00    +0.002 S 
ATOM     28  O   UNL     1       3.875  -0.415  -1.254  0.00  0.00    -0.169 OA
ATOM     29  O   UNL     1       3.887  -0.429   1.215  0.00  0.00    -0.169 OA
BRANCH  27  30
ATOM     30  C   UNL     1       5.517  -1.906  -0.036  0.00  0.00    +0.089 A 
ATOM     31  C   UNL     1       6.139  -2.225   1.157  0.00  0.00    +0.027 A 
ATOM     32  C   UNL     1       7.378  -2.839   1.147  0.00  0.00    +0.002 A 
ATOM     33  C   UNL     1       7.993  -3.135  -0.054  0.00  0.00    +0.000 A 
ATOM     34  C   UNL     1       7.370  -2.817  -1.247  0.00  0.00    +0.002 A 
ATOM     35  C   UNL     1       6.130  -2.207  -1.238  0.00  0.00    +0.027 A 
ENDBRANCH  27  30
ENDBRANCH  26  27
ENDBRANCH   8  26
TORSDOF 9
