REMARK  Name = ZINC15860490
REMARK  7 active torsions:
REMARK  status: ('A' for Active; 'I' for Inactive)
REMARK    1  A    between atoms: C_1  and  C_2
REMARK    2  A    between atoms: C_5  and  C_7
REMARK    3  A    between atoms: C_7  and  C_9
REMARK    4  A    between atoms: C_7  and  N_53
REMARK    5  A    between atoms: C_9  and  N_10
REMARK    6  A    between atoms: C_11  and  C_13
REMARK    7  A    between atoms: C_26  and  C_29
REMARK                            x       y       z     vdW  Elec       q    Type
REMARK                         _______ _______ _______ _____ _____    ______ ____
ROOT
ATOM      1  C   UNL     1       6.308   1.314  -0.204  0.00  0.00    +0.097 C 
ENDROOT
BRANCH   1   2
ATOM      2  N   UNL     1       4.901   0.994  -0.459  0.00  0.00    -0.312 N 
ATOM      3  C   UNL     1       4.003   1.986  -0.623  0.00  0.00    +0.252 C 
ATOM      4  O   UNL     1       4.361   3.147  -0.559  0.00  0.00    -0.270 OA
ATOM      5  H   UNL     1       4.616   0.068  -0.511  0.00  0.00    +0.149 HD
BRANCH   3   6
ATOM      6  C   UNL     1       2.594   1.665  -0.879  0.00  0.00    +0.093 A 
ATOM      7  C   UNL     1       1.551   2.518  -1.069  0.00  0.00    +0.068 A 
ATOM      8  C   UNL     1       0.261   2.007  -1.303  0.00  0.00    +0.008 A 
ATOM      9  C   UNL     1      -0.943   2.727  -1.517  0.00  0.00    +0.012 A 
ATOM     10  C   UNL     1      -2.114   2.075  -1.735  0.00  0.00    +0.021 A 
ATOM     11  C   UNL     1      -2.183   0.686  -1.746  0.00  0.00    +0.042 A 
ATOM     12  C   UNL     1      -1.035  -0.054  -1.537  0.00  0.00    +0.035 A 
ATOM     13  C   UNL     1       0.161   0.596  -1.321  0.00  0.00    +0.023 A 
ATOM     14  S   UNL     1       1.826   0.060  -1.018  0.00  0.00    -0.082 S 
ATOM     15 CL   UNL     1      -3.700  -0.112  -2.022  0.00  0.00    -0.084 Cl
ATOM     16 CL   UNL     1       1.812   4.234  -1.024  0.00  0.00    -0.082 Cl
ENDBRANCH   3   6
ENDBRANCH   1   2
BRANCH   1  17
ATOM     17  C   UNL     1       7.085   0.023   0.061  0.00  0.00    +0.016 C 
BRANCH  17  24
ATOM     18  C   UNL     1       7.547  -2.192  -0.800  0.00  0.00    -0.078 C 
ATOM     19  C   UNL     1       7.197  -3.181  -1.915  0.00  0.00    -0.015 C 
ATOM     20  C   UNL     1       7.657  -2.610  -3.259  0.00  0.00    -0.018 C 
ATOM     21  C   UNL     1       6.991  -1.250  -3.482  0.00  0.00    -0.015 C 
ATOM     22  C   UNL     1       7.346  -0.317  -2.322  0.00  0.00    -0.078 C 
ATOM     23  C   UNL     1       7.257  -3.567  -4.384  0.00  0.00    +0.007 C 
ATOM     24  N   UNL     1       6.855  -0.912  -1.060  0.00  0.00    +0.387 N 
ATOM     25  H   UNL     1       5.848  -1.089  -1.146  0.00  0.00    -0.081 HD
ENDBRANCH  17  24
BRANCH  17  30
ATOM     26  C   UNL     1      11.813   1.325  -1.119  0.00  0.00    +0.086 C 
ATOM     27  C   UNL     1      10.608   0.904  -0.317  0.00  0.00    +0.102 A 
ATOM     28  C   UNL     1      10.588   0.666   1.007  0.00  0.00    +0.044 A 
ATOM     29  C   UNL     1       9.262   0.307   1.339  0.00  0.00    +0.043 A 
ATOM     30  C   UNL     1       8.552   0.338   0.196  0.00  0.00    +0.093 A 
ATOM     31  O   UNL     1       9.372   0.704  -0.803  0.00  0.00    -0.466 OA
ENDBRANCH  17  30
ENDBRANCH   1  17
TORSDOF 5
