REMARK  Name = ZINC13881459
REMARK  10 active torsions:
REMARK  status: ('A' for Active; 'I' for Inactive)
REMARK    1  A    between atoms: C_1  and  C_2
REMARK    2  A    between atoms: C_2  and  C_3
REMARK    3  A    between atoms: C_3  and  C_5
REMARK    4  A    between atoms: C_3  and  O_6
REMARK    5  A    between atoms: O_6  and  C_7
REMARK    6  A    between atoms: C_8  and  O_29
REMARK    7  A    between atoms: C_10  and  C_14
REMARK    8  A    between atoms: N_20  and  C_21
REMARK    9  A    between atoms: O_29  and  C_30
REMARK   10  A    between atoms: C_30  and  C_31
REMARK                            x       y       z     vdW  Elec       q    Type
REMARK                         _______ _______ _______ _____ _____    ______ ____
ROOT
ATOM      1  C   UNL     1       2.835   0.811  -7.132  0.00  0.00    +0.028 C 
ATOM      2  C   UNL     1       3.661  -0.148  -7.623  0.00  0.00    +0.078 C 
ATOM      3  C   UNL     1       4.582  -0.089  -8.774  0.00  0.00    +0.256 C 
ATOM      4  O   UNL     1       4.695   0.918  -9.448  0.00  0.00    -0.269 OA
ATOM      5  N   UNL     1       5.281  -1.180  -9.039  0.00  0.00    -0.260 N 
ATOM      6  C   UNL     1       5.139  -2.310  -8.264  0.00  0.00    +0.166 C 
ATOM      7  N   UNL     1       5.750  -3.467  -8.387  0.00  0.00    -0.226 NA
ATOM      8  S   UNL     1       3.930  -1.817  -7.046  0.00  0.00    -0.049 S 
ATOM      9  H   UNL     1       5.899  -1.185  -9.787  0.00  0.00    +0.157 HD
ENDROOT
BRANCH   1  13
ATOM     10  C   UNL     1       0.083  -0.144  -4.045  0.00  0.00    +0.176 A 
ATOM     11  C   UNL     1       0.400   1.189  -4.304  0.00  0.00    +0.164 A 
ATOM     12  C   UNL     1       1.294   1.504  -5.307  0.00  0.00    +0.057 A 
ATOM     13  C   UNL     1       1.883   0.482  -6.063  0.00  0.00    -0.019 A 
ATOM     14  C   UNL     1       1.560  -0.854  -5.797  0.00  0.00    +0.027 A 
ATOM     15  C   UNL     1       0.669  -1.159  -4.790  0.00  0.00    +0.064 A 
ATOM     16 BR   UNL     1       0.238  -2.964  -4.427  0.00  0.00    -0.046 Br
BRANCH  10  17
ATOM     17  O   UNL     1      -0.798  -0.451  -3.057  0.00  0.00    -0.484 OA
BRANCH  17  18
ATOM     18  C   UNL     1      -0.261  -0.657  -1.749  0.00  0.00    +0.170 C 
ATOM     19  C   UNL     1       0.096  -2.135  -1.572  0.00  0.00    +0.052 C 
BRANCH  18  21
ATOM     20  C   UNL     1      -1.564   1.250  -0.797  0.00  0.00    +0.007 C 
ATOM     21  C   UNL     1      -1.299  -0.254  -0.701  0.00  0.00    +0.041 C 
ENDBRANCH  18  21
ENDBRANCH  17  18
ENDBRANCH  10  17
BRANCH  11  22
ATOM     22  O   UNL     1      -0.173   2.179  -3.569  0.00  0.00    -0.489 OA
BRANCH  22  23
ATOM     23  C   UNL     1       0.197   3.522  -3.888  0.00  0.00    +0.226 C 
ATOM     24  C   UNL     1      -0.543   4.489  -2.962  0.00  0.00    +0.048 C 
ENDBRANCH  22  23
ENDBRANCH  11  22
ENDBRANCH   1  13
BRANCH   7  25
ATOM     25  C   UNL     1       5.475  -4.483  -7.511  0.00  0.00    +0.067 A 
ATOM     26  C   UNL     1       5.396  -4.225  -6.141  0.00  0.00    +0.030 A 
ATOM     27  C   UNL     1       5.119  -5.252  -5.263  0.00  0.00    +0.040 A 
ATOM     28  C   UNL     1       4.920  -6.538  -5.738  0.00  0.00    +0.124 A 
ATOM     29  C   UNL     1       4.997  -6.801  -7.096  0.00  0.00    +0.040 A 
ATOM     30  C   UNL     1       5.267  -5.780  -7.984  0.00  0.00    +0.030 A 
ATOM     31  F   UNL     1       4.649  -7.541  -4.873  0.00  0.00    -0.205 F 
ENDBRANCH   7  25
TORSDOF 7
