REMARK  Name = ZINC20240936
REMARK  8 active torsions:
REMARK  status: ('A' for Active; 'I' for Inactive)
REMARK    1  A    between atoms: C_1  and  C_2
REMARK    2  A    between atoms: C_2  and  C_3
REMARK    3  A    between atoms: C_6  and  C_9
REMARK    4  A    between atoms: C_11  and  C_15
REMARK    5  A    between atoms: C_12  and  C_14
REMARK    6  A    between atoms: C_15  and  N_16
REMARK    7  A    between atoms: C_20  and  C_23
REMARK    8  A    between atoms: N_25  and  C_26
REMARK                            x       y       z     vdW  Elec       q    Type
REMARK                         _______ _______ _______ _____ _____    ______ ____
ROOT
ATOM      1  N   UNL     1      -8.348  -4.567  -1.798  0.00  0.00    +0.384 N 
ATOM      2  C   UNL     1      -8.519  -5.329  -0.556  0.00  0.00    -0.078 C 
ATOM      3  C   UNL     1      -8.324  -6.821  -0.838  0.00  0.00    -0.018 C 
ATOM      4  C   UNL     1      -9.362  -7.280  -1.866  0.00  0.00    +0.009 C 
ATOM      5  C   UNL     1      -9.224  -6.427  -3.131  0.00  0.00    +0.058 C 
ATOM      6  C   UNL     1      -9.385  -4.950  -2.764  0.00  0.00    -0.066 C 
ATOM      7  H   UNL     1      -7.438  -4.761  -2.188  0.00  0.00    -0.081 HD
ENDROOT
BRANCH   5   8
ATOM      8  C   UNL     1     -10.290  -6.820  -4.121  0.00  0.00    +0.215 C 
ATOM      9  O   UNL     1     -11.098  -5.999  -4.500  0.00  0.00    -0.276 OA
ATOM     10  N   UNL     1     -10.346  -8.084  -4.585  0.00  0.00    -0.308 N 
ATOM     11  H   UNL     1      -9.700  -8.741  -4.282  0.00  0.00    +0.149 HD
BRANCH  10  12
ATOM     12  C   UNL     1     -11.382  -8.466  -5.548  0.00  0.00    +0.103 C 
ATOM     13  C   UNL     1     -11.647  -9.966  -5.434  0.00  0.00    +0.027 C 
ATOM     14  C   UNL     1     -12.567 -10.383  -6.588  0.00  0.00    +0.007 C 
ATOM     15  C   UNL     1     -11.775 -10.296  -7.891  0.00  0.00    +0.035 C 
ATOM     16  C   UNL     1     -11.107  -8.951  -8.015  0.00  0.00    -0.042 A 
ATOM     17  C   UNL     1     -10.922  -8.114  -6.938  0.00  0.00    -0.024 A 
ATOM     18  C   UNL     1     -10.292  -6.890  -7.120  0.00  0.00    +0.006 A 
ATOM     19  C   UNL     1      -9.852  -6.507  -8.371  0.00  0.00    +0.000 A 
ATOM     20  C   UNL     1     -10.040  -7.347  -9.452  0.00  0.00    +0.000 A 
ATOM     21  C   UNL     1     -10.665  -8.562  -9.273  0.00  0.00    +0.004 A 
ENDBRANCH  10  12
ENDBRANCH   5   8
BRANCH   1  22
ATOM     22  C   UNL     1      -8.459  -3.131  -1.509  0.00  0.00    -0.019 C 
BRANCH  22  25
ATOM     23  C   UNL     1      -5.396  -1.997   0.043  0.00  0.00    +0.228 A 
ATOM     24  N   UNL     1      -6.121  -2.267  -1.017  0.00  0.00    -0.216 NA
ATOM     25  C   UNL     1      -7.322  -2.710  -0.614  0.00  0.00    +0.066 A 
ATOM     26  C   UNL     1      -7.330  -2.712   0.732  0.00  0.00    +0.124 A 
ATOM     27  O   UNL     1      -6.123  -2.271   1.140  0.00  0.00    -0.440 OA
ATOM     28  C   UNL     1      -8.474  -3.133   1.618  0.00  0.00    +0.088 C 
BRANCH  23  32
ATOM     29  C   UNL     1      -1.412  -0.526   0.013  0.00  0.00    -0.048 A 
ATOM     30  C   UNL     1      -2.048  -0.765   1.218  0.00  0.00    +0.004 A 
ATOM     31  C   UNL     1      -3.342  -1.243   1.234  0.00  0.00    +0.013 A 
ATOM     32  C   UNL     1      -4.010  -1.485   0.032  0.00  0.00    +0.037 A 
ATOM     33  C   UNL     1      -3.362  -1.240  -1.179  0.00  0.00    +0.013 A 
ATOM     34  C   UNL     1      -2.069  -0.758  -1.182  0.00  0.00    +0.004 A 
BRANCH  29  36
ATOM     35  C   UNL     1      -0.019   1.526   0.010  0.00  0.00    +0.009 C 
ATOM     36  C   UNL     1       0.002  -0.004   0.002  0.00  0.00    +0.032 C 
ENDBRANCH  29  36
ENDBRANCH  23  32
ENDBRANCH  22  25
ENDBRANCH   1  22
TORSDOF 6
