REMARK  Name = ZINC14882250
REMARK  9 active torsions:
REMARK  status: ('A' for Active; 'I' for Inactive)
REMARK    1  A    between atoms: C_1  and  C_2
REMARK    2  A    between atoms: C_2  and  C_4
REMARK    3  A    between atoms: C_2  and  N_28
REMARK    4  A    between atoms: C_13  and  C_14
REMARK    5  A    between atoms: C_13  and  N_65
REMARK    6  A    between atoms: C_17  and  N_20
REMARK    7  A    between atoms: N_20  and  C_21
REMARK    8  A    between atoms: N_20  and  C_22
REMARK    9  A    between atoms: C_29  and  C_31
REMARK                            x       y       z     vdW  Elec       q    Type
REMARK                         _______ _______ _______ _____ _____    ______ ____
ROOT
ATOM      1  C   UNL     1      -8.839  -4.828   1.460  0.00  0.00    +0.154 A 
ATOM      2  N   UNL     1      -8.855  -5.184   0.202  0.00  0.00    -0.132 NA
ATOM      3  N   UNL     1      -8.257  -4.292  -0.509  0.00  0.00    -0.134 NA
ATOM      4  C   UNL     1      -7.841  -3.329   0.261  0.00  0.00    +0.132 A 
ATOM      5  N   UNL     1      -8.184  -3.650   1.532  0.00  0.00    -0.315 N 
ATOM      6  C   UNL     1      -7.884  -2.864   2.729  0.00  0.00    +0.106 C 
ATOM      7  C   UNL     1      -7.772  -1.385   2.345  0.00  0.00    -0.056 C 
ATOM      8  C   UNL     1      -5.945  -1.840   0.803  0.00  0.00    -0.071 C 
ATOM      9  C   UNL     1      -7.125  -2.067  -0.146  0.00  0.00    +0.058 C 
ATOM     10  N   UNL     1      -6.367  -1.075   1.998  0.00  0.00    +0.384 N 
ATOM     11  H   UNL     1      -5.766  -1.338   2.788  0.00  0.00    -0.081 HD
ENDROOT
BRANCH   1  13
ATOM     12  C   UNL     1      -8.554  -6.794   2.945  0.00  0.00    +0.036 C 
ATOM     13  C   UNL     1      -9.439  -5.591   2.613  0.00  0.00    +0.138 C 
BRANCH  13  14
ATOM     14  N   UNL     1     -10.779  -6.057   2.246  0.00  0.00    -0.305 N 
ATOM     15  C   UNL     1     -11.693  -6.301   3.205  0.00  0.00    +0.217 C 
ATOM     16  O   UNL     1     -11.407  -6.136   4.372  0.00  0.00    -0.275 OA
ATOM     17  H   UNL     1     -11.007  -6.189   1.312  0.00  0.00    +0.149 HD
BRANCH  15  18
ATOM     18  C   UNL     1     -13.071  -6.781   2.827  0.00  0.00    +0.075 C 
ATOM     19  C   UNL     1     -14.240  -5.820   3.056  0.00  0.00    +0.013 C 
ATOM     20  C   UNL     1     -14.064  -7.041   3.962  0.00  0.00    +0.013 C 
ENDBRANCH  15  18
ENDBRANCH  13  14
ENDBRANCH   1  13
BRANCH  10  21
ATOM     21  C   UNL     1      -6.218   0.370   1.746  0.00  0.00    -0.043 C 
BRANCH  21  22
ATOM     22  C   UNL     1      -4.751   0.685   1.604  0.00  0.00    -0.064 A 
ATOM     23  C   UNL     1      -4.157   0.656   0.356  0.00  0.00    +0.003 A 
ATOM     24  C   UNL     1      -2.813   0.945   0.223  0.00  0.00    +0.023 A 
ATOM     25  C   UNL     1      -2.058   1.265   1.345  0.00  0.00    +0.034 A 
ATOM     26  C   UNL     1      -2.657   1.288   2.598  0.00  0.00    +0.023 A 
ATOM     27  C   UNL     1      -4.003   1.004   2.723  0.00  0.00    +0.003 A 
BRANCH  25  28
ATOM     28  N   UNL     1      -0.698   1.558   1.213  0.00  0.00    -0.303 N 
ATOM     29  C   UNL     1      -0.093   1.647  -0.118  0.00  0.00    +0.135 C 
BRANCH  28  30
ATOM     30  C   UNL     1       0.084   1.766   2.352  0.00  0.00    +0.034 A 
ATOM     31  C   UNL     1       0.231   3.047   2.871  0.00  0.00    +0.023 A 
ATOM     32  C   UNL     1       1.001   3.248   4.000  0.00  0.00    +0.002 A 
ATOM     33  C   UNL     1       1.634   2.179   4.607  0.00  0.00    +0.000 A 
ATOM     34  C   UNL     1       1.495   0.904   4.089  0.00  0.00    +0.002 A 
ATOM     35  C   UNL     1       0.722   0.695   2.964  0.00  0.00    +0.023 A 
ENDBRANCH  28  30
ENDBRANCH  25  28
ENDBRANCH  21  22
ENDBRANCH  10  21
TORSDOF 7
