REMARK  Name = ZINC43209389
REMARK  8 active torsions:
REMARK  status: ('A' for Active; 'I' for Inactive)
REMARK    1  A    between atoms: C_1  and  C_2
REMARK    2  A    between atoms: C_2  and  C_34
REMARK    3  A    between atoms: C_7  and  C_10
REMARK    4  A    between atoms: C_15  and  O_16
REMARK    5  A    between atoms: O_16  and  C_17
REMARK    6  A    between atoms: N_21  and  C_24
REMARK    7  A    between atoms: C_24  and  C_25
REMARK    8  A    between atoms: C_28  and  N_31
REMARK                            x       y       z     vdW  Elec       q    Type
REMARK                         _______ _______ _______ _____ _____    ______ ____
ROOT
ATOM      1  C   UNL     1      -0.045   1.489  -0.003  0.00  0.00    +0.002 C 
ATOM      2  C   UNL     1       0.017  -0.039  -0.052  0.00  0.00    +0.045 C 
ATOM      3  C   UNL     1       0.855  -0.504  -1.262  0.00  0.00    +0.086 C 
ATOM      4  C   UNL     1       2.284  -0.722  -0.697  0.00  0.00    +0.077 C 
ATOM      5  C   UNL     1       2.179  -0.352   0.798  0.00  0.00    -0.023 C 
ATOM      6  N   UNL     1       0.741  -0.566   1.133  0.00  0.00    +0.395 N 
ATOM      7  C   UNL     1       2.494  -2.212  -0.842  0.00  0.00    +0.225 C 
ATOM      8  O   UNL     1       3.494  -2.814  -0.516  0.00  0.00    -0.275 OA
ATOM      9  N   UNL     1       1.402  -2.764  -1.385  0.00  0.00    -0.237 N 
ATOM     10  C   UNL     1       0.409  -1.890  -1.672  0.00  0.00    +0.225 C 
ATOM     11  O   UNL     1      -0.661  -2.163  -2.170  0.00  0.00    -0.275 OA
ATOM     12  H   UNL     1       0.494  -0.042   1.959  0.00  0.00    -0.083 HD
ATOM     13  H   UNL     1       0.541  -1.546   1.262  0.00  0.00    -0.083 HD
ENDROOT
BRANCH   5  14
ATOM     14  C   UNL     1       3.040  -1.270   1.627  0.00  0.00    -0.018 A 
ATOM     15  C   UNL     1       2.462  -2.299   2.345  0.00  0.00    +0.021 A 
ATOM     16  C   UNL     1       3.251  -3.141   3.107  0.00  0.00    +0.018 A 
ATOM     17  C   UNL     1       4.622  -2.956   3.151  0.00  0.00    +0.019 A 
ATOM     18  C   UNL     1       5.204  -1.929   2.434  0.00  0.00    +0.047 A 
ATOM     19  C   UNL     1       4.414  -1.086   1.666  0.00  0.00    +0.122 A 
ATOM     20 BR   UNL     1       2.457  -4.548   4.089  0.00  0.00    -0.050 Br
BRANCH  19  21
ATOM     21  O   UNL     1       4.986  -0.077   0.956  0.00  0.00    -0.495 OA
ATOM     22  C   UNL     1       6.406   0.053   1.042  0.00  0.00    +0.277 C 
ENDBRANCH  19  21
ENDBRANCH   5  14
BRANCH   2  23
ATOM     23  C   UNL     1      -1.372  -0.618  -0.119  0.00  0.00    +0.346 C 
ATOM     24  O   UNL     1      -2.102  -0.344  -1.056  0.00  0.00    -0.248 OA
ATOM     25  O   UNL     1      -1.767  -1.360   0.765  0.00  0.00    -0.248 OA
ENDBRANCH   2  23
BRANCH   9  26
ATOM     26  C   UNL     1       1.291  -4.199  -1.657  0.00  0.00    +0.151 C 
BRANCH  26  27
ATOM     27  C   UNL     1       0.709  -4.894  -0.453  0.00  0.00    -0.029 A 
ATOM     28  C   UNL     1       1.544  -5.376   0.538  0.00  0.00    +0.007 A 
ATOM     29  C   UNL     1       1.010  -6.014   1.642  0.00  0.00    +0.033 A 
ATOM     30  C   UNL     1      -0.359  -6.170   1.756  0.00  0.00    +0.126 A 
ATOM     31  C   UNL     1      -1.194  -5.687   0.765  0.00  0.00    +0.033 A 
ATOM     32  C   UNL     1      -0.660  -5.045  -0.337  0.00  0.00    +0.007 A 
BRANCH  30  33
ATOM     33  N   UNL     1      -0.930  -6.853   2.938  0.00  0.00    +0.056 N 
ATOM     34  O   UNL     1      -0.200  -7.276   3.804  0.00  0.00    -0.126 OA
ATOM     35  O   UNL     1      -2.127  -6.989   3.037  0.00  0.00    -0.126 OA
ENDBRANCH  30  33
ENDBRANCH  26  27
ENDBRANCH   9  26
TORSDOF 6
