REMARK  Name = ZINC35453608
REMARK  3 active torsions:
REMARK  status: ('A' for Active; 'I' for Inactive)
REMARK    1  A    between atoms: C_4  and  S_7
REMARK    2  A    between atoms: S_7  and  C_8
REMARK    3  A    between atoms: C_13  and  N_14
REMARK                            x       y       z     vdW  Elec       q    Type
REMARK                         _______ _______ _______ _____ _____    ______ ____
ROOT
ATOM      1  C   UNL     1       3.486  -2.561  -0.084  0.00  0.00    +0.038 A 
ATOM      2  C   UNL     1       2.174  -3.005  -0.176  0.00  0.00    +0.044 A 
ATOM      3  C   UNL     1       1.907  -4.363  -0.212  0.00  0.00    +0.077 A 
ATOM      4  C   UNL     1       2.952  -5.284  -0.155  0.00  0.00    +0.144 A 
ATOM      5  C   UNL     1       4.261  -4.842  -0.065  0.00  0.00    +0.071 A 
ATOM      6  C   UNL     1       4.531  -3.482  -0.034  0.00  0.00    +0.042 A 
ATOM      7  O   UNL     1       2.673  -6.616  -0.189  0.00  0.00    -0.481 OA
ATOM      8  C   UNL     1       1.449  -7.031   0.422  0.00  0.00    +0.325 C 
ATOM      9  C   UNL     1       0.328  -6.126  -0.022  0.00  0.00    +0.255 C 
ATOM     10  O   UNL     1      -0.800  -6.559  -0.124  0.00  0.00    -0.272 OA
ATOM     11  N   UNL     1       0.586  -4.830  -0.305  0.00  0.00    -0.280 N 
ATOM     12  H   UNL     1      -0.130  -4.232  -0.569  0.00  0.00    +0.155 HD
ENDROOT
BRANCH   6  13
ATOM     13  N   UNL     1       5.856  -3.033   0.052  0.00  0.00    -0.357 N 
ATOM     14  H   UNL     1       6.045  -2.082   0.077  0.00  0.00    +0.142 HD
ATOM     15  H   UNL     1       6.584  -3.673   0.087  0.00  0.00    +0.142 HD
ENDBRANCH   6  13
BRANCH   1  16
ATOM     16  S   UNL     1       3.830  -0.833  -0.039  0.00  0.00    -0.048 S 
BRANCH  16  20
ATOM     17  C   UNL     1       4.795  -0.042   4.221  0.00  0.00    +0.039 A 
ATOM     18  C   UNL     1       4.918   0.959   3.270  0.00  0.00    +0.115 A 
ATOM     19  N   UNL     1       4.623   0.690   2.009  0.00  0.00    -0.230 NA
ATOM     20  C   UNL     1       4.213  -0.519   1.652  0.00  0.00    +0.193 A 
ATOM     21  N   UNL     1       4.084  -1.497   2.537  0.00  0.00    -0.230 NA
ATOM     22  C   UNL     1       4.363  -1.295   3.814  0.00  0.00    +0.115 A 
ENDBRANCH  16  20
ENDBRANCH   1  16
TORSDOF 3
