REMARK  Name = ZINC31950513
REMARK  6 active torsions:
REMARK  status: ('A' for Active; 'I' for Inactive)
REMARK    1  A    between atoms: C_1  and  C_2
REMARK    2  A    between atoms: N_10  and  C_13
REMARK    3  A    between atoms: C_13  and  C_14
REMARK    4  A    between atoms: C_14  and  C_15
REMARK    5  A    between atoms: C_15  and  C_16
REMARK    6  A    between atoms: N_18  and  C_19
REMARK                            x       y       z     vdW  Elec       q    Type
REMARK                         _______ _______ _______ _____ _____    ______ ____
ROOT
ATOM      1  C   UNL     1       0.001   1.104   0.008  0.00  0.00    +0.029 C 
ENDROOT
BRANCH   1   2
ATOM      2  C   UNL     1      -0.732   1.620  -1.232  0.00  0.00    +0.117 C 
BRANCH   2  12
ATOM      3  C   UNL     1       1.906  -1.917  -7.287  0.00  0.00    +0.044 C 
ATOM      4  C   UNL     1       1.717  -0.883  -6.207  0.00  0.00    -0.050 A 
ATOM      5  C   UNL     1       2.505   0.253  -6.199  0.00  0.00    +0.004 A 
ATOM      6  C   UNL     1       2.343   1.213  -5.213  0.00  0.00    +0.014 A 
ATOM      7  C   UNL     1       1.385   1.032  -4.228  0.00  0.00    +0.049 A 
ATOM      8  C   UNL     1       0.582  -0.127  -4.236  0.00  0.00    +0.050 A 
ATOM      9  C   UNL     1       0.755  -1.078  -5.229  0.00  0.00    +0.017 A 
ATOM     10  C   UNL     1      -0.317  -0.004  -3.069  0.00  0.00    +0.254 C 
ATOM     11  O   UNL     1      -1.161  -0.812  -2.736  0.00  0.00    -0.270 OA
ATOM     12  N   UNL     1      -0.043   1.151  -2.437  0.00  0.00    -0.234 N 
ATOM     13  C   UNL     1       0.943   1.822  -3.060  0.00  0.00    +0.254 C 
ATOM     14  O   UNL     1       1.395   2.896  -2.718  0.00  0.00    -0.270 OA
ENDBRANCH   2  12
ENDBRANCH   1   2
BRANCH   1  15
ATOM     15  C   UNL     1      -0.718   1.593   1.267  0.00  0.00    +0.097 C 
BRANCH  15  16
ATOM     16  C   UNL     1       0.004   1.085   2.488  0.00  0.00    +0.217 C 
ATOM     17  O   UNL     1       0.996   0.398   2.364  0.00  0.00    -0.275 OA
ATOM     18  N   UNL     1      -0.453   1.393   3.718  0.00  0.00    -0.285 N 
ATOM     19  H   UNL     1      -1.308   2.075   3.832  0.00  0.00    +0.155 HD
BRANCH  18  20
ATOM     20  C   UNL     1       0.161   0.844   4.850  0.00  0.00    +0.049 A 
ATOM     21  C   UNL     1       1.531   0.620   4.859  0.00  0.00    +0.039 A 
ATOM     22  C   UNL     1       2.134   0.082   5.980  0.00  0.00    +0.020 A 
ATOM     23  C   UNL     1       1.373  -0.241   7.089  0.00  0.00    +0.016 A 
ATOM     24  C   UNL     1       0.008  -0.024   7.082  0.00  0.00    +0.018 A 
ATOM     25  C   UNL     1      -0.601   0.518   5.965  0.00  0.00    +0.039 A 
ATOM     26 BR   UNL     1      -2.469   0.815   5.956  0.00  0.00    -0.048 Br
ATOM     27 BR   UNL     1       4.001  -0.217   5.995  0.00  0.00    -0.050 Br
ENDBRANCH  18  20
ENDBRANCH  15  16
ENDBRANCH   1  15
TORSDOF 5
