REMARK  Name = ZINC34756196
REMARK  7 active torsions:
REMARK  status: ('A' for Active; 'I' for Inactive)
REMARK    1  A    between atoms: C_1  and  C_2
REMARK    2  A    between atoms: C_2  and  C_3
REMARK    3  A    between atoms: C_2  and  C_4
REMARK    4  A    between atoms: C_4  and  S_5
REMARK    5  A    between atoms: S_5  and  C_6
REMARK    6  A    between atoms: N_22  and  C_25
REMARK    7  A    between atoms: C_25  and  C_26
REMARK                            x       y       z     vdW  Elec       q    Type
REMARK                         _______ _______ _______ _____ _____    ______ ____
ROOT
ATOM      1  C   UNL     1      -4.299  -2.435  -1.228  0.00  0.00    +0.191 A 
ATOM      2  N   UNL     1      -4.595  -3.729  -1.284  0.00  0.00    -0.206 NA
ATOM      3  C   UNL     1      -4.713  -4.470  -0.195  0.00  0.00    +0.134 A 
ATOM      4  C   UNL     1      -4.518  -3.869   1.080  0.00  0.00    +0.051 A 
ATOM      5  C   UNL     1      -4.600  -4.488   2.405  0.00  0.00    -0.025 A 
ATOM      6  C   UNL     1      -4.369  -3.691   3.468  0.00  0.00    -0.004 A 
ATOM      7  S   UNL     1      -4.034  -2.091   2.782  0.00  0.00    -0.073 S 
ATOM      8  C   UNL     1      -4.206  -2.495   1.063  0.00  0.00    +0.115 A 
ATOM      9  N   UNL     1      -4.101  -1.824  -0.068  0.00  0.00    -0.215 NA
ATOM     10  C   UNL     1      -4.393  -4.078   4.915  0.00  0.00    +0.043 C 
ATOM     11  C   UNL     1      -5.086  -5.442   5.041  0.00  0.00    +0.005 C 
ATOM     12  C   UNL     1      -4.491  -6.393   3.998  0.00  0.00    +0.005 C 
ATOM     13  C   UNL     1      -4.929  -5.966   2.597  0.00  0.00    +0.037 C 
ATOM     14  N   UNL     1      -5.024  -5.814  -0.295  0.00  0.00    -0.318 N 
ATOM     15  C   UNL     1      -6.414  -6.280  -0.176  0.00  0.00    +0.088 C 
ATOM     16  C   UNL     1      -6.723  -7.194  -1.366  0.00  0.00    -0.059 C 
ATOM     17  N   UNL     1      -5.726  -8.271  -1.427  0.00  0.00    +0.387 N 
ATOM     18  C   UNL     1      -4.397  -7.707  -1.697  0.00  0.00    -0.059 C 
ATOM     19  C   UNL     1      -3.974  -6.817  -0.529  0.00  0.00    +0.088 C 
ATOM     20  H   UNL     1      -5.709  -8.762  -0.546  0.00  0.00    -0.081 HD
ENDROOT
BRANCH   1  21
ATOM     21  S   UNL     1      -4.159  -1.515  -2.724  0.00  0.00    -0.086 S 
BRANCH  21  22
ATOM     22  C   UNL     1      -3.744   0.162  -2.171  0.00  0.00    +0.080 C 
BRANCH  22  24
ATOM     23  C   UNL     1      -3.365   2.515  -2.919  0.00  0.00    +0.008 C 
ATOM     24  C   UNL     1      -3.592   1.077  -3.388  0.00  0.00    -0.007 C 
ATOM     25  C   UNL     1      -2.395   0.619  -4.224  0.00  0.00    +0.008 C 
ENDBRANCH  22  24
ENDBRANCH  21  22
ENDBRANCH   1  21
BRANCH  17  26
ATOM     26  C   UNL     1      -6.085  -9.208  -2.500  0.00  0.00    +0.019 C 
BRANCH  26  27
ATOM     27  C   UNL     1      -5.134 -10.377  -2.485  0.00  0.00    +0.199 C 
ATOM     28  O   UNL     1      -4.245 -10.424  -1.662  0.00  0.00    -0.278 OA
ATOM     29  N   UNL     1      -5.272 -11.369  -3.386  0.00  0.00    -0.303 N 
ATOM     30  C   UNL     1      -6.341 -11.323  -4.393  0.00  0.00    +0.107 C 
ATOM     31  C   UNL     1      -5.718 -11.495  -5.782  0.00  0.00    +0.019 C 
ATOM     32  C   UNL     1      -4.886 -12.779  -5.808  0.00  0.00    +0.003 C 
ATOM     33  C   UNL     1      -3.755 -12.677  -4.781  0.00  0.00    +0.019 C 
ATOM     34  C   UNL     1      -4.353 -12.515  -3.385  0.00  0.00    +0.107 C 
ENDBRANCH  26  27
ENDBRANCH  17  26
TORSDOF 5
