REMARK  Name = ZINC09634521
REMARK  15 active torsions:
REMARK  status: ('A' for Active; 'I' for Inactive)
REMARK    1  A    between atoms: C_1  and  C_2
REMARK    2  A    between atoms: C_4  and  C_14
REMARK    3  A    between atoms: C_5  and  C_13
REMARK    4  A    between atoms: C_9  and  C_12
REMARK    5  A    between atoms: C_14  and  C_16
REMARK    6  A    between atoms: C_16  and  O_17
REMARK    7  A    between atoms: O_17  and  C_18
REMARK    8  A    between atoms: C_18  and  C_20
REMARK    9  A    between atoms: C_20  and  C_22
REMARK   10  A    between atoms: C_20  and  N_25
REMARK   11  A    between atoms: C_22  and  C_23
REMARK   12  A    between atoms: C_22  and  C_24
REMARK   13  A    between atoms: N_25  and  S_26
REMARK   14  A    between atoms: S_26  and  C_29
REMARK   15  A    between atoms: C_30  and  C_31
REMARK                            x       y       z     vdW  Elec       q    Type
REMARK                         _______ _______ _______ _____ _____    ______ ____
ROOT
ATOM      1  C   UNL     1       2.737  -0.199   3.084  0.00  0.00    +0.327 C 
ATOM      2  O   UNL     1       2.152   0.695   3.649  0.00  0.00    -0.249 OA
ENDROOT
BRANCH   1   3
ATOM      3  O   UNL     1       3.053  -1.320   3.750  0.00  0.00    -0.455 OA
BRANCH   3   4
ATOM      4  C   UNL     1       2.660  -1.391   5.146  0.00  0.00    +0.311 C 
BRANCH   4   5
ATOM      5  C   UNL     1       3.095  -2.713   5.725  0.00  0.00    +0.202 C 
ATOM      6  O   UNL     1       3.679  -3.517   5.029  0.00  0.00    -0.288 OA
BRANCH   5  10
ATOM      7  C   UNL     1       1.476  -2.382  10.545  0.00  0.00    +0.064 C 
ATOM      8  C   UNL     1       2.090  -2.863   9.255  0.00  0.00    +0.023 A 
ATOM      9  C   UNL     1       2.127  -2.171   8.105  0.00  0.00    +0.034 A 
ATOM     10  C   UNL     1       2.813  -3.027   7.127  0.00  0.00    +0.042 A 
ATOM     11  C   UNL     1       3.143  -4.186   7.803  0.00  0.00    +0.033 A 
ATOM     12  N   UNL     1       2.704  -4.071   9.072  0.00  0.00    -0.299 N 
ATOM     13  C   UNL     1       2.855  -5.049  10.061  0.00  0.00    +0.181 A 
ATOM     14  C   UNL     1       3.319  -4.853  11.389  0.00  0.00    +0.094 A 
ATOM     15  C   UNL     1       3.280  -6.091  11.933  0.00  0.00    +0.136 A 
ATOM     16  O   UNL     1       2.828  -6.915  10.978  0.00  0.00    -0.358 OA
ATOM     17  N   UNL     1       2.593  -6.324   9.950  0.00  0.00    -0.060 NA
ATOM     18  C   UNL     1       3.670  -6.468  13.339  0.00  0.00    +0.089 C 
ATOM     19  C   UNL     1       3.868  -5.372   7.222  0.00  0.00    +0.064 C 
ENDBRANCH   5  10
ENDBRANCH   4   5
ENDBRANCH   3   4
ENDBRANCH   1   3
BRANCH   1  20
ATOM     20  C   UNL     1       3.112  -0.054   1.632  0.00  0.00    +0.187 C 
BRANCH  20  21
ATOM     21  C   UNL     1       4.632  -0.155   1.486  0.00  0.00    +0.012 C 
ATOM     22  C   UNL     1       5.303   0.859   2.414  0.00  0.00    +0.009 C 
ATOM     23  C   UNL     1       5.087  -1.568   1.858  0.00  0.00    +0.009 C 
ENDBRANCH  20  21
BRANCH  20  24
ATOM     24  N   UNL     1       2.660   1.249   1.138  0.00  0.00    -0.176 NA
ATOM     25  H   UNL     1       2.690   2.025   1.720  0.00  0.00    +0.149 HD
BRANCH  24  26
ATOM     26  S   UNL     1       2.098   1.398  -0.412  0.00  0.00    +0.052 S 
ATOM     27  O   UNL     1       3.056   0.770  -1.253  0.00  0.00    -0.154 OA
ATOM     28  O   UNL     1       1.714   2.756  -0.577  0.00  0.00    -0.154 OA
BRANCH  26  29
ATOM     29  C   UNL     1       0.624   0.440  -0.526  0.00  0.00    +0.153 C 
ATOM     30  C   UNL     1      -0.538   1.036  -0.757  0.00  0.00    +0.028 C 
BRANCH  30  31
ATOM     31  C   UNL     1      -1.774   0.231  -0.859  0.00  0.00    -0.024 A 
ATOM     32  C   UNL     1      -1.720  -1.156  -0.717  0.00  0.00    +0.008 A 
ATOM     33  C   UNL     1      -2.879  -1.900  -0.807  0.00  0.00    +0.001 A 
ATOM     34  C   UNL     1      -4.089  -1.276  -1.049  0.00  0.00    +0.000 A 
ATOM     35  C   UNL     1      -4.148   0.099  -1.196  0.00  0.00    +0.001 A 
ATOM     36  C   UNL     1      -2.998   0.855  -1.102  0.00  0.00    +0.008 A 
ENDBRANCH  30  31
ENDBRANCH  26  29
ENDBRANCH  24  26
ENDBRANCH  20  24
ENDBRANCH   1  20
TORSDOF 10
