REMARK  Name = ZINC64678417
REMARK  7 active torsions:
REMARK  status: ('A' for Active; 'I' for Inactive)
REMARK    1  A    between atoms: C_1  and  C_2
REMARK    2  A    between atoms: C_7  and  C_12
REMARK    3  A    between atoms: C_15  and  C_18
REMARK    4  A    between atoms: C_18  and  C_19
REMARK    5  A    between atoms: C_19  and  N_20
REMARK    6  A    between atoms: N_20  and  C_21
REMARK    7  A    between atoms: C_22  and  C_24
REMARK                            x       y       z     vdW  Elec       q    Type
REMARK                         _______ _______ _______ _____ _____    ______ ____
ROOT
ATOM      1  C   UNL     1      -0.756  -5.434   1.497  0.00  0.00    +0.318 C 
ATOM      2  N   UNL     1      -0.613  -6.824   1.034  0.00  0.00    -0.291 N 
ATOM      3  C   UNL     1      -0.876  -7.632   2.115  0.00  0.00    +0.139 C 
ATOM      4  N   UNL     1      -1.157  -6.944   3.161  0.00  0.00    -0.072 NA
ATOM      5  O   UNL     1      -1.112  -5.554   2.883  0.00  0.00    -0.367 OA
ATOM      6  H   UNL     1      -0.378  -7.113   0.139  0.00  0.00    +0.151 HD
ENDROOT
BRANCH   1  13
ATOM      7  C   UNL     1       1.042   0.974  -0.860  0.00  0.00    +0.044 C 
ATOM      8  C   UNL     1       1.020  -0.520  -0.661  0.00  0.00    -0.050 A 
ATOM      9  C   UNL     1       1.327  -1.357  -1.742  0.00  0.00    +0.005 A 
ATOM     10  C   UNL     1       1.329  -2.703  -1.645  0.00  0.00    +0.026 A 
ATOM     11  C   UNL     1       1.011  -3.335  -0.410  0.00  0.00    +0.043 A 
ATOM     12  N   UNL     1       0.945  -4.598  -0.068  0.00  0.00    -0.373 N 
ATOM     13  C   UNL     1       0.567  -4.681   1.347  0.00  0.00    +0.165 C 
ATOM     14  C   UNL     1       0.412  -3.252   1.819  0.00  0.00    +0.012 C 
ATOM     15  C   UNL     1       0.683  -2.472   0.747  0.00  0.00    -0.004 A 
ATOM     16  C   UNL     1       0.710  -1.017   0.558  0.00  0.00    +0.013 A 
ATOM     17  H   UNL     1       1.116  -5.353  -0.653  0.00  0.00    +0.160 HD
ENDBRANCH   1  13
BRANCH   3  18
ATOM     18  C   UNL     1      -0.840  -9.138   2.075  0.00  0.00    +0.094 C 
BRANCH  18  19
ATOM     19  C   UNL     1      -1.186  -9.693   3.459  0.00  0.00    +0.115 C 
BRANCH  19  20
ATOM     20  N   UNL     1      -1.151 -11.157   3.421  0.00  0.00    -0.300 N 
ATOM     21  C   UNL     1       0.096 -11.867   3.717  0.00  0.00    +0.132 C 
ATOM     22  C   UNL     1      -2.265 -11.850   3.113  0.00  0.00    +0.247 C 
ATOM     23  O   UNL     1      -3.273 -11.261   2.774  0.00  0.00    -0.270 OA
BRANCH  22  24
ATOM     24  C   UNL     1      -2.261 -13.326   3.188  0.00  0.00    +0.051 A 
ATOM     25  C   UNL     1      -1.696 -13.971   4.290  0.00  0.00    +0.014 A 
ATOM     26  C   UNL     1      -1.696 -15.348   4.354  0.00  0.00    +0.001 A 
ATOM     27  C   UNL     1      -2.255 -16.092   3.329  0.00  0.00    +0.001 A 
ATOM     28  C   UNL     1      -2.817 -15.461   2.234  0.00  0.00    +0.016 A 
ATOM     29  C   UNL     1      -2.829 -14.082   2.160  0.00  0.00    +0.030 A 
ATOM     30 BR   UNL     1      -3.605 -13.220   0.667  0.00  0.00    -0.050 Br
ENDBRANCH  22  24
ENDBRANCH  19  20
ENDBRANCH  18  19
ENDBRANCH   3  18
TORSDOF 5
