REMARK  Name = ZINC08957102
REMARK  9 active torsions:
REMARK  status: ('A' for Active; 'I' for Inactive)
REMARK    1  A    between atoms: C_1  and  C_2
REMARK    2  A    between atoms: N_8  and  C_33
REMARK    3  A    between atoms: N_10  and  C_11
REMARK    4  A    between atoms: C_11  and  C_13
REMARK    5  A    between atoms: C_16  and  S_19
REMARK    6  A    between atoms: S_19  and  N_22
REMARK    7  A    between atoms: C_24  and  C_31
REMARK    8  A    between atoms: C_27  and  C_30
REMARK    9  A    between atoms: C_33  and  C_34
REMARK                            x       y       z     vdW  Elec       q    Type
REMARK                         _______ _______ _______ _____ _____    ______ ____
ROOT
ATOM      1  C   UNL     1      -1.044  -1.635  -5.657  0.00  0.00    +0.269 C 
ATOM      2  O   UNL     1      -1.170  -2.811  -5.366  0.00  0.00    -0.268 OA
ENDROOT
BRANCH   1  12
ATOM      3  C   UNL     1      -0.037   1.189   0.222  0.00  0.00    +0.047 C 
ATOM      4  C   UNL     1      -0.242  -0.303   0.162  0.00  0.00    -0.008 A 
ATOM      5  C   UNL     1      -0.215  -1.040   1.323  0.00  0.00    +0.046 A 
ATOM      6  C   UNL     1      -0.400  -2.413   1.306  0.00  0.00    +0.021 A 
ATOM      7  C   UNL     1      -0.616  -3.051   0.097  0.00  0.00    +0.018 A 
ATOM      8  C   UNL     1      -0.643  -2.315  -1.063  0.00  0.00    +0.039 A 
ATOM      9  C   UNL     1      -0.464  -0.924  -1.077  0.00  0.00    +0.062 A 
ATOM     10  N   UNL     1      -0.515  -0.342  -2.330  0.00  0.00    -0.317 N 
ATOM     11  C   UNL     1      -0.736  -1.112  -3.430  0.00  0.00    +0.167 A 
ATOM     12  N   UNL     1      -0.821  -0.729  -4.700  0.00  0.00    -0.152 NA
ATOM     13  S   UNL     1      -0.879  -2.712  -2.777  0.00  0.00    -0.052 S 
ATOM     14 CL   UNL     1       0.055  -0.236   2.838  0.00  0.00    -0.083 Cl
BRANCH  10  15
ATOM     15  C   UNL     1      -0.338   1.105  -2.473  0.00  0.00    +0.151 C 
BRANCH  15  16
ATOM     16  C   UNL     1      -1.687   1.777  -2.489  0.00  0.00    -0.013 C 
ATOM     17  C   UNL     1      -1.923   2.791  -1.694  0.00  0.00    +0.005 C 
ENDBRANCH  15  16
ENDBRANCH  10  15
ENDBRANCH   1  12
BRANCH   1  18
ATOM     18  C   UNL     1      -1.138  -1.208  -7.073  0.00  0.00    +0.039 A 
ATOM     19  C   UNL     1      -1.000   0.139  -7.409  0.00  0.00    +0.015 A 
ATOM     20  C   UNL     1      -1.084   0.529  -8.730  0.00  0.00    +0.029 A 
ATOM     21  C   UNL     1      -1.316  -0.410  -9.718  0.00  0.00    +0.106 A 
ATOM     22  C   UNL     1      -1.458  -1.747  -9.391  0.00  0.00    +0.029 A 
ATOM     23  C   UNL     1      -1.371  -2.151  -8.074  0.00  0.00    +0.015 A 
BRANCH  21  24
ATOM     24  S   UNL     1      -1.428   0.097 -11.402  0.00  0.00    +0.061 S 
ATOM     25  O   UNL     1      -0.718   1.323 -11.505  0.00  0.00    -0.153 OA
ATOM     26  O   UNL     1      -1.105  -1.040 -12.191  0.00  0.00    -0.153 OA
BRANCH  24  27
ATOM     27  N   UNL     1      -3.019   0.445 -11.703  0.00  0.00    -0.172 NA
ATOM     28  C   UNL     1      -3.942  -0.591 -12.194  0.00  0.00    +0.140 C 
ATOM     29  C   UNL     1      -5.193  -0.580 -11.301  0.00  0.00    +0.131 C 
ATOM     30  O   UNL     1      -5.711   0.750 -11.236  0.00  0.00    -0.371 OA
ATOM     31  C   UNL     1      -4.820   1.696 -10.640  0.00  0.00    +0.131 C 
ATOM     32  C   UNL     1      -3.550   1.801 -11.493  0.00  0.00    +0.140 C 
ATOM     33  C   UNL     1      -4.450   1.232  -9.229  0.00  0.00    +0.039 C 
ATOM     34  C   UNL     1      -6.251  -1.512 -11.897  0.00  0.00    +0.039 C 
ENDBRANCH  24  27
ENDBRANCH  21  24
ENDBRANCH   1  18
TORSDOF 6
