REMARK  Name = ZINC35430557
REMARK  8 active torsions:
REMARK  status: ('A' for Active; 'I' for Inactive)
REMARK    1  A    between atoms: C_1  and  C_2
REMARK    2  A    between atoms: C_2  and  C_3
REMARK    3  A    between atoms: C_2  and  C_4
REMARK    4  A    between atoms: C_2  and  C_5
REMARK    5  A    between atoms: C_8  and  O_11
REMARK    6  A    between atoms: O_11  and  C_12
REMARK    7  A    between atoms: C_13  and  C_20
REMARK    8  A    between atoms: C_20  and  N_21
REMARK                            x       y       z     vdW  Elec       q    Type
REMARK                         _______ _______ _______ _____ _____    ______ ____
ROOT
ATOM      1  C   UNL     1       1.974  -2.684  -5.447  0.00  0.00    +0.241 A 
ATOM      2  C   UNL     1       2.486  -3.293  -6.535  0.00  0.00    +0.070 A 
ATOM      3  N   UNL     1       1.480  -4.091  -7.085  0.00  0.00    -0.296 N 
ATOM      4  C   UNL     1       1.315  -4.947  -8.151  0.00  0.00    +0.100 A 
ATOM      5  C   UNL     1       0.149  -5.557  -8.363  0.00  0.00    +0.067 A 
ATOM      6  S   UNL     1      -0.841  -4.938  -7.011  0.00  0.00    -0.058 S 
ATOM      7  C   UNL     1       0.399  -3.904  -6.266  0.00  0.00    +0.181 A 
ATOM      8  N   UNL     1       0.699  -3.079  -5.303  0.00  0.00    -0.186 NA
ENDROOT
BRANCH   1   9
ATOM      9  O   UNL     1       2.639  -1.821  -4.632  0.00  0.00    -0.436 OA
BRANCH   9  13
ATOM     10  C   UNL     1       0.707  -0.489  -1.238  0.00  0.00    -0.042 A 
ATOM     11  C   UNL     1       0.129  -1.472  -2.021  0.00  0.00    +0.008 A 
ATOM     12  C   UNL     1       0.773  -1.919  -3.158  0.00  0.00    +0.046 A 
ATOM     13  C   UNL     1       2.002  -1.382  -3.514  0.00  0.00    +0.130 A 
ATOM     14  C   UNL     1       2.580  -0.397  -2.727  0.00  0.00    +0.046 A 
ATOM     15  C   UNL     1       1.929   0.051  -1.594  0.00  0.00    +0.008 A 
BRANCH  10  17
ATOM     16  C   UNL     1      -0.279   1.496  -0.126  0.00  0.00    +0.015 C 
ATOM     17  C   UNL     1       0.002  -0.003   0.002  0.00  0.00    -0.013 C 
ATOM     18  C   UNL     1       0.888  -0.253   1.224  0.00  0.00    +0.015 C 
ATOM     19  C   UNL     1      -1.319  -0.758   0.166  0.00  0.00    +0.015 C 
ENDBRANCH  10  17
ENDBRANCH   9  13
ENDBRANCH   1   9
BRANCH   2  20
ATOM     20  C   UNL     1       3.889  -3.140  -7.064  0.00  0.00    -0.026 C 
BRANCH  20  21
ATOM     21  N   UNL     1       3.932  -2.029  -8.024  0.00  0.00    +0.382 N 
ATOM     22  H   UNL     1       3.651  -1.176  -7.564  0.00  0.00    -0.090 HD
ATOM     23  H   UNL     1       4.871  -1.926  -8.378  0.00  0.00    -0.090 HD
ATOM     24  H   UNL     1       3.303  -2.220  -8.789  0.00  0.00    -0.090 HD
ENDBRANCH  20  21
ENDBRANCH   2  20
TORSDOF 5
