REMARK  Name = ZINC40796570
REMARK  3 active torsions:
REMARK  status: ('A' for Active; 'I' for Inactive)
REMARK    1  A    between atoms: C_9  and  S_11
REMARK    2  A    between atoms: S_11  and  C_12
REMARK    3  A    between atoms: C_13  and  N_19
REMARK                            x       y       z     vdW  Elec       q    Type
REMARK                         _______ _______ _______ _____ _____    ______ ____
ROOT
ATOM      1  S   UNL     1       1.202  -2.456  -0.023  0.00  0.00    -0.066 S 
ENDROOT
BRANCH   1  10
ATOM      2  C   UNL     1       0.668   1.536   0.168  0.00  0.00    +0.002 A 
ATOM      3  C   UNL     1       1.933   2.042   0.153  0.00  0.00    +0.010 A 
ATOM      4  C   UNL     1       3.034   1.174   0.082  0.00  0.00    +0.001 A 
ATOM      5  C   UNL     1       4.354   1.666   0.065  0.00  0.00    +0.011 A 
ATOM      6  C   UNL     1       5.377   0.764  -0.005  0.00  0.00    +0.020 A 
ATOM      7  C   UNL     1       5.099  -0.600  -0.056  0.00  0.00    +0.111 A 
ATOM      8  N   UNL     1       3.869  -1.054  -0.040  0.00  0.00    -0.254 NA
ATOM      9  C   UNL     1       2.824  -0.226   0.027  0.00  0.00    +0.085 A 
ATOM     10  C   UNL     1       1.501  -0.721   0.044  0.00  0.00    +0.040 A 
ATOM     11  C   UNL     1       0.446   0.164   0.115  0.00  0.00    +0.017 A 
ENDBRANCH   1  10
BRANCH   1  12
ATOM     12  C   UNL     1       1.484  -2.873  -1.712  0.00  0.00    +0.129 A 
ATOM     13  C   UNL     1       1.444  -4.199  -2.120  0.00  0.00    +0.122 A 
ATOM     14  C   UNL     1       1.673  -4.488  -3.477  0.00  0.00    +0.273 A 
ATOM     15  N   UNL     1       1.923  -3.467  -4.324  0.00  0.00    -0.312 N 
ATOM     16  C   UNL     1       1.950  -2.192  -3.867  0.00  0.00    +0.200 A 
ATOM     17  N   UNL     1       1.733  -1.909  -2.612  0.00  0.00    -0.229 NA
ATOM     18  O   UNL     1       1.648  -5.640  -3.881  0.00  0.00    -0.266 OA
ATOM     19  H   UNL     1       2.084  -3.647  -5.264  0.00  0.00    +0.170 HD
BRANCH  13  20
ATOM     20  N   UNL     1       1.180  -5.229  -1.199  0.00  0.00    -0.352 N 
ATOM     21  H   UNL     1       1.023  -5.016  -0.266  0.00  0.00    +0.143 HD
ATOM     22  H   UNL     1       1.155  -6.151  -1.497  0.00  0.00    +0.143 HD
ENDBRANCH  13  20
ENDBRANCH   1  12
TORSDOF 3
