REMARK  Name = ZINC15488046
REMARK  17 active torsions:
REMARK  status: ('A' for Active; 'I' for Inactive)
REMARK    1  A    between atoms: C_1  and  C_2
REMARK    2  A    between atoms: C_2  and  C_3
REMARK    3  A    between atoms: C_3  and  C_4
REMARK    4  A    between atoms: C_4  and  N_5
REMARK    5  A    between atoms: C_6  and  N_36
REMARK    6  A    between atoms: C_7  and  N_14
REMARK    7  A    between atoms: N_14  and  C_15
REMARK    8  A    between atoms: C_15  and  C_16
REMARK    9  A    between atoms: C_17  and  C_19
REMARK   10  A    between atoms: C_19  and  N_73
REMARK   11  A    between atoms: C_20  and  N_73
REMARK   12  A    between atoms: C_21  and  C_22
REMARK   13  A    between atoms: C_21  and  N_73
REMARK   14  A    between atoms: C_31  and  O_32
REMARK   15  A    between atoms: O_32  and  C_33
REMARK   16  A    between atoms: C_33  and  C_34
REMARK   17  A    between atoms: C_34  and  C_35
REMARK                            x       y       z     vdW  Elec       q    Type
REMARK                         _______ _______ _______ _____ _____    ______ ____
ROOT
ATOM      1  N   UNL     1      -4.829   7.175   3.261  0.00  0.00    -0.266 N 
ATOM      2  C   UNL     1      -3.519   6.936   3.043  0.00  0.00    +0.203 C 
ATOM      3  O   UNL     1      -2.771   6.754   3.980  0.00  0.00    -0.277 OA
ENDROOT
BRANCH   1   6
ATOM      4  N   UNL     1      -5.840   5.906   6.559  0.00  0.00    -0.280 N 
ATOM      5  C   UNL     1      -5.327   5.933   5.283  0.00  0.00    +0.127 A 
ATOM      6  C   UNL     1      -5.347   7.115   4.572  0.00  0.00    +0.140 A 
ATOM      7  C   UNL     1      -5.889   8.263   5.180  0.00  0.00    +0.277 A 
ATOM      8  O   UNL     1      -5.916   9.323   4.577  0.00  0.00    -0.266 OA
ATOM      9  N   UNL     1      -6.384   8.182   6.431  0.00  0.00    -0.273 N 
ATOM     10  H   UNL     1      -6.777   8.995   6.860  0.00  0.00    +0.173 HD
ATOM     11  C   UNL     1      -6.355   7.021   7.108  0.00  0.00    +0.331 A 
ATOM     12  O   UNL     1      -6.804   6.977   8.237  0.00  0.00    -0.246 OA
BRANCH   5  13
ATOM     13  N   UNL     1      -4.800   4.794   4.721  0.00  0.00    -0.343 N 
ATOM     14  H   UNL     1      -4.541   4.789   3.787  0.00  0.00    +0.144 HD
ATOM     15  H   UNL     1      -4.687   3.995   5.260  0.00  0.00    +0.144 HD
ENDBRANCH   5  13
BRANCH   4  16
ATOM     16  C   UNL     1      -5.824   4.658   7.324  0.00  0.00    +0.128 C 
BRANCH  16  17
ATOM     17  C   UNL     1      -4.520   4.564   8.120  0.00  0.00    +0.021 C 
BRANCH  17  19
ATOM     18  C   UNL     1      -3.199   3.166   9.715  0.00  0.00    +0.004 C 
ATOM     19  C   UNL     1      -4.503   3.259   8.919  0.00  0.00    -0.002 C 
ENDBRANCH  17  19
ENDBRANCH  16  17
ENDBRANCH   4  16
ENDBRANCH   1   6
BRANCH   1  20
ATOM     20  C   UNL     1      -5.713   7.494   2.138  0.00  0.00    +0.110 C 
ATOM     21  C   UNL     1      -6.353   6.208   1.610  0.00  0.00    +0.025 C 
ENDBRANCH   1  20
BRANCH   2  22
ATOM     22  C   UNL     1      -2.985   6.897   1.634  0.00  0.00    +0.019 C 
BRANCH  22  24
ATOM     23  C   UNL     1      -0.808   7.734   2.285  0.00  0.00    -0.095 C 
ATOM     24  N   UNL     1      -1.538   6.600   1.680  0.00  0.00    +0.386 N 
ATOM     25  H   UNL     1      -1.388   5.762   2.255  0.00  0.00    -0.081 HD
BRANCH  24  26
ATOM     26  C   UNL     1      -1.031   6.343   0.316  0.00  0.00    -0.038 C 
BRANCH  26  27
ATOM     27  C   UNL     1       0.383   5.830   0.411  0.00  0.00    -0.015 A 
ATOM     28  C   UNL     1       0.627   4.453   0.534  0.00  0.00    -0.013 A 
ATOM     29  C   UNL     1      -0.429   3.525   0.570  0.00  0.00    +0.009 A 
ATOM     30  C   UNL     1      -0.155   2.197   0.683  0.00  0.00    +0.001 A 
ATOM     31  C   UNL     1       1.159   1.741   0.775  0.00  0.00    +0.001 A 
ATOM     32  C   UNL     1       2.207   2.609   0.744  0.00  0.00    +0.008 A 
ATOM     33  C   UNL     1       1.964   3.988   0.622  0.00  0.00    -0.017 A 
ATOM     34  C   UNL     1       3.021   4.914   0.585  0.00  0.00    +0.012 A 
ATOM     35  C   UNL     1       2.751   6.241   0.466  0.00  0.00    +0.046 A 
ATOM     36  C   UNL     1       1.433   6.702   0.379  0.00  0.00    +0.122 A 
BRANCH  36  37
ATOM     37  O   UNL     1       1.195   8.035   0.260  0.00  0.00    -0.492 OA
BRANCH  37  38
ATOM     38  C   UNL     1       2.335   8.897   0.231  0.00  0.00    +0.229 C 
BRANCH  38  39
ATOM     39  C   UNL     1       1.872  10.349   0.094  0.00  0.00    +0.038 C 
ATOM     40  C   UNL     1       3.091  11.272   0.063  0.00  0.00    +0.007 C 
ENDBRANCH  38  39
ENDBRANCH  37  38
ENDBRANCH  36  37
ENDBRANCH  26  27
ENDBRANCH  24  26
ENDBRANCH  22  24
ENDBRANCH   2  22
TORSDOF 13
