REMARK  Name = ZINC63463005
REMARK  6 active torsions:
REMARK  status: ('A' for Active; 'I' for Inactive)
REMARK    1  A    between atoms: C_1  and  C_2
REMARK    2  A    between atoms: C_2  and  C_3
REMARK    3  A    between atoms: C_3  and  N_4
REMARK    4  A    between atoms: C_12  and  O_36
REMARK    5  A    between atoms: C_13  and  C_17
REMARK    6  A    between atoms: C_23  and  C_26
REMARK                            x       y       z     vdW  Elec       q    Type
REMARK                         _______ _______ _______ _____ _____    ______ ____
ROOT
ATOM      1  C   UNL     1      -1.113  -4.695  -2.778  0.00  0.00    +0.238 C 
ATOM      2  O   UNL     1      -0.720  -5.399  -3.683  0.00  0.00    -0.274 OA
ATOM      3  N   UNL     1      -2.425  -4.407  -2.669  0.00  0.00    -0.264 N 
ATOM      4  C   UNL     1      -3.328  -4.917  -3.595  0.00  0.00    +0.165 A 
ATOM      5  N   UNL     1      -4.630  -4.740  -3.651  0.00  0.00    -0.229 NA
ATOM      6  H   UNL     1      -2.740  -3.843  -1.945  0.00  0.00    +0.157 HD
ATOM      7  C   UNL     1      -5.354  -5.299  -4.602  0.00  0.00    +0.057 A 
ATOM      8  C   UNL     1      -4.696  -6.058  -5.512  0.00  0.00    +0.072 A 
ATOM      9  S   UNL     1      -3.018  -5.906  -4.921  0.00  0.00    -0.060 S 
ENDROOT
BRANCH   1  18
ATOM     10  N   UNL     1       2.254  -3.581  -1.665  0.00  0.00    -0.294 N 
ATOM     11  C   UNL     1       2.030  -3.734  -0.224  0.00  0.00    +0.105 C 
ATOM     12  C   UNL     1       3.288  -3.564   0.583  0.00  0.00    +0.027 C 
ATOM     13  C   UNL     1       3.799  -4.888   1.147  0.00  0.00    +0.002 C 
ATOM     14  C   UNL     1       2.676  -5.510   1.990  0.00  0.00    +0.005 C 
ATOM     15  C   UNL     1       1.609  -6.032   1.027  0.00  0.00    +0.036 C 
ATOM     16  C   UNL     1       1.252  -4.984   0.034  0.00  0.00    -0.011 C 
ATOM     17  C   UNL     1       0.169  -5.189  -0.721  0.00  0.00    +0.116 C 
ATOM     18  C   UNL     1      -0.135  -4.141  -1.774  0.00  0.00    +0.226 C 
ATOM     19  C   UNL     1       1.167  -3.781  -2.466  0.00  0.00    +0.235 C 
ATOM     20  O   UNL     1       1.238  -3.679  -3.673  0.00  0.00    -0.274 OA
BRANCH  17  21
ATOM     21  O   UNL     1      -0.619  -6.280  -0.554  0.00  0.00    -0.510 OA
ATOM     22  H   UNL     1      -1.332  -6.354  -1.203  0.00  0.00    +0.292 HD
ENDBRANCH  17  21
BRANCH  10  23
ATOM     23  C   UNL     1       3.566  -3.229  -2.213  0.00  0.00    +0.108 C 
BRANCH  23  25
ATOM     24  C   UNL     1       5.115  -1.342  -2.745  0.00  0.00    +0.005 C 
ATOM     25  C   UNL     1       3.744  -1.710  -2.173  0.00  0.00    +0.016 C 
ENDBRANCH  23  25
ENDBRANCH  10  23
ENDBRANCH   1  18
BRANCH   7  26
ATOM     26  C   UNL     1      -6.847  -5.102  -4.673  0.00  0.00    +0.014 C 
ATOM     27  C   UNL     1      -7.526  -6.446  -4.942  0.00  0.00    +0.016 C 
ATOM     28  C   UNL     1      -9.041  -6.246  -5.014  0.00  0.00    -0.010 C 
ATOM     29  C   UNL     1      -9.545  -5.677  -3.686  0.00  0.00    +0.007 C 
ATOM     30  C   UNL     1      -8.865  -4.333  -3.417  0.00  0.00    -0.010 C 
ATOM     31  C   UNL     1      -7.350  -4.533  -3.345  0.00  0.00    +0.016 C 
ATOM     32  C   UNL     1      -9.198  -3.358  -4.548  0.00  0.00    +0.007 C 
ATOM     33  C   UNL     1      -8.694  -3.927  -5.877  0.00  0.00    -0.010 C 
ATOM     34  C   UNL     1      -9.374  -5.271  -6.146  0.00  0.00    +0.007 C 
ATOM     35  C   UNL     1      -7.179  -4.127  -5.804  0.00  0.00    +0.016 C 
ENDBRANCH   7  26
TORSDOF 5
