REMARK  Name = ZINC12768010
REMARK  5 active torsions:
REMARK  status: ('A' for Active; 'I' for Inactive)
REMARK    1  A    between atoms: C_3  and  S_10
REMARK    2  A    between atoms: C_6  and  C_7
REMARK    3  A    between atoms: S_10  and  N_13
REMARK    4  A    between atoms: N_16  and  C_19
REMARK    5  A    between atoms: C_19  and  C_20
REMARK                            x       y       z     vdW  Elec       q    Type
REMARK                         _______ _______ _______ _____ _____    ______ ____
ROOT
ATOM      1  N   UNL     1      -0.897   1.885  -1.312  0.00  0.00    -0.174 NA
ATOM      2  C   UNL     1      -1.887   0.982  -1.919  0.00  0.00    +0.125 C 
ATOM      3  C   UNL     1      -3.215   1.745  -2.057  0.00  0.00    +0.102 C 
ATOM      4  N   UNL     1      -2.981   2.994  -2.793  0.00  0.00    -0.296 NA
ATOM      5  C   UNL     1      -2.076   3.886  -2.056  0.00  0.00    +0.102 C 
ATOM      6  C   UNL     1      -0.706   3.213  -1.915  0.00  0.00    +0.125 C 
ENDROOT
BRANCH   1   7
ATOM      7  S   UNL     1      -0.017   1.417   0.010  0.00  0.00    +0.061 S 
ATOM      8  O   UNL     1       0.002  -0.004   0.002  0.00  0.00    -0.153 OA
ATOM      9  O   UNL     1       1.172   2.195   0.003  0.00  0.00    -0.153 OA
BRANCH   7  12
ATOM     10  C   UNL     1      -2.561   1.402   3.117  0.00  0.00    +0.015 A 
ATOM     11  C   UNL     1      -1.846   1.030   1.998  0.00  0.00    +0.029 A 
ATOM     12  C   UNL     1      -0.927   1.900   1.439  0.00  0.00    +0.106 A 
ATOM     13  C   UNL     1      -0.715   3.146   2.002  0.00  0.00    +0.029 A 
ATOM     14  C   UNL     1      -1.427   3.533   3.118  0.00  0.00    +0.015 A 
ATOM     15  C   UNL     1      -2.356   2.660   3.687  0.00  0.00    +0.037 A 
BRANCH  15  16
ATOM     16  C   UNL     1      -3.119   3.065   4.886  0.00  0.00    +0.242 C 
ATOM     17  O   UNL     1      -3.927   2.303   5.379  0.00  0.00    -0.270 OA
ATOM     18  N   UNL     1      -2.918   4.280   5.434  0.00  0.00    -0.325 N 
ATOM     19  H   UNL     1      -3.486   4.582   6.326  0.00  0.00    +0.145 HD
ATOM     20  H   UNL     1      -2.187   4.971   4.988  0.00  0.00    +0.145 HD
ENDBRANCH  15  16
ENDBRANCH   7  12
ENDBRANCH   1   7
BRANCH   4  21
ATOM     21  C   UNL     1      -4.250   3.669  -3.100  0.00  0.00    +0.119 C 
BRANCH  21  22
ATOM     22  C   UNL     1      -5.238   2.663  -3.631  0.00  0.00    -0.033 A 
ATOM     23  C   UNL     1      -5.315   2.417  -4.990  0.00  0.00    +0.008 A 
ATOM     24  C   UNL     1      -6.217   1.496  -5.481  0.00  0.00    +0.046 A 
ATOM     25  C   UNL     1      -7.067   0.815  -4.613  0.00  0.00    +0.124 A 
ATOM     26  C   UNL     1      -6.980   1.071  -3.251  0.00  0.00    -0.002 A 
ATOM     27  C   UNL     1      -6.076   1.988  -2.762  0.00  0.00    +0.012 A 
ATOM     28  C   UNL     1      -8.001   0.183  -2.566  0.00  0.00    +0.080 C 
ATOM     29  C   UNL     1      -8.335  -0.838  -3.680  0.00  0.00    +0.234 C 
ATOM     30  O   UNL     1      -8.030  -0.109  -4.881  0.00  0.00    -0.491 OA
ENDBRANCH  21  22
ENDBRANCH   4  21
TORSDOF 5
