REMARK  Name = ZINC13248074
REMARK  10 active torsions:
REMARK  status: ('A' for Active; 'I' for Inactive)
REMARK    1  A    between atoms: C_3  and  S_27
REMARK    2  A    between atoms: C_6  and  C_7
REMARK    3  A    between atoms: C_7  and  N_8
REMARK    4  A    between atoms: N_8  and  C_9
REMARK    5  A    between atoms: N_8  and  S_14
REMARK    6  A    between atoms: C_9  and  C_10
REMARK    7  A    between atoms: S_14  and  C_17
REMARK    8  A    between atoms: C_20  and  C_23
REMARK    9  A    between atoms: C_24  and  C_25
REMARK   10  A    between atoms: S_27  and  N_30
REMARK                            x       y       z     vdW  Elec       q    Type
REMARK                         _______ _______ _______ _____ _____    ______ ____
ROOT
ATOM      1  N   UNL     1       1.446   4.029   1.656  0.00  0.00    -0.164 NA
ENDROOT
BRANCH   1   2
ATOM      2  S   UNL     1       3.043   4.323   1.980  0.00  0.00    +0.061 S 
ATOM      3  O   UNL     1       3.271   3.902   3.318  0.00  0.00    -0.153 OA
ATOM      4  O   UNL     1       3.783   3.806   0.882  0.00  0.00    -0.153 OA
BRANCH   2   5
ATOM      5  C   UNL     1       3.266   6.071   1.958  0.00  0.00    +0.106 A 
ATOM      6  C   UNL     1       3.722   6.692   0.808  0.00  0.00    +0.029 A 
ATOM      7  C   UNL     1       3.893   8.060   0.781  0.00  0.00    +0.010 A 
ATOM      8  C   UNL     1       3.617   8.819   1.923  0.00  0.00    -0.025 A 
ATOM      9  C   UNL     1       3.163   8.182   3.083  0.00  0.00    +0.010 A 
ATOM     10  C   UNL     1       2.991   6.814   3.092  0.00  0.00    +0.029 A 
BRANCH   8  11
ATOM     11  C   UNL     1       3.804  10.278   1.905  0.00  0.00    +0.015 C 
ATOM     12  C   UNL     1       4.243  10.888   0.785  0.00  0.00    +0.096 C 
BRANCH  12  13
ATOM     13  C   UNL     1       4.429  12.339   0.767  0.00  0.00    +0.380 C 
ATOM     14  O   UNL     1       4.188  12.995   1.762  0.00  0.00    -0.241 OA
ATOM     15  O   UNL     1       4.867  12.949  -0.354  0.00  0.00    -0.241 OA
ENDBRANCH  12  13
ENDBRANCH   8  11
ENDBRANCH   2   5
ENDBRANCH   1   2
BRANCH   1  16
ATOM     16  C   UNL     1       1.009   3.799   0.277  0.00  0.00    +0.144 C 
BRANCH  16  22
ATOM     17  C   UNL     1       1.361   5.885  -1.062  0.00  0.00    +0.007 A 
ATOM     18  C   UNL     1       0.903   7.071  -1.605  0.00  0.00    +0.029 A 
ATOM     19  C   UNL     1      -0.406   7.464  -1.400  0.00  0.00    +0.105 A 
ATOM     20  C   UNL     1      -1.258   6.672  -0.653  0.00  0.00    +0.029 A 
ATOM     21  C   UNL     1      -0.800   5.485  -0.111  0.00  0.00    +0.007 A 
ATOM     22  C   UNL     1       0.510   5.092  -0.315  0.00  0.00    -0.032 A 
BRANCH  19  23
ATOM     23  S   UNL     1      -0.990   8.976  -2.091  0.00  0.00    +0.056 S 
ATOM     24  O   UNL     1      -2.096   9.385  -1.298  0.00  0.00    -0.153 OA
ATOM     25  O   UNL     1       0.151   9.800  -2.288  0.00  0.00    -0.153 OA
BRANCH  23  26
ATOM     26  N   UNL     1      -1.589   8.629  -3.595  0.00  0.00    -0.204 NA
ATOM     27  H   UNL     1      -1.567   7.718  -3.927  0.00  0.00    +0.144 HD
ATOM     28  H   UNL     1      -1.961   9.336  -4.144  0.00  0.00    +0.144 HD
ENDBRANCH  23  26
ENDBRANCH  19  23
ENDBRANCH  16  22
ENDBRANCH   1  16
BRANCH   1  29
ATOM     29  C   UNL     1       0.471   3.999   2.748  0.00  0.00    +0.223 C 
BRANCH  29  30
ATOM     30  C   UNL     1       0.250   2.553   3.196  0.00  0.00    +0.404 C 
ATOM     31  F   UNL     1       1.443   2.038   3.714  0.00  0.00    -0.169 F 
ATOM     32  F   UNL     1      -0.741   2.516   4.183  0.00  0.00    -0.169 F 
ATOM     33  F   UNL     1      -0.154   1.782   2.100  0.00  0.00    -0.169 F 
ENDBRANCH  29  30
ENDBRANCH   1  29
TORSDOF 10
