REMARK  Name = ZINC35911649
REMARK  12 active torsions:
REMARK  status: ('A' for Active; 'I' for Inactive)
REMARK    1  A    between atoms: C_1  and  C_2
REMARK    2  A    between atoms: C_7  and  N_8
REMARK    3  A    between atoms: C_9  and  C_39
REMARK    4  A    between atoms: C_11  and  C_13
REMARK    5  A    between atoms: C_14  and  C_38
REMARK    6  A    between atoms: C_20  and  C_23
REMARK    7  A    between atoms: C_23  and  C_24
REMARK    8  A    between atoms: N_26  and  C_27
REMARK    9  A    between atoms: C_27  and  C_29
REMARK   10  A    between atoms: C_27  and  C_30
REMARK   11  A    between atoms: C_30  and  C_31
REMARK   12  A    between atoms: C_31  and  C_32
REMARK                            x       y       z     vdW  Elec       q    Type
REMARK                         _______ _______ _______ _____ _____    ______ ____
ROOT
ATOM      1  C   UNL     1       0.075   3.224   4.239  0.00  0.00    +0.088 A 
ATOM      2  C   UNL     1      -0.141   4.302   3.387  0.00  0.00    +0.055 A 
ATOM      3  N   UNL     1      -0.210   5.522   3.908  0.00  0.00    -0.227 NA
ATOM      4  C   UNL     1      -0.080   5.720   5.197  0.00  0.00    +0.180 A 
ATOM      5  N   UNL     1       0.135   4.723   6.111  0.00  0.00    -0.258 N 
ATOM      6  C   UNL     1       0.208   3.449   5.620  0.00  0.00    +0.268 A 
ATOM      7  O   UNL     1       0.392   2.511   6.378  0.00  0.00    -0.266 OA
ATOM      8  C   UNL     1       0.250   5.102   7.427  0.00  0.00    +0.044 A 
ATOM      9  C   UNL     1       0.155   6.382   7.785  0.00  0.00    +0.071 A 
ATOM     10  S   UNL     1      -0.116   7.183   6.212  0.00  0.00    -0.057 S 
ATOM     11  C   UNL     1      -0.294   4.091   1.903  0.00  0.00    +0.066 C 
ENDROOT
BRANCH   1  15
ATOM     12  N   UNL     1       0.186   0.118   2.333  0.00  0.00    -0.236 N 
ATOM     13  C   UNL     1       0.379  -0.370   3.586  0.00  0.00    +0.042 A 
ATOM     14  C   UNL     1       0.367   0.672   4.444  0.00  0.00    +0.053 A 
ATOM     15  C   UNL     1       0.158   1.848   3.695  0.00  0.00    +0.100 A 
ATOM     16  N   UNL     1       0.056   1.510   2.426  0.00  0.00    -0.166 NA
ATOM     17  C   UNL     1       0.573  -1.819   3.953  0.00  0.00    +0.066 C 
BRANCH  12  24
ATOM     18  C   UNL     1      -1.962   0.596   0.527  0.00  0.00    +0.046 C 
ATOM     19  C   UNL     1      -0.899  -0.435   0.246  0.00  0.00    -0.025 A 
ATOM     20  C   UNL     1      -0.946  -1.177  -0.919  0.00  0.00    +0.005 A 
ATOM     21  C   UNL     1       0.028  -2.124  -1.177  0.00  0.00    +0.000 A 
ATOM     22  C   UNL     1       1.052  -2.331  -0.271  0.00  0.00    +0.002 A 
ATOM     23  C   UNL     1       1.105  -1.592   0.894  0.00  0.00    +0.028 A 
ATOM     24  C   UNL     1       0.131  -0.637   1.154  0.00  0.00    +0.069 A 
ENDBRANCH  12  24
ENDBRANCH   1  15
BRANCH   8  25
ATOM     25  C   UNL     1       0.487   4.053   8.482  0.00  0.00    +0.150 C 
BRANCH  25  26
ATOM     26  C   UNL     1      -0.832   3.465   8.912  0.00  0.00    +0.219 C 
ATOM     27  O   UNL     1      -1.864   3.860   8.411  0.00  0.00    -0.275 OA
ATOM     28  N   UNL     1      -0.866   2.502   9.854  0.00  0.00    -0.312 N 
ATOM     29  H   UNL     1      -0.041   2.186  10.255  0.00  0.00    +0.149 HD
BRANCH  28  30
ATOM     30  C   UNL     1      -2.149   1.931  10.272  0.00  0.00    +0.070 C 
ATOM     31  C   UNL     1      -2.768   2.811  11.359  0.00  0.00    +0.028 C 
BRANCH  30  32
ATOM     32  C   UNL     1      -1.925   0.521  10.823  0.00  0.00    +0.026 C 
BRANCH  32  33
ATOM     33  C   UNL     1      -1.422  -0.390   9.702  0.00  0.00    +0.037 C 
BRANCH  33  34
ATOM     34  C   UNL     1      -1.201  -1.779  10.244  0.00  0.00    -0.047 A 
ATOM     35  C   UNL     1       0.028  -2.127  10.772  0.00  0.00    +0.003 A 
ATOM     36  C   UNL     1       0.231  -3.401  11.270  0.00  0.00    +0.000 A 
ATOM     37  C   UNL     1      -0.796  -4.326  11.240  0.00  0.00    +0.000 A 
ATOM     38  C   UNL     1      -2.026  -3.977  10.714  0.00  0.00    +0.000 A 
ATOM     39  C   UNL     1      -2.230  -2.702  10.220  0.00  0.00    +0.003 A 
ENDBRANCH  33  34
ENDBRANCH  32  33
ENDBRANCH  30  32
ENDBRANCH  28  30
ENDBRANCH  25  26
ENDBRANCH   8  25
TORSDOF 8
