REMARK  Name = ZINC22455396
REMARK  4 active torsions:
REMARK  status: ('A' for Active; 'I' for Inactive)
REMARK    1  A    between atoms: C_1  and  C_2
REMARK    2  A    between atoms: C_2  and  C_3
REMARK    3  A    between atoms: C_6  and  N_9
REMARK    4  A    between atoms: C_17  and  C_22
REMARK                            x       y       z     vdW  Elec       q    Type
REMARK                         _______ _______ _______ _____ _____    ______ ____
ROOT
ATOM      1  N   UNL     1       1.616   3.187   0.004  0.00  0.00    -0.297 N 
ATOM      2  C   UNL     1       1.218   1.850   0.005  0.00  0.00    +0.155 A 
ATOM      3  C   UNL     1       2.083   0.688  -0.020  0.00  0.00    +0.080 A 
ATOM      4  C   UNL     1       1.258  -0.435  -0.006  0.00  0.00    +0.049 A 
ATOM      5  N   UNL     1       0.001  -0.004   0.022  0.00  0.00    -0.279 N 
ATOM      6  H   UNL     1      -0.828  -0.726   0.035  0.00  0.00    +0.189 HD
ATOM      7  N   UNL     1      -0.017   1.398   0.030  0.00  0.00    -0.158 NA
ATOM      8  C   UNL     1       1.794  -1.843  -0.019  0.00  0.00    +0.067 C 
ATOM      9  C   UNL     1       3.251  -1.832   0.454  0.00  0.00    +0.068 C 
ATOM     10  C   UNL     1       4.075  -0.823  -0.351  0.00  0.00    +0.091 C 
ATOM     11  C   UNL     1       3.545   0.574  -0.058  0.00  0.00    +0.169 C 
ATOM     12  O   UNL     1       4.278   1.522   0.130  0.00  0.00    -0.292 OA
ATOM     13  H   UNL     1       2.684   3.442   0.073  0.00  0.00    +0.154 HD
ENDROOT
BRANCH   1  17
ATOM     14  C   UNL     1      -1.235   6.209  -0.267  0.00  0.00    -0.048 A 
ATOM     15  C   UNL     1      -0.013   6.465   0.326  0.00  0.00    +0.005 A 
ATOM     16  C   UNL     1       0.935   5.465   0.418  0.00  0.00    +0.023 A 
ATOM     17  C   UNL     1       0.660   4.201  -0.087  0.00  0.00    +0.032 A 
ATOM     18  C   UNL     1      -0.568   3.948  -0.688  0.00  0.00    +0.023 A 
ATOM     19  C   UNL     1      -1.513   4.952  -0.771  0.00  0.00    +0.005 A 
BRANCH  14  21
ATOM     20  C   UNL     1      -2.078   8.067  -1.677  0.00  0.00    +0.009 C 
ATOM     21  C   UNL     1      -2.267   7.303  -0.365  0.00  0.00    +0.032 C 
ENDBRANCH  14  21
ENDBRANCH   1  17
BRANCH   9  22
ATOM     22  C   UNL     1       3.840  -3.208   0.275  0.00  0.00    +0.109 A 
ATOM     23  C   UNL     1       4.321  -3.991   1.258  0.00  0.00    +0.045 A 
ATOM     24  C   UNL     1       4.771  -5.184   0.647  0.00  0.00    +0.041 A 
ATOM     25  C   UNL     1       4.538  -5.059  -0.672  0.00  0.00    +0.195 A 
ATOM     26  O   UNL     1       3.969  -3.862  -0.891  0.00  0.00    -0.468 OA
ENDBRANCH   9  22
TORSDOF 3
