REMARK  Name = ZINC13500674
REMARK  16 active torsions:
REMARK  status: ('A' for Active; 'I' for Inactive)
REMARK    1  A    between atoms: C_1  and  C_2
REMARK    2  A    between atoms: C_2  and  C_3
REMARK    3  A    between atoms: C_3  and  C_4
REMARK    4  A    between atoms: C_3  and  C_5
REMARK    5  A    between atoms: C_3  and  N_6
REMARK    6  A    between atoms: C_7  and  C_11
REMARK    7  A    between atoms: C_11  and  C_13
REMARK    8  A    between atoms: C_11  and  N_78
REMARK    9  A    between atoms: C_13  and  C_14
REMARK   10  A    between atoms: C_13  and  C_15
REMARK   11  A    between atoms: C_16  and  C_17
REMARK   12  A    between atoms: C_16  and  N_78
REMARK   13  A    between atoms: C_21  and  O_29
REMARK   14  A    between atoms: O_29  and  C_30
REMARK   15  A    between atoms: C_30  and  C_31
REMARK   16  A    between atoms: C_32  and  N_78
REMARK                            x       y       z     vdW  Elec       q    Type
REMARK                         _______ _______ _______ _____ _____    ______ ____
ROOT
ATOM      1  N   UNL     1      -2.611  -0.166  -2.044  0.00  0.00    +0.391 N 
ATOM      2  H   UNL     1      -1.805  -0.783  -1.889  0.00  0.00    -0.080 HD
ENDROOT
BRANCH   1   3
ATOM      3  C   UNL     1      -2.390   0.610  -3.283  0.00  0.00    -0.067 C 
ATOM      4  C   UNL     1      -0.973   1.188  -3.256  0.00  0.00    -0.015 C 
ATOM      5  C   UNL     1      -0.720   1.978  -4.542  0.00  0.00    -0.002 C 
ATOM      6  C   UNL     1      -1.734   3.118  -4.647  0.00  0.00    -0.000 C 
ATOM      7  C   UNL     1      -3.151   2.541  -4.675  0.00  0.00    -0.002 C 
ATOM      8  C   UNL     1      -3.404   1.751  -3.389  0.00  0.00    -0.015 C 
ENDBRANCH   1   3
BRANCH   1   9
ATOM      9  C   UNL     1      -3.829  -0.991  -2.176  0.00  0.00    +0.006 C 
BRANCH   9  11
ATOM     10  N   UNL     1      -5.644  -1.175  -0.393  0.00  0.00    -0.225 N 
ATOM     11  C   UNL     1      -4.370  -1.307  -0.805  0.00  0.00    +0.139 A 
ATOM     12  N   UNL     1      -3.690  -1.769   0.217  0.00  0.00    -0.115 NA
ATOM     13  N   UNL     1      -4.504  -1.905   1.207  0.00  0.00    -0.023 NA
ATOM     14  N   UNL     1      -5.686  -1.550   0.841  0.00  0.00    -0.043 NA
BRANCH  10  15
ATOM     15  C   UNL     1      -6.772  -0.695  -1.195  0.00  0.00    +0.061 C 
ATOM     16  C   UNL     1      -6.556   0.777  -1.550  0.00  0.00    +0.036 C 
ATOM     17  C   UNL     1      -6.872  -1.520  -2.480  0.00  0.00    +0.036 C 
BRANCH  15  19
ATOM     18  C   UNL     1      -9.245  -0.341  -1.231  0.00  0.00    +0.006 C 
ATOM     19  C   UNL     1      -8.067  -0.842  -0.393  0.00  0.00    +0.026 C 
ENDBRANCH  15  19
ENDBRANCH  10  15
ENDBRANCH   9  11
BRANCH   9  20
ATOM     20  C   UNL     1      -3.463  -2.293  -2.891  0.00  0.00    -0.024 C 
ATOM     21  C   UNL     1      -2.922  -1.973  -4.287  0.00  0.00    +0.006 C 
ATOM     22  C   UNL     1      -2.392  -3.033  -2.087  0.00  0.00    +0.006 C 
ENDBRANCH   9  20
ENDBRANCH   1   9
BRANCH   1  23
ATOM     23  C   UNL     1      -2.743   0.750  -0.892  0.00  0.00    -0.036 C 
BRANCH  23  24
ATOM     24  C   UNL     1      -1.368   1.213  -0.483  0.00  0.00    +0.001 A 
ATOM     25  C   UNL     1      -1.030   2.521  -0.607  0.00  0.00    +0.017 A 
ATOM     26  C   UNL     1       0.315   2.937  -0.206  0.00  0.00    +0.002 A 
ATOM     27  C   UNL     1       0.720   4.272  -0.316  0.00  0.00    +0.055 A 
ATOM     28  C   UNL     1       1.995   4.631   0.071  0.00  0.00    +0.121 A 
ATOM     29  C   UNL     1       2.875   3.672   0.568  0.00  0.00    +0.047 A 
ATOM     30  C   UNL     1       2.488   2.355   0.681  0.00  0.00    +0.030 A 
ATOM     31  C   UNL     1       1.207   1.972   0.296  0.00  0.00    +0.049 A 
ATOM     32  N   UNL     1       0.800   0.658   0.402  0.00  0.00    -0.322 N 
ATOM     33  H   UNL     1       1.416  -0.007   0.749  0.00  0.00    +0.169 HD
ATOM     34  C   UNL     1      -0.438   0.285   0.032  0.00  0.00    +0.251 A 
ATOM     35  O   UNL     1      -0.763  -0.885   0.139  0.00  0.00    -0.268 OA
BRANCH  28  36
ATOM     36  O   UNL     1       2.394   5.926  -0.033  0.00  0.00    -0.492 OA
BRANCH  36  37
ATOM     37  C   UNL     1       3.726   6.230   0.385  0.00  0.00    +0.225 C 
ATOM     38  C   UNL     1       3.992   7.725   0.195  0.00  0.00    +0.048 C 
ENDBRANCH  36  37
ENDBRANCH  28  36
ENDBRANCH  23  24
ENDBRANCH   1  23
TORSDOF 10
