REMARK  Name = ZINC08868405
REMARK  5 active torsions:
REMARK  status: ('A' for Active; 'I' for Inactive)
REMARK    1  A    between atoms: C_1  and  C_2
REMARK    2  A    between atoms: C_7  and  C_8
REMARK    3  A    between atoms: C_9  and  C_27
REMARK    4  A    between atoms: C_9  and  C_31
REMARK    5  A    between atoms: N_17  and  C_20
REMARK                            x       y       z     vdW  Elec       q    Type
REMARK                         _______ _______ _______ _____ _____    ______ ____
ROOT
ATOM      1  C   UNL     1       1.240   6.267  -0.366  0.00  0.00    +0.106 C 
ATOM      2  C   UNL     1       2.564   4.282  -0.770  0.00  0.00    +0.264 C 
ATOM      3  C   UNL     1       1.252   3.551  -0.794  0.00  0.00    +0.098 A 
ATOM      4  C   UNL     1       1.223   2.146  -0.829  0.00  0.00    +0.262 A 
ATOM      5  O   UNL     1       2.263   1.510  -0.829  0.00  0.00    -0.267 OA
ATOM      6  N   UNL     1       0.037   1.508  -0.861  0.00  0.00    -0.274 N 
ATOM      7  H   UNL     1       0.013   0.508  -0.883  0.00  0.00    +0.173 HD
ATOM      8  C   UNL     1      -1.116   2.201  -0.866  0.00  0.00    +0.335 A 
ATOM      9  O   UNL     1      -2.175   1.604  -0.903  0.00  0.00    -0.246 OA
ATOM     10  N   UNL     1      -1.115   3.547  -0.824  0.00  0.00    -0.250 N 
ATOM     11  C   UNL     1       0.073   4.236  -0.788  0.00  0.00    +0.124 A 
ATOM     12  N   UNL     1       0.086   5.610  -0.745  0.00  0.00    -0.286 N 
ATOM     13  H   UNL     1      -0.709   6.114  -0.979  0.00  0.00    +0.155 HD
ATOM     14  N   UNL     1       2.461   5.722  -0.341  0.00  0.00    -0.348 N 
ATOM     15  H   UNL     1       3.285   6.257  -0.045  0.00  0.00    +0.162 HD
ENDROOT
BRANCH   1  22
ATOM     16  C   UNL     1       3.591   7.583   0.686  0.00  0.00    +0.044 C 
ATOM     17  C   UNL     1       2.288   8.329   0.559  0.00  0.00    -0.040 A 
ATOM     18  C   UNL     1       2.210   9.653   0.941  0.00  0.00    +0.004 A 
ATOM     19  C   UNL     1       1.013  10.338   0.831  0.00  0.00    +0.000 A 
ATOM     20  C   UNL     1      -0.111   9.703   0.333  0.00  0.00    +0.001 A 
ATOM     21  C   UNL     1      -0.043   8.381  -0.058  0.00  0.00    +0.011 A 
ATOM     22  C   UNL     1       1.161   7.685   0.051  0.00  0.00    +0.016 A 
ENDBRANCH   1  22
BRANCH  10  23
ATOM     23  C   UNL     1      -2.329   4.248  -0.824  0.00  0.00    +0.053 A 
ATOM     24  C   UNL     1      -3.149   4.218  -1.943  0.00  0.00    +0.029 A 
ATOM     25  C   UNL     1      -4.348   4.905  -1.939  0.00  0.00    +0.040 A 
ATOM     26  C   UNL     1      -4.726   5.631  -0.823  0.00  0.00    +0.124 A 
ATOM     27  C   UNL     1      -3.907   5.666   0.293  0.00  0.00    +0.040 A 
ATOM     28  C   UNL     1      -2.711   4.977   0.295  0.00  0.00    +0.029 A 
ATOM     29  F   UNL     1      -5.897   6.306  -0.822  0.00  0.00    -0.205 F 
ENDBRANCH  10  23
BRANCH   2  30
ATOM     30  C   UNL     1       3.505   3.590   0.218  0.00  0.00    +0.426 C 
ATOM     31  F   UNL     1       4.000   2.414  -0.355  0.00  0.00    -0.167 F 
ATOM     32  F   UNL     1       4.570   4.444   0.523  0.00  0.00    -0.167 F 
ATOM     33  F   UNL     1       2.806   3.280   1.389  0.00  0.00    -0.167 F 
ENDBRANCH   2  30
BRANCH   2  34
ATOM     34  C   UNL     1       3.187   4.240  -2.167  0.00  0.00    +0.426 C 
ATOM     35  F   UNL     1       2.323   4.853  -3.081  0.00  0.00    -0.167 F 
ATOM     36  F   UNL     1       4.410   4.920  -2.153  0.00  0.00    -0.167 F 
ATOM     37  F   UNL     1       3.397   2.909  -2.543  0.00  0.00    -0.167 F 
ENDBRANCH   2  34
TORSDOF 4
