REMARK  Name = ZINC22278286
REMARK  11 active torsions:
REMARK  status: ('A' for Active; 'I' for Inactive)
REMARK    1  A    between atoms: C_1  and  O_2
REMARK    2  A    between atoms: O_2  and  C_3
REMARK    3  A    between atoms: C_8  and  N_9
REMARK    4  A    between atoms: N_9  and  C_10
REMARK    5  A    between atoms: N_9  and  S_24
REMARK    6  A    between atoms: C_10  and  C_11
REMARK    7  A    between atoms: N_13  and  C_14
REMARK    8  A    between atoms: C_19  and  C_20
REMARK    9  A    between atoms: C_20  and  O_22
REMARK   10  A    between atoms: O_22  and  C_23
REMARK   11  A    between atoms: S_24  and  C_27
REMARK                            x       y       z     vdW  Elec       q    Type
REMARK                         _______ _______ _______ _____ _____    ______ ____
ROOT
ATOM      1  N   UNL     1       4.369  -1.070  -1.659  0.00  0.00    -0.191 N 
ENDROOT
BRANCH   1   7
ATOM      2  C   UNL     1       6.513  -0.120  -2.255  0.00  0.00    +0.143 A 
ATOM      3  C   UNL     1       7.253   0.840  -2.924  0.00  0.00    +0.047 A 
ATOM      4  C   UNL     1       6.612   1.814  -3.667  0.00  0.00    +0.004 A 
ATOM      5  C   UNL     1       5.232   1.833  -3.745  0.00  0.00    +0.002 A 
ATOM      6  C   UNL     1       4.486   0.875  -3.085  0.00  0.00    +0.028 A 
ATOM      7  C   UNL     1       5.122  -0.102  -2.333  0.00  0.00    +0.093 A 
BRANCH   2   9
ATOM      8  C   UNL     1       8.570  -1.037  -1.490  0.00  0.00    +0.277 C 
ATOM      9  O   UNL     1       7.142  -1.080  -1.524  0.00  0.00    -0.493 OA
ENDBRANCH   2   9
ENDBRANCH   1   7
BRANCH   1  10
ATOM     10  S   UNL     1       3.975  -0.851  -0.065  0.00  0.00    +0.075 S 
ATOM     11  O   UNL     1       4.946   0.035   0.475  0.00  0.00    -0.150 OA
ATOM     12  O   UNL     1       3.739  -2.144   0.476  0.00  0.00    -0.150 OA
BRANCH  10  13
ATOM     13  C   UNL     1       2.434   0.002  -0.021  0.00  0.00    +0.109 A 
ATOM     14  C   UNL     1       1.250  -0.711  -0.004  0.00  0.00    +0.029 A 
ATOM     15  C   UNL     1       0.041  -0.041   0.031  0.00  0.00    +0.002 A 
ATOM     16  C   UNL     1       0.016   1.341   0.047  0.00  0.00    +0.000 A 
ATOM     17  C   UNL     1       1.201   2.054   0.030  0.00  0.00    +0.002 A 
ATOM     18  C   UNL     1       2.410   1.384  -0.004  0.00  0.00    +0.029 A 
ENDBRANCH  10  13
ENDBRANCH   1  10
BRANCH   1  19
ATOM     19  C   UNL     1       3.928  -2.277  -2.363  0.00  0.00    +0.227 C 
BRANCH  19  20
ATOM     20  C   UNL     1       2.641  -1.991  -3.092  0.00  0.00    +0.236 C 
ATOM     21  O   UNL     1       2.141  -0.888  -3.030  0.00  0.00    -0.274 OA
ATOM     22  N   UNL     1       2.046  -2.961  -3.814  0.00  0.00    -0.283 N 
ATOM     23  H   UNL     1       2.536  -3.939  -3.931  0.00  0.00    +0.155 HD
BRANCH  22  24
ATOM     24  C   UNL     1       0.810  -2.726  -4.412  0.00  0.00    +0.047 A 
ATOM     25  C   UNL     1       0.508  -1.468  -4.918  0.00  0.00    +0.024 A 
ATOM     26  C   UNL     1      -0.715  -1.239  -5.515  0.00  0.00    +0.002 A 
ATOM     27  C   UNL     1      -1.654  -2.254  -5.604  0.00  0.00    +0.001 A 
ATOM     28  C   UNL     1      -1.375  -3.506  -5.102  0.00  0.00    +0.017 A 
ATOM     29  C   UNL     1      -0.138  -3.756  -4.500  0.00  0.00    +0.080 A 
BRANCH  29  30
ATOM     30  C   UNL     1       0.167  -5.093  -3.960  0.00  0.00    +0.341 C 
ATOM     31  O   UNL     1       1.202  -5.281  -3.351  0.00  0.00    -0.245 OA
BRANCH  30  32
ATOM     32  O   UNL     1      -0.701  -6.108  -4.142  0.00  0.00    -0.464 OA
ATOM     33  C   UNL     1      -0.335  -7.397  -3.584  0.00  0.00    +0.280 C 
ENDBRANCH  30  32
ENDBRANCH  29  30
ENDBRANCH  22  24
ENDBRANCH  19  20
ENDBRANCH   1  19
TORSDOF 9
