REMARK  Name = ZINC01875586
REMARK  11 active torsions:
REMARK  status: ('A' for Active; 'I' for Inactive)
REMARK    1  A    between atoms: C_1  and  C_2
REMARK    2  A    between atoms: C_6  and  C_37
REMARK    3  A    between atoms: C_7  and  O_8
REMARK    4  A    between atoms: O_8  and  C_9
REMARK    5  A    between atoms: C_9  and  C_10
REMARK    6  A    between atoms: C_12  and  C_18
REMARK    7  A    between atoms: C_15  and  O_16
REMARK    8  A    between atoms: O_16  and  C_17
REMARK    9  A    between atoms: N_27  and  C_30
REMARK   10  A    between atoms: C_37  and  C_38
REMARK   11  A    between atoms: C_37  and  C_39
REMARK                            x       y       z     vdW  Elec       q    Type
REMARK                         _______ _______ _______ _____ _____    ______ ____
ROOT
ATOM      1  C   UNL     1      -1.000   0.934   4.270  0.00  0.00    +0.032 A 
ATOM      2  C   UNL     1       0.271   1.216   4.731  0.00  0.00    +0.017 A 
ATOM      3  C   UNL     1       0.441   1.971   5.876  0.00  0.00    -0.016 A 
ATOM      4  C   UNL     1      -0.660   2.446   6.564  0.00  0.00    +0.010 A 
ATOM      5  C   UNL     1      -1.934   2.167   6.107  0.00  0.00    +0.046 A 
ATOM      6  C   UNL     1      -2.107   1.415   4.954  0.00  0.00    +0.126 A 
ENDROOT
BRANCH   3   7
ATOM      7  C   UNL     1       1.829   2.276   6.377  0.00  0.00    +0.167 C 
ATOM      8  N   UNL     1       1.832   3.502   7.208  0.00  0.00    -0.256 N 
ATOM      9  C   UNL     1       1.521   3.195   8.620  0.00  0.00    +0.176 C 
ATOM     10  C   UNL     1       2.448   2.036   9.081  0.00  0.00    +0.103 C 
ATOM     11  S   UNL     1       2.395   0.988   7.567  0.00  0.00    -0.131 S 
ATOM     12  C   UNL     1       1.874   4.474   9.345  0.00  0.00    +0.249 C 
ATOM     13  O   UNL     1       1.911   4.652  10.544  0.00  0.00    -0.273 OA
ATOM     14  N   UNL     1       2.139   5.375   8.376  0.00  0.00    -0.192 N 
ATOM     15  C   UNL     1       2.039   4.831   7.157  0.00  0.00    +0.317 C 
ATOM     16  O   UNL     1       2.125   5.463   6.123  0.00  0.00    -0.252 OA
BRANCH  14  17
ATOM     17  C   UNL     1       2.476   6.715   8.617  0.00  0.00    +0.046 A 
ATOM     18  C   UNL     1       2.608   7.600   7.555  0.00  0.00    +0.025 A 
ATOM     19  C   UNL     1       2.941   8.919   7.794  0.00  0.00    +0.022 A 
ATOM     20  C   UNL     1       3.143   9.358   9.091  0.00  0.00    +0.041 A 
ATOM     21  C   UNL     1       3.013   8.478  10.150  0.00  0.00    +0.022 A 
ATOM     22  C   UNL     1       2.674   7.160   9.917  0.00  0.00    +0.025 A 
ATOM     23 CL   UNL     1       3.562  11.017   9.388  0.00  0.00    -0.084 Cl
ENDBRANCH  14  17
ENDBRANCH   3   7
BRANCH   6  24
ATOM     24  O   UNL     1      -3.359   1.144   4.500  0.00  0.00    -0.495 OA
ATOM     25  C   UNL     1      -4.452   1.671   5.255  0.00  0.00    +0.277 C 
ENDBRANCH   6  24
BRANCH   1  26
ATOM     26  C   UNL     1      -1.185   0.111   3.021  0.00  0.00    +0.268 C 
BRANCH  26  27
ATOM     27  O   UNL     1       0.094  -0.263   2.504  0.00  0.00    -0.487 OA
BRANCH  27  34
ATOM     28  C   UNL     1       0.154   1.106   0.034  0.00  0.00    +0.047 C 
ATOM     29  C   UNL     1       0.135  -0.398   0.129  0.00  0.00    -0.007 A 
ATOM     30  C   UNL     1       0.153  -1.163  -1.021  0.00  0.00    +0.027 A 
ATOM     31  C   UNL     1       0.136  -2.544  -0.934  0.00  0.00    +0.042 A 
ATOM     32  C   UNL     1       0.100  -3.161   0.304  0.00  0.00    +0.027 A 
ATOM     33  C   UNL     1       0.082  -2.399   1.456  0.00  0.00    -0.001 A 
ATOM     34  C   UNL     1       0.105  -1.014   1.371  0.00  0.00    +0.127 A 
ATOM     35 CL   UNL     1       0.158  -3.503  -2.381  0.00  0.00    -0.084 Cl
BRANCH  33  36
ATOM     36  C   UNL     1       0.043  -3.071   2.804  0.00  0.00    +0.016 C 
ATOM     37  C   UNL     1      -1.220  -3.930   2.909  0.00  0.00    +0.012 C 
ATOM     38  C   UNL     1       1.278  -3.959   2.967  0.00  0.00    +0.012 C 
ENDBRANCH  33  36
ENDBRANCH  27  34
ENDBRANCH  26  27
ENDBRANCH   1  26
TORSDOF 7
