REMARK  Name = ZINC12991107
REMARK  6 active torsions:
REMARK  status: ('A' for Active; 'I' for Inactive)
REMARK    1  A    between atoms: C_4  and  C_7
REMARK    2  A    between atoms: C_12  and  C_19
REMARK    3  A    between atoms: N_21  and  C_22
REMARK    4  A    between atoms: C_22  and  C_23
REMARK    5  A    between atoms: C_23  and  C_25
REMARK    6  A    between atoms: C_23  and  N_58
REMARK                            x       y       z     vdW  Elec       q    Type
REMARK                         _______ _______ _______ _____ _____    ______ ____
ROOT
ATOM      1  C   UNL     1      -9.925   2.261  -4.209  0.00  0.00    +0.211 C 
ATOM      2  C   UNL     1      -8.569   2.773  -4.695  0.00  0.00    +0.085 C 
ATOM      3  C   UNL     1      -7.476   2.329  -3.759  0.00  0.00    -0.029 A 
ATOM      4  C   UNL     1      -6.169   2.292  -4.201  0.00  0.00    +0.017 A 
ATOM      5  C   UNL     1      -5.152   1.882  -3.339  0.00  0.00    +0.037 A 
ATOM      6  C   UNL     1      -5.451   1.517  -2.025  0.00  0.00    +0.014 A 
ATOM      7  C   UNL     1      -6.755   1.557  -1.581  0.00  0.00    +0.016 A 
ATOM      8  C   UNL     1      -7.771   1.962  -2.446  0.00  0.00    +0.062 A 
ATOM      9  C   UNL     1      -9.178   2.003  -1.978  0.00  0.00    +0.340 C 
ATOM     10  O   UNL     1      -9.504   1.533  -0.906  0.00  0.00    -0.245 OA
ATOM     11  O   UNL     1     -10.086   2.590  -2.798  0.00  0.00    -0.453 OA
ENDROOT
BRANCH   1  15
ATOM     12  C   UNL     1     -13.043   4.108  -6.470  0.00  0.00    +0.000 A 
ATOM     13  C   UNL     1     -12.633   2.825  -6.778  0.00  0.00    +0.000 A 
ATOM     14  C   UNL     1     -11.624   2.227  -6.047  0.00  0.00    +0.007 A 
ATOM     15  C   UNL     1     -11.025   2.913  -5.007  0.00  0.00    -0.007 A 
ATOM     16  C   UNL     1     -11.439   4.194  -4.695  0.00  0.00    +0.007 A 
ATOM     17  C   UNL     1     -12.444   4.794  -5.429  0.00  0.00    +0.000 A 
ENDBRANCH   1  15
BRANCH   5  18
ATOM     18  C   UNL     1      -3.751   1.838  -3.817  0.00  0.00    +0.244 C 
ATOM     19  O   UNL     1      -3.490   2.155  -4.961  0.00  0.00    -0.270 OA
ATOM     20  N   UNL     1      -2.767   1.447  -2.984  0.00  0.00    -0.312 N 
ATOM     21  H   UNL     1      -2.976   1.194  -2.071  0.00  0.00    +0.149 HD
BRANCH  20  22
ATOM     22  C   UNL     1      -1.381   1.404  -3.457  0.00  0.00    +0.097 C 
BRANCH  22  23
ATOM     23  C   UNL     1      -0.488   0.808  -2.367  0.00  0.00    +0.016 C 
BRANCH  23  28
ATOM     24  C   UNL     1       1.821   0.370  -1.729  0.00  0.00    -0.078 C 
ATOM     25  C   UNL     1       3.200   0.973  -2.072  0.00  0.00    -0.020 C 
ATOM     26  C   UNL     1       2.887   2.227  -2.918  0.00  0.00    -0.020 C 
ATOM     27  C   UNL     1       1.346   2.274  -3.013  0.00  0.00    -0.078 C 
ATOM     28  N   UNL     1       0.948   0.880  -2.784  0.00  0.00    +0.387 N 
ATOM     29  H   UNL     1       1.078   0.332  -3.642  0.00  0.00    -0.081 HD
ENDBRANCH  23  28
BRANCH  23  30
ATOM     30  C   UNL     1      -0.879  -0.627  -2.126  0.00  0.00    +0.093 A 
ATOM     31  C   UNL     1      -1.647  -1.075  -1.117  0.00  0.00    +0.043 A 
ATOM     32  C   UNL     1      -1.758  -2.475  -1.277  0.00  0.00    +0.041 A 
ATOM     33  C   UNL     1      -1.045  -2.800  -2.370  0.00  0.00    +0.195 A 
ATOM     34  O   UNL     1      -0.515  -1.677  -2.881  0.00  0.00    -0.469 OA
ENDBRANCH  23  30
ENDBRANCH  22  23
ENDBRANCH  20  22
ENDBRANCH   5  18
TORSDOF 6
