REMARK  Name = ZINC35788991
REMARK  17 active torsions:
REMARK  status: ('A' for Active; 'I' for Inactive)
REMARK    1  A    between atoms: C_1  and  C_2
REMARK    2  A    between atoms: C_5  and  O_8
REMARK    3  A    between atoms: O_8  and  C_9
REMARK    4  A    between atoms: C_10  and  C_21
REMARK    5  A    between atoms: C_11  and  C_20
REMARK    6  A    between atoms: N_13  and  C_14
REMARK    7  A    between atoms: C_21  and  N_22
REMARK    8  A    between atoms: N_22  and  C_23
REMARK    9  A    between atoms: N_22  and  C_35
REMARK   10  A    between atoms: C_23  and  C_24
REMARK   11  A    between atoms: C_24  and  C_26
REMARK   12  A    between atoms: C_24  and  O_34
REMARK   13  A    between atoms: C_26  and  O_27
REMARK   14  A    between atoms: O_27  and  C_28
REMARK   15  A    between atoms: C_35  and  C_36
REMARK   16  A    between atoms: C_36  and  C_37
REMARK   17  A    between atoms: C_36  and  C_38
REMARK                            x       y       z     vdW  Elec       q    Type
REMARK                         _______ _______ _______ _____ _____    ______ ____
ROOT
ATOM      1  C   UNL     1      -0.251  -4.490   0.718  0.00  0.00    +0.225 A 
ATOM      2  C   UNL     1       0.092  -5.712   1.205  0.00  0.00    +0.021 A 
ATOM      3  C   UNL     1       0.637  -5.529   2.480  0.00  0.00    +0.065 A 
ATOM      4  N   UNL     1       0.627  -4.249   2.755  0.00  0.00    -0.168 NA
ATOM      5  N   UNL     1       0.078  -3.567   1.661  0.00  0.00    -0.200 N 
ATOM      6  C   UNL     1       1.150  -6.620   3.384  0.00  0.00    +0.068 C 
ENDROOT
BRANCH   5   7
ATOM      7  C   UNL     1      -0.102  -2.181   1.559  0.00  0.00    +0.069 A 
ATOM      8  C   UNL     1       0.158  -1.532   0.359  0.00  0.00    +0.028 A 
ATOM      9  C   UNL     1      -0.020  -0.166   0.261  0.00  0.00    +0.002 A 
ATOM     10  C   UNL     1      -0.458   0.556   1.357  0.00  0.00    +0.000 A 
ATOM     11  C   UNL     1      -0.719  -0.088   2.553  0.00  0.00    +0.002 A 
ATOM     12  C   UNL     1      -0.547  -1.454   2.655  0.00  0.00    +0.028 A 
ENDBRANCH   5   7
BRANCH   1  13
ATOM     13  O   UNL     1      -0.812  -4.236  -0.492  0.00  0.00    -0.438 OA
BRANCH  13  18
ATOM     14  C   UNL     1      -6.420  -3.787  -0.761  0.00  0.00    +0.044 C 
ATOM     15  C   UNL     1      -4.920  -3.907  -0.689  0.00  0.00    -0.050 A 
ATOM     16  C   UNL     1      -4.153  -3.657  -1.812  0.00  0.00    +0.007 A 
ATOM     17  C   UNL     1      -2.777  -3.766  -1.748  0.00  0.00    +0.046 A 
ATOM     18  C   UNL     1      -2.165  -4.128  -0.556  0.00  0.00    +0.130 A 
ATOM     19  C   UNL     1      -2.937  -4.378   0.569  0.00  0.00    +0.046 A 
ATOM     20  C   UNL     1      -4.312  -4.262   0.502  0.00  0.00    +0.007 A 
ENDBRANCH  13  18
ENDBRANCH   1  13
BRANCH   2  21
ATOM     21  C   UNL     1      -0.086  -7.031   0.498  0.00  0.00    -0.036 C 
BRANCH  21  22
ATOM     22  N   UNL     1       1.117  -7.329  -0.291  0.00  0.00    +0.384 N 
ATOM     23  H   UNL     1       1.309  -6.560  -0.915  0.00  0.00    -0.081 HD
BRANCH  22  24
ATOM     24  C   UNL     1       0.898  -8.553  -1.073  0.00  0.00    -0.043 C 
BRANCH  24  25
ATOM     25  C   UNL     1      -0.200  -8.306  -2.110  0.00  0.00    +0.135 C 
BRANCH  25  26
ATOM     26  O   UNL     1       0.215  -7.273  -3.006  0.00  0.00    -0.390 OA
ATOM     27  H   UNL     1       0.982  -7.506  -3.547  0.00  0.00    +0.210 HD
ENDBRANCH  25  26
BRANCH  25  28
ATOM     28  C   UNL     1      -0.456  -9.592  -2.898  0.00  0.00    +0.258 C 
BRANCH  28  29
ATOM     29  O   UNL     1      -1.559  -9.395  -3.785  0.00  0.00    -0.489 OA
BRANCH  29  30
ATOM     30  C   UNL     1      -1.920 -10.449  -4.564  0.00  0.00    +0.121 A 
ATOM     31  C   UNL     1      -1.231 -11.649  -4.472  0.00  0.00    +0.045 A 
ATOM     32  C   UNL     1      -1.600 -12.719  -5.264  0.00  0.00    +0.004 A 
ATOM     33  C   UNL     1      -2.655 -12.594  -6.148  0.00  0.00    +0.000 A 
ATOM     34  C   UNL     1      -3.344 -11.398  -6.242  0.00  0.00    +0.004 A 
ATOM     35  C   UNL     1      -2.982 -10.328  -5.448  0.00  0.00    +0.045 A 
ENDBRANCH  29  30
ENDBRANCH  28  29
ENDBRANCH  25  28
ENDBRANCH  24  25
ENDBRANCH  22  24
BRANCH  22  36
ATOM     36  C   UNL     1       2.259  -7.524   0.613  0.00  0.00    -0.075 C 
BRANCH  36  37
ATOM     37  C   UNL     1       3.538  -7.691  -0.210  0.00  0.00    -0.034 C 
ATOM     38  C   UNL     1       3.818  -6.402  -0.985  0.00  0.00    +0.005 C 
ATOM     39  C   UNL     1       4.711  -7.990   0.725  0.00  0.00    +0.005 C 
ENDBRANCH  36  37
ENDBRANCH  22  36
ENDBRANCH  21  22
ENDBRANCH   2  21
TORSDOF 13
