REMARK  Name = ZINC39855967
REMARK  9 active torsions:
REMARK  status: ('A' for Active; 'I' for Inactive)
REMARK    1  A    between atoms: C_1  and  C_2
REMARK    2  A    between atoms: C_6  and  C_7
REMARK    3  A    between atoms: N_9  and  C_10
REMARK    4  A    between atoms: C_11  and  C_19
REMARK    5  A    between atoms: C_19  and  O_21
REMARK    6  A    between atoms: O_21  and  C_22
REMARK    7  A    between atoms: C_24  and  C_32
REMARK    8  A    between atoms: C_24  and  C_33
REMARK    9  A    between atoms: N_27  and  N_28
REMARK                            x       y       z     vdW  Elec       q    Type
REMARK                         _______ _______ _______ _____ _____    ______ ____
ROOT
ATOM      1  C   UNL     1      -0.018   1.503   0.010  0.00  0.00    +0.048 C 
ATOM      2  C   UNL     1       0.002  -0.004   0.002  0.00  0.00    +0.009 A 
ATOM      3  C   UNL     1       0.009  -0.838  -1.122  0.00  0.00    +0.043 A 
ATOM      4  C   UNL     1       0.027  -2.137  -0.673  0.00  0.00    +0.116 A 
ATOM      5  O   UNL     1       0.035  -2.112   0.658  0.00  0.00    -0.454 OA
ATOM      6  C   UNL     1       0.024  -0.831   1.091  0.00  0.00    +0.193 A 
ATOM      7  C   UNL     1       0.033  -3.326  -1.600  0.00  0.00    +0.081 C 
ATOM      8  C   UNL     1      -0.492  -2.902  -2.974  0.00  0.00    -0.023 C 
ATOM      9  C   UNL     1       0.279  -1.685  -3.495  0.00  0.00    +0.064 C 
ATOM     10  C   UNL     1       0.000  -0.512  -2.566  0.00  0.00    +0.073 C 
ATOM     11  N   UNL     1      -0.227   0.686  -3.007  0.00  0.00    -0.175 NA
ATOM     12  C   UNL     1      -1.976  -2.549  -2.860  0.00  0.00    +0.011 C 
ATOM     13  C   UNL     1      -0.325  -4.063  -3.957  0.00  0.00    +0.011 C 
ENDROOT
BRANCH  11  14
ATOM     14  N   UNL     1      -0.223   0.938  -4.386  0.00  0.00    -0.248 N 
ATOM     15  C   UNL     1      -0.463   2.203  -4.851  0.00  0.00    +0.187 C 
ATOM     16  N   UNL     1      -0.459   2.442  -6.162  0.00  0.00    -0.370 N 
ATOM     17  N   UNL     1      -0.701   3.195  -3.994  0.00  0.00    -0.370 N 
ATOM     18  H   UNL     1      -0.049   0.216  -5.010  0.00  0.00    +0.192 HD
ATOM     19  H   UNL     1      -0.285   1.720  -6.787  0.00  0.00    +0.159 HD
ATOM     20  H   UNL     1      -0.705   3.021  -3.039  0.00  0.00    +0.159 HD
ATOM     21  H   UNL     1      -0.872   4.091  -4.324  0.00  0.00    +0.159 HD
ATOM     22  H   UNL     1      -0.629   3.338  -6.492  0.00  0.00    +0.159 HD
ENDBRANCH  11  14
BRANCH   6  23
ATOM     23  C   UNL     1       0.031  -0.400   2.493  0.00  0.00    +0.284 C 
ATOM     24  O   UNL     1       0.017   0.786   2.766  0.00  0.00    -0.266 OA
ATOM     25  N   UNL     1       0.053  -1.318   3.480  0.00  0.00    -0.273 N 
ATOM     26  H   UNL     1       0.065  -2.263   3.263  0.00  0.00    +0.156 HD
BRANCH  25  27
ATOM     27  C   UNL     1       0.060  -0.912   4.803  0.00  0.00    +0.087 A 
ATOM     28  C   UNL     1       0.088  -1.707   5.940  0.00  0.00    +0.091 A 
ATOM     29  C   UNL     1       0.089  -1.028   7.225  0.00  0.00    -0.021 A 
ATOM     30  C   UNL     1       0.061   0.319   7.138  0.00  0.00    -0.004 A 
ATOM     31  S   UNL     1       0.044   0.657   5.402  0.00  0.00    -0.077 S 
ATOM     32  C   UNL     1       0.053   1.293   8.275  0.00  0.00    +0.043 C 
ATOM     33  C   UNL     1      -0.300   0.531   9.561  0.00  0.00    +0.005 C 
ATOM     34  C   UNL     1       0.562  -0.732   9.641  0.00  0.00    +0.005 C 
ATOM     35  C   UNL     1       0.118  -1.734   8.573  0.00  0.00    +0.037 C 
BRANCH  28  36
ATOM     36  C   UNL     1       0.115  -3.168   5.849  0.00  0.00    +0.342 C 
ATOM     37  O   UNL     1       1.179  -3.755   5.800  0.00  0.00    -0.245 OA
BRANCH  36  38
ATOM     38  O   UNL     1      -1.041  -3.863   5.819  0.00  0.00    -0.464 OA
ATOM     39  C   UNL     1      -0.940  -5.286   5.729  0.00  0.00    +0.280 C 
ENDBRANCH  36  38
ENDBRANCH  28  36
ENDBRANCH  25  27
ENDBRANCH   6  23
TORSDOF 5
