REMARK  Name = ZINC36751680
REMARK  3 active torsions:
REMARK  status: ('A' for Active; 'I' for Inactive)
REMARK    1  A    between atoms: C_4  and  N_8
REMARK    2  A    between atoms: N_8  and  C_9
REMARK    3  A    between atoms: C_14  and  N_15
REMARK                            x       y       z     vdW  Elec       q    Type
REMARK                         _______ _______ _______ _____ _____    ______ ____
ROOT
ATOM      1  C   UNL     1       3.591  -2.050   0.049  0.00  0.00    +0.054 A 
ATOM      2  C   UNL     1       2.377  -2.720   0.043  0.00  0.00    +0.048 A 
ATOM      3  C   UNL     1       2.350  -4.105   0.127  0.00  0.00    +0.038 A 
ATOM      4  C   UNL     1       3.538  -4.819   0.216  0.00  0.00    -0.024 A 
ATOM      5  C   UNL     1       4.749  -4.154   0.222  0.00  0.00    +0.030 A 
ATOM      6  C   UNL     1       4.782  -2.771   0.133  0.00  0.00    +0.046 A 
ATOM      7  C   UNL     1       3.502  -6.323   0.306  0.00  0.00    +0.046 C 
ATOM      8  C   UNL     1       2.267  -6.760   1.093  0.00  0.00    +0.101 C 
ATOM      9  C   UNL     1       1.047  -6.052   0.566  0.00  0.00    +0.218 C 
ATOM     10  O   UNL     1      -0.018  -6.632   0.542  0.00  0.00    -0.275 OA
ATOM     11  N   UNL     1       1.125  -4.785   0.122  0.00  0.00    -0.285 N 
ATOM     12  H   UNL     1       0.328  -4.338  -0.204  0.00  0.00    +0.155 HD
ENDROOT
BRANCH   6  13
ATOM     13  N   UNL     1       6.011  -2.097   0.133  0.00  0.00    -0.357 N 
ATOM     14  H   UNL     1       6.034  -1.129   0.075  0.00  0.00    +0.142 HD
ATOM     15  H   UNL     1       6.840  -2.599   0.192  0.00  0.00    +0.142 HD
ENDBRANCH   6  13
BRANCH   1  16
ATOM     16  N   UNL     1       3.621  -0.653  -0.037  0.00  0.00    -0.311 N 
ATOM     17  H   UNL     1       4.464  -0.180   0.051  0.00  0.00    +0.152 HD
BRANCH  16  21
ATOM     18  C   UNL     1       0.094   1.474  -0.667  0.00  0.00    +0.018 A 
ATOM     19  C   UNL     1       1.014   1.925   0.263  0.00  0.00    +0.041 A 
ATOM     20  C   UNL     1       2.185   1.222   0.475  0.00  0.00    +0.144 A 
ATOM     21  C   UNL     1       2.438   0.060  -0.248  0.00  0.00    +0.068 A 
ATOM     22  C   UNL     1       1.512  -0.388  -1.180  0.00  0.00    +0.041 A 
ATOM     23  C   UNL     1       0.342   0.320  -1.387  0.00  0.00    +0.020 A 
ATOM     24 BR   UNL     1      -0.919  -0.292  -2.656  0.00  0.00    -0.050 Br
ATOM     25  F   UNL     1       3.083   1.663   1.383  0.00  0.00    -0.204 F 
ENDBRANCH  16  21
ENDBRANCH   1  16
TORSDOF 3
