REMARK  Name = ZINC44021154
REMARK  5 active torsions:
REMARK  status: ('A' for Active; 'I' for Inactive)
REMARK    1  A    between atoms: C_1  and  S_2
REMARK    2  A    between atoms: S_2  and  C_3
REMARK    3  A    between atoms: C_8  and  N_9
REMARK    4  A    between atoms: N_9  and  C_10
REMARK    5  A    between atoms: N_14  and  C_19
REMARK                            x       y       z     vdW  Elec       q    Type
REMARK                         _______ _______ _______ _____ _____    ______ ____
ROOT
ATOM      1  C   UNL     1      -1.531  -4.094   0.053  0.00  0.00    +0.109 A 
ATOM      2  C   UNL     1      -0.644  -5.120   0.225  0.00  0.00    +0.112 A 
ATOM      3  C   UNL     1      -1.127  -6.437   0.284  0.00  0.00    +0.259 A 
ATOM      4  O   UNL     1      -0.354  -7.367   0.436  0.00  0.00    -0.267 OA
ATOM      5  N   UNL     1      -2.450  -6.666   0.171  0.00  0.00    -0.255 N 
ATOM      6  C   UNL     1      -3.310  -5.645   0.003  0.00  0.00    +0.331 A 
ATOM      7  O   UNL     1      -4.500  -5.874  -0.097  0.00  0.00    -0.246 OA
ATOM      8  N   UNL     1      -2.873  -4.373  -0.052  0.00  0.00    -0.295 N 
ATOM      9  H   UNL     1      -3.508  -3.649  -0.170  0.00  0.00    +0.172 HD
ENDROOT
BRANCH   5  10
ATOM     10  C   UNL     1      -2.957  -8.039   0.232  0.00  0.00    +0.054 C 
ATOM     11  C   UNL     1      -3.937  -8.170   1.400  0.00  0.00    +0.032 C 
ATOM     12  C   UNL     1      -4.466  -9.604   1.463  0.00  0.00    -0.008 C 
ATOM     13  C   UNL     1      -3.297 -10.570   1.667  0.00  0.00    +0.007 C 
ATOM     14  C   UNL     1      -2.318 -10.440   0.499  0.00  0.00    -0.008 C 
ATOM     15  C   UNL     1      -1.788  -9.005   0.435  0.00  0.00    +0.032 C 
ATOM     16  C   UNL     1      -3.036 -10.776  -0.809  0.00  0.00    +0.007 C 
ATOM     17  C   UNL     1      -4.205  -9.810  -1.013  0.00  0.00    -0.008 C 
ATOM     18  C   UNL     1      -5.184  -9.941   0.155  0.00  0.00    +0.007 C 
ATOM     19  C   UNL     1      -3.675  -8.376  -1.077  0.00  0.00    +0.032 C 
ENDBRANCH   5  10
BRANCH   1  20
ATOM     20  N   UNL     1      -1.087  -2.797  -0.007  0.00  0.00    -0.300 N 
ATOM     21  H   UNL     1      -0.573  -2.426   0.726  0.00  0.00    +0.154 HD
BRANCH  20  27
ATOM     22  C   UNL     1      -1.034  -0.657  -1.141  0.00  0.00    +0.029 A 
ATOM     23  C   UNL     1      -1.318   0.116  -2.258  0.00  0.00    +0.016 A 
ATOM     24  C   UNL     1      -1.943  -0.453  -3.352  0.00  0.00    +0.001 A 
ATOM     25  C   UNL     1      -2.288  -1.793  -3.337  0.00  0.00    +0.002 A 
ATOM     26  C   UNL     1      -2.008  -2.571  -2.228  0.00  0.00    +0.024 A 
ATOM     27  C   UNL     1      -1.376  -2.010  -1.129  0.00  0.00    +0.046 A 
BRANCH  22  29
ATOM     28  C   UNL     1      -0.001   1.799  -0.224  0.00  0.00    +0.090 C 
ATOM     29  S   UNL     1      -0.237   0.066   0.254  0.00  0.00    -0.127 S 
ENDBRANCH  22  29
ENDBRANCH  20  27
ENDBRANCH   1  20
TORSDOF 4
