REMARK  Name = ZINC35095792
REMARK  12 active torsions:
REMARK  status: ('A' for Active; 'I' for Inactive)
REMARK    1  A    between atoms: C_1  and  C_2
REMARK    2  A    between atoms: C_2  and  C_39
REMARK    3  A    between atoms: C_7  and  C_11
REMARK    4  A    between atoms: C_11  and  N_12
REMARK    5  A    between atoms: N_12  and  C_13
REMARK    6  A    between atoms: N_12  and  C_22
REMARK    7  A    between atoms: C_13  and  C_14
REMARK    8  A    between atoms: C_14  and  C_15
REMARK    9  A    between atoms: C_15  and  C_16
REMARK   10  A    between atoms: C_22  and  C_23
REMARK   11  A    between atoms: C_23  and  N_24
REMARK   12  A    between atoms: C_30  and  C_32
REMARK                            x       y       z     vdW  Elec       q    Type
REMARK                         _______ _______ _______ _____ _____    ______ ____
ROOT
ATOM      1  N   UNL     1       3.535  -0.407   3.659  0.00  0.00    +0.383 N 
ATOM      2  H   UNL     1       2.585  -0.337   3.993  0.00  0.00    -0.081 HD
ENDROOT
BRANCH   1   3
ATOM      3  C   UNL     1       3.808   0.692   2.724  0.00  0.00    -0.047 C 
BRANCH   3   9
ATOM      4  C   UNL     1       6.662   2.598   0.879  0.00  0.00    +0.012 C 
ATOM      5  C   UNL     1       7.383   1.769   1.944  0.00  0.00    -0.025 C 
ATOM      6  C   UNL     1       7.793   0.361   1.468  0.00  0.00    -0.000 C 
ATOM      7  C   UNL     1       6.787  -0.184   0.444  0.00  0.00    +0.031 C 
ATOM      8  C   UNL     1       5.385  -0.049   0.987  0.00  0.00    -0.029 C 
ATOM      9  C   UNL     1       5.192   0.531   2.150  0.00  0.00    -0.086 C 
ATOM     10  C   UNL     1       6.434   1.033   2.909  0.00  0.00    +0.019 C 
ATOM     11  C   UNL     1       7.505  -0.085   2.912  0.00  0.00    +0.012 C 
ATOM     12  C   UNL     1       8.503   2.540   2.645  0.00  0.00    +0.012 C 
ENDBRANCH   3   9
ENDBRANCH   1   3
BRANCH   1  13
ATOM     13  C   UNL     1       4.461  -0.324   4.796  0.00  0.00    -0.078 C 
BRANCH  13  14
ATOM     14  C   UNL     1       4.185   0.957   5.586  0.00  0.00    -0.014 C 
BRANCH  14  15
ATOM     15  C   UNL     1       5.150   1.044   6.770  0.00  0.00    +0.033 C 
BRANCH  15  16
ATOM     16  C   UNL     1       4.878   2.306   7.548  0.00  0.00    -0.047 A 
ATOM     17  C   UNL     1       5.536   3.476   7.218  0.00  0.00    +0.003 A 
ATOM     18  C   UNL     1       5.287   4.634   7.931  0.00  0.00    +0.000 A 
ATOM     19  C   UNL     1       4.380   4.621   8.975  0.00  0.00    +0.000 A 
ATOM     20  C   UNL     1       3.722   3.451   9.304  0.00  0.00    +0.000 A 
ATOM     21  C   UNL     1       3.968   2.294   8.588  0.00  0.00    +0.003 A 
ENDBRANCH  15  16
ENDBRANCH  14  15
ENDBRANCH  13  14
ENDBRANCH   1  13
BRANCH   1  22
ATOM     22  C   UNL     1       3.718  -1.692   2.971  0.00  0.00    -0.063 C 
BRANCH  22  23
ATOM     23  C   UNL     1       2.646  -1.849   1.890  0.00  0.00    +0.066 C 
BRANCH  23  24
ATOM     24  N   UNL     1       2.896  -3.081   1.129  0.00  0.00    -0.301 NA
ATOM     25  C   UNL     1       2.579  -4.269   1.933  0.00  0.00    +0.103 C 
ATOM     26  C   UNL     1       3.021  -5.526   1.176  0.00  0.00    +0.123 C 
ATOM     27  N   UNL     1       2.414  -5.502  -0.164  0.00  0.00    -0.295 N 
ATOM     28  C   UNL     1       2.572  -4.287  -0.978  0.00  0.00    +0.123 C 
ATOM     29  C   UNL     1       2.148  -3.079  -0.135  0.00  0.00    +0.103 C 
ATOM     30  C   UNL     1       1.732  -6.565  -0.634  0.00  0.00    +0.249 C 
ATOM     31  O   UNL     1       1.524  -7.521   0.088  0.00  0.00    -0.270 OA
BRANCH  30  32
ATOM     32  C   UNL     1       1.237  -6.568  -2.025  0.00  0.00    +0.072 A 
ATOM     33  C   UNL     1       2.082  -6.192  -3.072  0.00  0.00    +0.016 A 
ATOM     34  C   UNL     1       1.614  -6.198  -4.368  0.00  0.00    +0.001 A 
ATOM     35  C   UNL     1       0.309  -6.575  -4.637  0.00  0.00    +0.003 A 
ATOM     36  C   UNL     1      -0.535  -6.949  -3.608  0.00  0.00    +0.039 A 
ATOM     37  C   UNL     1      -0.078  -6.954  -2.303  0.00  0.00    +0.135 A 
ATOM     38  F   UNL     1      -0.902  -7.325  -1.298  0.00  0.00    -0.205 F 
ENDBRANCH  30  32
ENDBRANCH  23  24
ENDBRANCH  22  23
ENDBRANCH   1  22
TORSDOF 10
