REMARK  Name = ZINC44714058
REMARK  9 active torsions:
REMARK  status: ('A' for Active; 'I' for Inactive)
REMARK    1  A    between atoms: C_1  and  C_2
REMARK    2  A    between atoms: C_3  and  C_9
REMARK    3  A    between atoms: C_4  and  C_8
REMARK    4  A    between atoms: C_9  and  C_11
REMARK    5  A    between atoms: C_9  and  N_12
REMARK    6  A    between atoms: C_13  and  C_15
REMARK    7  A    between atoms: C_26  and  C_28
REMARK    8  A    between atoms: C_33  and  O_34
REMARK    9  A    between atoms: O_34  and  C_35
REMARK                            x       y       z     vdW  Elec       q    Type
REMARK                         _______ _______ _______ _____ _____    ______ ____
ROOT
ATOM      1  C   UNL     1      -3.136  -1.665  -4.880  0.00  0.00    +0.100 C 
ATOM      2  C   UNL     1      -2.247  -2.828  -5.377  0.00  0.00    +0.121 C 
ATOM      3  N   UNL     1      -2.702  -3.081  -6.764  0.00  0.00    -0.296 N 
ATOM      4  C   UNL     1      -2.955  -1.731  -7.321  0.00  0.00    +0.115 C 
ATOM      5  C   UNL     1      -3.598  -0.947  -6.160  0.00  0.00    -0.004 C 
ATOM      6  C   UNL     1      -3.106   0.497  -6.162  0.00  0.00    -0.010 C 
ATOM      7  C   UNL     1      -3.627   1.207  -7.415  0.00  0.00    -0.082 C 
ATOM      8  N   UNL     1      -5.094   1.168  -7.428  0.00  0.00    +0.379 N 
ATOM      9  C   UNL     1      -5.558  -0.222  -7.519  0.00  0.00    -0.082 C 
ATOM     10  C   UNL     1      -5.119  -0.992  -6.271  0.00  0.00    -0.010 C 
ATOM     11  C   UNL     1      -2.853  -4.271  -7.380  0.00  0.00    +0.252 C 
ATOM     12  O   UNL     1      -3.145  -4.312  -8.559  0.00  0.00    -0.270 OA
ATOM     13  H   UNL     1      -5.447   1.584  -6.579  0.00  0.00    -0.086 HD
ATOM     14  H   UNL     1      -5.436   1.689  -8.222  0.00  0.00    -0.086 HD
ENDROOT
BRANCH  11  15
ATOM     15  C   UNL     1      -2.663  -5.522  -6.622  0.00  0.00    +0.099 A 
ATOM     16  C   UNL     1      -1.693  -5.606  -5.616  0.00  0.00    +0.020 A 
ATOM     17  C   UNL     1      -1.555  -6.803  -4.935  0.00  0.00    +0.021 A 
ATOM     18  C   UNL     1      -2.370  -7.871  -5.264  0.00  0.00    +0.114 A 
ATOM     19  N   UNL     1      -3.277  -7.770  -6.216  0.00  0.00    -0.220 NA
ATOM     20  C   UNL     1      -3.455  -6.648  -6.893  0.00  0.00    +0.233 A 
BRANCH  20  21
ATOM     21  O   UNL     1      -4.403  -6.588  -7.859  0.00  0.00    -0.437 OA
BRANCH  21  22
ATOM     22  C   UNL     1      -5.221  -7.661  -8.018  0.00  0.00    +0.130 A 
ATOM     23  C   UNL     1      -5.028  -8.530  -9.082  0.00  0.00    +0.046 A 
ATOM     24  C   UNL     1      -5.861  -9.621  -9.241  0.00  0.00    +0.004 A 
ATOM     25  C   UNL     1      -6.886  -9.847  -8.341  0.00  0.00    +0.000 A 
ATOM     26  C   UNL     1      -7.080  -8.982  -7.280  0.00  0.00    +0.004 A 
ATOM     27  C   UNL     1      -6.247  -7.893  -7.113  0.00  0.00    +0.046 A 
ENDBRANCH  21  22
ENDBRANCH  20  21
ENDBRANCH  11  15
BRANCH   1  29
ATOM     28  N   UNL     1      -2.967   0.079  -3.135  0.00  0.00    -0.308 N 
ATOM     29  C   UNL     1      -2.338  -0.728  -4.012  0.00  0.00    +0.219 C 
ATOM     30  O   UNL     1      -1.129  -0.699  -4.102  0.00  0.00    -0.275 OA
ATOM     31  H   UNL     1      -3.934   0.056  -3.062  0.00  0.00    +0.149 HD
BRANCH  28  32
ATOM     32  C   UNL     1      -2.191   0.991  -2.290  0.00  0.00    +0.104 C 
ATOM     33  C   UNL     1      -1.628   0.222  -1.093  0.00  0.00    +0.033 C 
BRANCH  32  36
ATOM     34  C   UNL     1      -5.074   0.661  -1.122  0.00  0.00    +0.065 C 
ATOM     35  C   UNL     1      -4.328   1.959  -1.294  0.00  0.00    +0.038 A 
ATOM     36  C   UNL     1      -3.082   2.103  -1.800  0.00  0.00    +0.015 A 
ATOM     37  C   UNL     1      -2.765   3.465  -1.786  0.00  0.00    +0.065 A 
ATOM     38  N   UNL     1      -3.786   4.116  -1.290  0.00  0.00    -0.179 NA
ATOM     39  N   UNL     1      -4.787   3.188  -0.977  0.00  0.00    -0.281 N 
ATOM     40  H   UNL     1      -5.656   3.392  -0.597  0.00  0.00    +0.189 HD
ATOM     41  C   UNL     1      -1.473   4.077  -2.261  0.00  0.00    +0.068 C 
ENDBRANCH  32  36
ENDBRANCH  28  32
ENDBRANCH   1  29
TORSDOF 6
