REMARK  Name = ZINC01772203
REMARK  16 active torsions:
REMARK  status: ('A' for Active; 'I' for Inactive)
REMARK    1  A    between atoms: C_1  and  C_2
REMARK    2  A    between atoms: C_2  and  C_3
REMARK    3  A    between atoms: C_3  and  C_4
REMARK    4  A    between atoms: C_4  and  N_65
REMARK    5  A    between atoms: C_5  and  C_6
REMARK    6  A    between atoms: C_5  and  N_65
REMARK    7  A    between atoms: C_6  and  C_7
REMARK    8  A    between atoms: C_7  and  C_8
REMARK    9  A    between atoms: C_9  and  C_10
REMARK   10  A    between atoms: C_9  and  N_65
REMARK   11  A    between atoms: C_11  and  O_34
REMARK   12  A    between atoms: C_17  and  C_30
REMARK   13  A    between atoms: C_18  and  O_21
REMARK   14  A    between atoms: O_21  and  C_22
REMARK   15  A    between atoms: C_25  and  O_28
REMARK   16  A    between atoms: O_28  and  C_29
REMARK                            x       y       z     vdW  Elec       q    Type
REMARK                         _______ _______ _______ _____ _____    ______ ____
ROOT
ATOM      1  C   UNL     1      -1.083   7.430  -0.256  0.00  0.00    +0.020 A 
ATOM      2  C   UNL     1      -1.010   8.112   0.947  0.00  0.00    +0.122 A 
ATOM      3  C   UNL     1      -1.040   7.421   2.157  0.00  0.00    +0.046 A 
ATOM      4  C   UNL     1      -1.142   6.059   2.172  0.00  0.00    +0.019 A 
ATOM      5  C   UNL     1      -1.217   5.357   0.969  0.00  0.00    +0.068 A 
ATOM      6  C   UNL     1      -1.187   6.046  -0.257  0.00  0.00    +0.144 A 
ATOM      7  O   UNL     1      -1.260   5.357  -1.414  0.00  0.00    -0.447 OA
ATOM      8  C   UNL     1      -1.362   4.022  -1.449  0.00  0.00    +0.254 A 
ATOM      9  C   UNL     1      -1.399   3.264  -0.335  0.00  0.00    +0.222 A 
ATOM     10  C   UNL     1      -1.333   3.889   0.942  0.00  0.00    +0.235 A 
ATOM     11  O   UNL     1      -1.368   3.236   1.972  0.00  0.00    -0.283 OA
ENDROOT
BRANCH   8  12
ATOM     12  C   UNL     1      -1.438   3.338  -2.790  0.00  0.00    +0.454 C 
ATOM     13  F   UNL     1      -2.776   3.226  -3.181  0.00  0.00    -0.163 F 
ATOM     14  F   UNL     1      -0.737   4.092  -3.738  0.00  0.00    -0.163 F 
ATOM     15  F   UNL     1      -0.870   2.063  -2.696  0.00  0.00    -0.163 F 
ENDBRANCH   8  12
BRANCH   2  16
ATOM     16  O   UNL     1      -0.909   9.466   0.947  0.00  0.00    -0.506 OA
ATOM     17  H   UNL     1      -1.754   9.924   1.051  0.00  0.00    +0.292 HD
ENDBRANCH   2  16
BRANCH   1  18
ATOM     18  C   UNL     1      -1.051   8.187  -1.558  0.00  0.00    -0.036 C 
BRANCH  18  19
ATOM     19  N   UNL     1      -2.436   8.346  -2.049  0.00  0.00    +0.383 N 
ATOM     20  H   UNL     1      -2.943   7.464  -1.909  0.00  0.00    -0.081 HD
BRANCH  19  21
ATOM     21  C   UNL     1      -3.120   9.417  -1.294  0.00  0.00    -0.078 C 
BRANCH  21  22
ATOM     22  C   UNL     1      -2.435  10.764  -1.534  0.00  0.00    -0.019 C 
BRANCH  22  24
ATOM     23  C   UNL     1      -2.406  13.180  -0.897  0.00  0.00    +0.004 C 
ATOM     24  C   UNL     1      -3.091  11.832  -0.657  0.00  0.00    -0.005 C 
ENDBRANCH  22  24
ENDBRANCH  21  22
ENDBRANCH  19  21
BRANCH  19  25
ATOM     25  C   UNL     1      -2.428   8.671  -3.491  0.00  0.00    -0.078 C 
BRANCH  25  26
ATOM     26  C   UNL     1      -3.842   8.489  -4.044  0.00  0.00    -0.019 C 
BRANCH  26  27
ATOM     27  C   UNL     1      -3.823   8.675  -5.563  0.00  0.00    -0.005 C 
ATOM     28  C   UNL     1      -5.238   8.493  -6.116  0.00  0.00    +0.004 C 
ENDBRANCH  26  27
ENDBRANCH  25  26
ENDBRANCH  19  25
ENDBRANCH  18  19
ENDBRANCH   1  18
BRANCH   9  29
ATOM     29  O   UNL     1      -1.503   1.910  -0.431  0.00  0.00    -0.448 OA
BRANCH  29  30
ATOM     30  C   UNL     1      -0.355   1.185  -0.498  0.00  0.00    +0.129 A 
ATOM     31  C   UNL     1       0.874   1.827  -0.474  0.00  0.00    +0.050 A 
ATOM     32  C   UNL     1       2.040   1.091  -0.547  0.00  0.00    +0.049 A 
ATOM     33  C   UNL     1       1.982  -0.292  -0.646  0.00  0.00    +0.120 A 
ATOM     34  C   UNL     1       0.753  -0.935  -0.670  0.00  0.00    +0.049 A 
ATOM     35  C   UNL     1      -0.413  -0.198  -0.596  0.00  0.00    +0.050 A 
BRANCH  33  36
ATOM     36  O   UNL     1       3.130  -1.017  -0.719  0.00  0.00    -0.495 OA
ATOM     37  C   UNL     1       4.360  -0.290  -0.689  0.00  0.00    +0.277 C 
ENDBRANCH  33  36
ENDBRANCH  29  30
ENDBRANCH   9  29
TORSDOF 13
