REMARK  Name = ZINC13213174
REMARK  7 active torsions:
REMARK  status: ('A' for Active; 'I' for Inactive)
REMARK    1  A    between atoms: C_3  and  C_34
REMARK    2  A    between atoms: C_5  and  N_7
REMARK    3  A    between atoms: C_8  and  C_24
REMARK    4  A    between atoms: C_10  and  C_15
REMARK    5  A    between atoms: C_15  and  C_17
REMARK    6  A    between atoms: C_27  and  O_30
REMARK    7  A    between atoms: O_30  and  C_31
REMARK                            x       y       z     vdW  Elec       q    Type
REMARK                         _______ _______ _______ _____ _____    ______ ____
ROOT
ATOM      1  N   UNL     1       1.199  -2.077  -0.001  0.00  0.00    -0.253 N 
ATOM      2  C   UNL     1       0.025  -2.958   0.016  0.00  0.00    +0.150 C 
ATOM      3  C   UNL     1       0.558  -4.371  -0.021  0.00  0.00    +0.077 C 
ATOM      4  C   UNL     1       1.909  -4.278  -0.055  0.00  0.00    +0.250 C 
ATOM      5  C   UNL     1       2.298  -2.853  -0.047  0.00  0.00    +0.292 C 
ATOM      6  O   UNL     1       3.441  -2.442  -0.077  0.00  0.00    -0.266 OA
ATOM      7  O   UNL     1       2.766  -5.324  -0.094  0.00  0.00    -0.282 OA
ENDROOT
BRANCH   1  12
ATOM      8  C   UNL     1      -0.059   1.379   0.092  0.00  0.00    +0.003 A 
ATOM      9  C   UNL     1       1.119   2.097   0.067  0.00  0.00    +0.015 A 
ATOM     10  C   UNL     1       2.344   1.426   0.019  0.00  0.00    +0.065 A 
ATOM     11  C   UNL     1       2.370   0.030  -0.004  0.00  0.00    +0.038 A 
ATOM     12  C   UNL     1       1.180  -0.680   0.022  0.00  0.00    +0.038 A 
ATOM     13  C   UNL     1      -0.034  -0.002   0.070  0.00  0.00    +0.023 A 
BRANCH  10  14
ATOM     14  C   UNL     1       3.606   2.191  -0.009  0.00  0.00    +0.387 C 
ATOM     15  O   UNL     1       3.581   3.413   0.011  0.00  0.00    -0.241 OA
ATOM     16  O   UNL     1       4.677   1.601  -0.051  0.00  0.00    -0.241 OA
ENDBRANCH  10  14
ENDBRANCH   1  12
BRANCH   2  17
ATOM     17  C   UNL     1      -0.771  -2.736   1.276  0.00  0.00    -0.022 A 
ATOM     18  C   UNL     1      -0.123  -2.640   2.494  0.00  0.00    +0.009 A 
ATOM     19  C   UNL     1      -0.851  -2.437   3.651  0.00  0.00    +0.046 A 
ATOM     20  C   UNL     1      -2.233  -2.329   3.589  0.00  0.00    +0.127 A 
ATOM     21  C   UNL     1      -2.880  -2.425   2.366  0.00  0.00    +0.046 A 
ATOM     22  C   UNL     1      -2.147  -2.623   1.212  0.00  0.00    +0.009 A 
BRANCH  20  23
ATOM     23  O   UNL     1      -2.951  -2.130   4.726  0.00  0.00    -0.434 OA
BRANCH  23  24
ATOM     24  C   UNL     1      -4.370  -2.028   4.587  0.00  0.00    +0.541 C 
ATOM     25  F   UNL     1      -4.681  -0.949   3.752  0.00  0.00    -0.166 F 
ATOM     26  F   UNL     1      -4.870  -3.209   4.029  0.00  0.00    -0.166 F 
ENDBRANCH  23  24
ENDBRANCH  20  23
ENDBRANCH   2  17
BRANCH   3  27
ATOM     27  C   UNL     1      -0.233  -5.605  -0.020  0.00  0.00    +0.195 C 
ATOM     28  O   UNL     1      -0.174  -6.365   0.928  0.00  0.00    -0.287 OA
BRANCH  27  29
ATOM     29  C   UNL     1      -1.104  -5.924  -1.170  0.00  0.00    +0.022 A 
ATOM     30  C   UNL     1      -1.082  -5.119  -2.312  0.00  0.00    +0.014 A 
ATOM     31  C   UNL     1      -1.896  -5.422  -3.381  0.00  0.00    +0.039 A 
ATOM     32  C   UNL     1      -2.736  -6.524  -3.326  0.00  0.00    +0.123 A 
ATOM     33  C   UNL     1      -2.763  -7.327  -2.196  0.00  0.00    +0.039 A 
ATOM     34  C   UNL     1      -1.949  -7.037  -1.122  0.00  0.00    +0.014 A 
ATOM     35  F   UNL     1      -3.532  -6.817  -4.378  0.00  0.00    -0.205 F 
ENDBRANCH  27  29
ENDBRANCH   3  27
TORSDOF 7
