REMARK  Name = ZINC12151695
REMARK  12 active torsions:
REMARK  status: ('A' for Active; 'I' for Inactive)
REMARK    1  A    between atoms: C_1  and  C_2
REMARK    2  A    between atoms: C_2  and  C_4
REMARK    3  A    between atoms: C_2  and  N_61
REMARK    4  A    between atoms: C_9  and  N_61
REMARK    5  A    between atoms: C_10  and  C_11
REMARK    6  A    between atoms: C_10  and  N_61
REMARK    7  A    between atoms: C_15  and  N_24
REMARK    8  A    between atoms: C_16  and  C_20
REMARK    9  A    between atoms: C_20  and  O_22
REMARK   10  A    between atoms: O_22  and  C_23
REMARK   11  A    between atoms: C_25  and  C_27
REMARK   12  A    between atoms: C_27  and  C_28
REMARK                            x       y       z     vdW  Elec       q    Type
REMARK                         _______ _______ _______ _____ _____    ______ ____
ROOT
ATOM      1  C   UNL     1       2.896  -1.127   2.675  0.00  0.00    +0.026 A 
ATOM      2  C   UNL     1       3.292   0.012   3.361  0.00  0.00    +0.022 A 
ATOM      3  C   UNL     1       4.495   0.614   3.075  0.00  0.00    +0.014 A 
ATOM      4  C   UNL     1       5.322   0.051   2.071  0.00  0.00    +0.030 A 
ATOM      5  C   UNL     1       6.621   0.509   1.604  0.00  0.00    +0.064 A 
ATOM      6  C   UNL     1       7.246  -0.206   0.605  0.00  0.00    +0.120 A 
ATOM      7  S   UNL     1       6.097  -1.524   0.261  0.00  0.00    -0.060 S 
ATOM      8  C   UNL     1       4.828  -1.109   1.432  0.00  0.00    +0.111 A 
ATOM      9  N   UNL     1       3.671  -1.650   1.745  0.00  0.00    -0.246 NA
ENDROOT
BRANCH   5  10
ATOM     10  N   UNL     1       7.218   1.640   2.151  0.00  0.00    -0.284 N 
ATOM     11  C   UNL     1       6.499   2.767   2.318  0.00  0.00    +0.218 C 
ATOM     12  O   UNL     1       5.309   2.768   2.084  0.00  0.00    -0.275 OA
ATOM     13  H   UNL     1       8.152   1.617   2.413  0.00  0.00    +0.155 HD
BRANCH  11  14
ATOM     14  C   UNL     1       7.174   4.027   2.797  0.00  0.00    +0.099 C 
BRANCH  14  15
ATOM     15  C   UNL     1       6.141   5.151   2.901  0.00  0.00    -0.002 C 
ATOM     16  C   UNL     1       5.644   5.544   1.494  0.00  0.00    +0.004 C 
ATOM     17  C   UNL     1       5.464   7.081   1.572  0.00  0.00    +0.000 C 
ATOM     18  C   UNL     1       6.664   7.522   2.447  0.00  0.00    +0.000 C 
ATOM     19  C   UNL     1       6.788   6.408   3.507  0.00  0.00    +0.004 C 
ENDBRANCH  14  15
ENDBRANCH  11  14
ENDBRANCH   5  10
BRANCH   6  20
ATOM     20  C   UNL     1       8.501   0.047  -0.003  0.00  0.00    +0.348 C 
ATOM     21  O   UNL     1       9.209   0.944   0.414  0.00  0.00    -0.244 OA
BRANCH  20  22
ATOM     22  O   UNL     1       8.910  -0.707  -1.045  0.00  0.00    -0.464 OA
ATOM     23  C   UNL     1      10.186  -0.396  -1.609  0.00  0.00    +0.280 C 
ENDBRANCH  20  22
ENDBRANCH   6  20
BRANCH   1  24
ATOM     24  C   UNL     1       1.575  -1.775   3.000  0.00  0.00    -0.022 C 
BRANCH  24  26
ATOM     25  C   UNL     1       0.294   0.149   2.279  0.00  0.00    -0.095 C 
ATOM     26  N   UNL     1       0.557  -1.287   2.046  0.00  0.00    +0.386 N 
ATOM     27  H   UNL     1       0.910  -1.411   1.090  0.00  0.00    -0.081 HD
BRANCH  26  29
ATOM     28  C   UNL     1      -1.736  -1.521   1.221  0.00  0.00    -0.008 C 
ATOM     29  C   UNL     1      -0.693  -2.061   2.201  0.00  0.00    -0.034 C 
BRANCH  29  30
ATOM     30  C   UNL     1      -0.412  -3.508   1.889  0.00  0.00    -0.024 A 
ATOM     31  C   UNL     1      -0.833  -4.619   2.542  0.00  0.00    +0.009 A 
ATOM     32  C   UNL     1      -0.448  -5.860   2.070  0.00  0.00    +0.008 A 
ATOM     33  C   UNL     1       0.339  -5.929   0.968  0.00  0.00    +0.045 A 
ATOM     34  S   UNL     1       0.553  -4.205   0.558  0.00  0.00    -0.103 S 
ENDBRANCH  29  30
ENDBRANCH  26  29
ENDBRANCH  24  26
ENDBRANCH   1  24
TORSDOF 9
