REMARK  Name = ZINC09234974
REMARK  2 active torsions:
REMARK  status: ('A' for Active; 'I' for Inactive)
REMARK    1  A    between atoms: C_1  and  C_2
REMARK    2  A    between atoms: N_23  and  C_26
REMARK                            x       y       z     vdW  Elec       q    Type
REMARK                         _______ _______ _______ _____ _____    ______ ____
ROOT
ATOM      1  C   UNL     1      -5.963   9.409   2.286  0.00  0.00    +0.047 C 
ATOM      2  C   UNL     1      -4.911   8.332   2.211  0.00  0.00    -0.011 A 
ATOM      3  C   UNL     1      -5.234   7.030   2.536  0.00  0.00    +0.046 A 
ATOM      4  C   UNL     1      -4.274   6.035   2.471  0.00  0.00    +0.020 A 
ATOM      5  C   UNL     1      -2.985   6.348   2.077  0.00  0.00    +0.006 A 
ATOM      6  C   UNL     1      -2.660   7.645   1.751  0.00  0.00    -0.027 A 
ATOM      7  C   UNL     1      -3.616   8.655   1.814  0.00  0.00    +0.040 A 
ATOM      8  N   UNL     1      -3.053   9.877   1.442  0.00  0.00    -0.286 N 
ATOM      9  C   UNL     1      -1.749   9.761   1.125  0.00  0.00    +0.212 C 
ATOM     10  O   UNL     1      -1.008  10.652   0.769  0.00  0.00    -0.277 OA
ATOM     11  C   UNL     1      -1.389   8.310   1.298  0.00  0.00    +0.053 C 
ATOM     12  C   UNL     1      -0.877   7.701  -0.012  0.00  0.00    +0.089 C 
ATOM     13  C   UNL     1       0.671   7.721   0.106  0.00  0.00    +0.074 C 
ATOM     14  C   UNL     1       0.947   8.344   1.504  0.00  0.00    -0.054 C 
ATOM     15  C   UNL     1      -0.251   6.721   2.722  0.00  0.00    -0.076 C 
ATOM     16  C   UNL     1       1.233   6.458   3.047  0.00  0.00    -0.020 C 
ATOM     17  C   UNL     1       2.015   7.510   2.235  0.00  0.00    -0.016 C 
ATOM     18  C   UNL     1       1.039   6.255   0.130  0.00  0.00    +0.228 C 
ATOM     19  O   UNL     1       2.165   5.816   0.222  0.00  0.00    -0.275 OA
ATOM     20  N   UNL     1      -0.073   5.517   0.032  0.00  0.00    -0.210 N 
ATOM     21  C   UNL     1      -1.205   6.225  -0.051  0.00  0.00    +0.229 C 
ATOM     22  O   UNL     1      -2.319   5.757  -0.144  0.00  0.00    -0.275 OA
ATOM     23 CL   UNL     1      -6.852   6.638   3.030  0.00  0.00    -0.083 Cl
ATOM     24  H   UNL     1      -3.543  10.714   1.415  0.00  0.00    +0.155 HD
ATOM     25  N   UNL     1      -0.279   8.116   2.235  0.00  0.00    +0.395 N 
ATOM     26  H   UNL     1      -0.361   8.766   3.025  0.00  0.00    -0.079 HD
ENDROOT
BRANCH  20  27
ATOM     27  C   UNL     1      -0.054   4.114   0.024  0.00  0.00    +0.044 A 
ATOM     28  C   UNL     1      -0.588   3.406   1.092  0.00  0.00    +0.027 A 
ATOM     29  C   UNL     1      -0.569   2.025   1.082  0.00  0.00    +0.040 A 
ATOM     30  C   UNL     1      -0.018   1.347   0.007  0.00  0.00    +0.124 A 
ATOM     31  C   UNL     1       0.521   2.052  -1.056  0.00  0.00    +0.040 A 
ATOM     32  C   UNL     1       0.499   3.433  -1.052  0.00  0.00    +0.027 A 
ATOM     33  F   UNL     1       0.000  -0.004  -0.001  0.00  0.00    -0.205 F 
ENDBRANCH  20  27
TORSDOF 1
