REMARK  Name = ZINC20527591
REMARK  10 active torsions:
REMARK  status: ('A' for Active; 'I' for Inactive)
REMARK    1  A    between atoms: C_1  and  N_2
REMARK    2  A    between atoms: N_2  and  C_3
REMARK    3  A    between atoms: N_2  and  C_4
REMARK    4  A    between atoms: C_7  and  C_10
REMARK    5  A    between atoms: N_11  and  N_12
REMARK    6  A    between atoms: C_16  and  S_19
REMARK    7  A    between atoms: N_17  and  N_18
REMARK    8  A    between atoms: S_19  and  C_20
REMARK    9  A    between atoms: C_20  and  C_21
REMARK   10  A    between atoms: N_23  and  C_24
REMARK                            x       y       z     vdW  Elec       q    Type
REMARK                         _______ _______ _______ _____ _____    ______ ____
ROOT
ATOM      1  N   UNL     1      -0.086   1.580   0.046  0.00  0.00    -0.204 N 
ATOM      2  C   UNL     1      -0.076   0.193   0.029  0.00  0.00    +0.254 A 
ATOM      3  N   UNL     1      -1.132  -0.585   0.038  0.00  0.00    -0.109 NA
ATOM      4  N   UNL     1      -0.690  -1.914   0.010  0.00  0.00    -0.119 NA
ATOM      5  C   UNL     1       0.622  -1.905  -0.006  0.00  0.00    +0.210 A 
ATOM      6  N   UNL     1       1.035  -0.603   0.005  0.00  0.00    -0.211 N 
ATOM      7  H   UNL     1       0.863   2.137   0.046  0.00  0.00    +0.177 HD
ENDROOT
BRANCH   6   8
ATOM      8  N   UNL     1       2.331  -0.172  -0.007  0.00  0.00    -0.294 N 
ATOM      9  H   UNL     1       3.154  -0.902  -0.026  0.00  0.00    +0.163 HD
ATOM     10  H   UNL     1       2.552   0.906   0.003  0.00  0.00    +0.163 HD
ENDBRANCH   6   8
BRANCH   1  12
ATOM     11  C   UNL     1      -1.313   3.571   0.080  0.00  0.00    +0.138 C 
ATOM     12  N   UNL     1      -1.304   2.272   0.064  0.00  0.00    -0.188 NA
BRANCH  11  16
ATOM     13  C   UNL     1      -5.005   5.668   0.134  0.00  0.00    +0.029 A 
ATOM     14  C   UNL     1      -3.806   6.373   0.134  0.00  0.00    +0.024 A 
ATOM     15  C   UNL     1      -2.606   5.696   0.117  0.00  0.00    +0.011 A 
ATOM     16  C   UNL     1      -2.595   4.299   0.099  0.00  0.00    -0.005 A 
ATOM     17  C   UNL     1      -3.801   3.593   0.094  0.00  0.00    +0.011 A 
ATOM     18  C   UNL     1      -4.997   4.277   0.116  0.00  0.00    +0.024 A 
BRANCH  13  20
ATOM     19  C   UNL     1      -6.231   7.819   0.057  0.00  0.00    +0.129 C 
ATOM     20  N   UNL     1      -6.218   6.357   0.150  0.00  0.00    -0.336 N 
ATOM     21  C   UNL     1      -7.478   5.619   0.262  0.00  0.00    +0.129 C 
ENDBRANCH  13  20
ENDBRANCH  11  16
ENDBRANCH   1  12
BRANCH   5  22
ATOM     22  S   UNL     1       1.667  -3.323  -0.037  0.00  0.00    -0.075 S 
BRANCH  22  23
ATOM     23  C   UNL     1       0.511  -4.721  -0.040  0.00  0.00    +0.173 C 
BRANCH  23  24
ATOM     24  C   UNL     1       1.286  -6.013  -0.066  0.00  0.00    +0.228 C 
ATOM     25  O   UNL     1       2.498  -5.993  -0.081  0.00  0.00    -0.275 OA
ATOM     26  N   UNL     1       0.631  -7.191  -0.072  0.00  0.00    -0.284 N 
ATOM     27  H   UNL     1      -0.465  -7.211   0.016  0.00  0.00    +0.155 HD
BRANCH  26  28
ATOM     28  C   UNL     1       1.344  -8.385  -0.192  0.00  0.00    +0.041 A 
ATOM     29  C   UNL     1       2.591  -8.511   0.382  0.00  0.00    +0.024 A 
ATOM     30  C   UNL     1       3.310  -9.697   0.269  0.00  0.00    +0.002 A 
ATOM     31  C   UNL     1       2.804 -10.764  -0.408  0.00  0.00    +0.008 A 
ATOM     32  C   UNL     1       1.536 -10.678  -1.007  0.00  0.00    -0.016 A 
ATOM     33  C   UNL     1       0.792  -9.477  -0.895  0.00  0.00    +0.003 A 
ATOM     34  C   UNL     1      -0.473  -9.390  -1.498  0.00  0.00    +0.010 A 
ATOM     35  C   UNL     1      -0.972 -10.462  -2.174  0.00  0.00    +0.001 A 
ATOM     36  C   UNL     1      -0.243 -11.645  -2.281  0.00  0.00    +0.001 A 
ATOM     37  C   UNL     1       0.988 -11.763  -1.713  0.00  0.00    +0.008 A 
ENDBRANCH  26  28
ENDBRANCH  23  24
ENDBRANCH  22  23
ENDBRANCH   5  22
TORSDOF 8
