REMARK  Name = ZINC35888061
REMARK  14 active torsions:
REMARK  status: ('A' for Active; 'I' for Inactive)
REMARK    1  A    between atoms: C_1  and  C_2
REMARK    2  A    between atoms: C_2  and  C_3
REMARK    3  A    between atoms: C_2  and  C_4
REMARK    4  A    between atoms: C_4  and  N_5
REMARK    5  A    between atoms: N_5  and  C_6
REMARK    6  A    between atoms: C_6  and  C_7
REMARK    7  A    between atoms: N_10  and  C_22
REMARK    8  A    between atoms: C_12  and  C_14
REMARK    9  A    between atoms: C_17  and  O_20
REMARK   10  A    between atoms: O_20  and  C_21
REMARK   11  A    between atoms: C_22  and  C_23
REMARK   12  A    between atoms: C_28  and  O_29
REMARK   13  A    between atoms: O_29  and  C_30
REMARK   14  A    between atoms: C_31  and  C_33
REMARK                            x       y       z     vdW  Elec       q    Type
REMARK                         _______ _______ _______ _____ _____    ______ ____
ROOT
ATOM      1  C   UNL     1      -2.888  -3.246   1.716  0.00  0.00    -0.005 C 
ATOM      2  C   UNL     1      -3.867  -2.269   2.402  0.00  0.00    -0.073 C 
ATOM      3  N   UNL     1      -4.592  -3.102   3.396  0.00  0.00    +0.383 N 
ATOM      4  C   UNL     1      -3.547  -3.999   3.952  0.00  0.00    -0.070 C 
ATOM      5  C   UNL     1      -2.677  -4.386   2.733  0.00  0.00    +0.005 C 
ATOM      6  H   UNL     1      -5.316  -3.640   2.945  0.00  0.00    -0.081 HD
ENDROOT
BRANCH   5   7
ATOM      7  C   UNL     1      -1.226  -4.471   3.131  0.00  0.00    -0.046 A 
ATOM      8  C   UNL     1      -0.449  -5.524   2.685  0.00  0.00    +0.007 A 
ATOM      9  C   UNL     1       0.881  -5.605   3.048  0.00  0.00    +0.046 A 
ATOM     10  C   UNL     1       1.438  -4.628   3.861  0.00  0.00    +0.120 A 
ATOM     11  C   UNL     1       0.656  -3.572   4.306  0.00  0.00    +0.046 A 
ATOM     12  C   UNL     1      -0.672  -3.493   3.936  0.00  0.00    +0.007 A 
BRANCH  10  13
ATOM     13  O   UNL     1       2.746  -4.705   4.220  0.00  0.00    -0.495 OA
ATOM     14  C   UNL     1       3.252  -3.664   5.058  0.00  0.00    +0.277 C 
ENDBRANCH  10  13
ENDBRANCH   5   7
BRANCH   1  15
ATOM     15  C   UNL     1      -1.560  -2.546   1.419  0.00  0.00    +0.110 C 
BRANCH  15  16
ATOM     16  N   UNL     1      -1.756  -1.558   0.355  0.00  0.00    -0.297 N 
ATOM     17  C   UNL     1      -1.598  -1.916  -0.935  0.00  0.00    +0.249 C 
ATOM     18  O   UNL     1      -1.680  -1.079  -1.812  0.00  0.00    -0.270 OA
BRANCH  17  19
ATOM     19  C   UNL     1      -1.325  -3.325  -1.282  0.00  0.00    +0.072 A 
ATOM     20  C   UNL     1      -0.208  -3.975  -0.751  0.00  0.00    +0.016 A 
ATOM     21  C   UNL     1       0.041  -5.291  -1.079  0.00  0.00    +0.001 A 
ATOM     22  C   UNL     1      -0.812  -5.970  -1.933  0.00  0.00    +0.003 A 
ATOM     23  C   UNL     1      -1.919  -5.335  -2.464  0.00  0.00    +0.039 A 
ATOM     24  C   UNL     1      -2.185  -4.017  -2.139  0.00  0.00    +0.135 A 
ATOM     25  F   UNL     1      -3.270  -3.398  -2.654  0.00  0.00    -0.205 F 
ENDBRANCH  17  19
BRANCH  16  26
ATOM     26  C   UNL     1      -2.124  -0.181   0.694  0.00  0.00    +0.111 C 
BRANCH  26  28
ATOM     27  C   UNL     1      -1.257   2.144   0.983  0.00  0.00    +0.009 C 
ATOM     28  C   UNL     1      -0.863   0.684   0.753  0.00  0.00    +0.000 C 
ATOM     29  C   UNL     1       0.028   0.209   1.902  0.00  0.00    +0.009 C 
ENDBRANCH  26  28
ENDBRANCH  16  26
ENDBRANCH  15  16
ENDBRANCH   1  15
BRANCH   3  30
ATOM     30  C   UNL     1      -5.161  -2.258   4.456  0.00  0.00    -0.039 C 
BRANCH  30  31
ATOM     31  C   UNL     1      -5.992  -3.108   5.382  0.00  0.00    -0.022 A 
ATOM     32  C   UNL     1      -7.367  -3.134   5.248  0.00  0.00    +0.005 A 
ATOM     33  C   UNL     1      -8.131  -3.913   6.098  0.00  0.00    +0.000 A 
ATOM     34  C   UNL     1      -7.521  -4.668   7.083  0.00  0.00    +0.004 A 
ATOM     35  C   UNL     1      -6.146  -4.645   7.221  0.00  0.00    +0.046 A 
ATOM     36  C   UNL     1      -5.378  -3.868   6.366  0.00  0.00    +0.121 A 
BRANCH  36  37
ATOM     37  O   UNL     1      -4.025  -3.849   6.495  0.00  0.00    -0.495 OA
ATOM     38  C   UNL     1      -3.461  -4.656   7.530  0.00  0.00    +0.277 C 
ENDBRANCH  36  37
ENDBRANCH  30  31
ENDBRANCH   3  30
TORSDOF 10
