REMARK  Name = ZINC28058487
REMARK  6 active torsions:
REMARK  status: ('A' for Active; 'I' for Inactive)
REMARK    1  A    between atoms: C_1  and  O_2
REMARK    2  A    between atoms: O_2  and  C_3
REMARK    3  A    between atoms: C_8  and  C_9
REMARK    4  A    between atoms: C_20  and  C_22
REMARK    5  A    between atoms: C_25  and  S_28
REMARK    6  A    between atoms: S_28  and  C_29
REMARK                            x       y       z     vdW  Elec       q    Type
REMARK                         _______ _______ _______ _____ _____    ______ ____
ROOT
ATOM      1  C   UNL     1      -0.826  -0.915   0.475  0.00  0.00    +0.177 C 
ATOM      2  C   UNL     1       0.205   0.017  -0.112  0.00  0.00    +0.026 C 
ATOM      3  C   UNL     1       1.301  -0.428  -0.729  0.00  0.00    +0.050 C 
ATOM      4  C   UNL     1       2.268   0.565  -1.254  0.00  0.00    +0.039 A 
ATOM      5  C   UNL     1       3.238   0.212  -2.185  0.00  0.00    +0.033 A 
ATOM      6  C   UNL     1       4.119   1.171  -2.647  0.00  0.00    +0.042 A 
ATOM      7  C   UNL     1       4.037   2.475  -2.187  0.00  0.00    +0.023 A 
ATOM      8  C   UNL     1       3.074   2.833  -1.261  0.00  0.00    +0.048 A 
ATOM      9  C   UNL     1       2.187   1.884  -0.790  0.00  0.00    +0.131 A 
ATOM     10  O   UNL     1       1.227   2.196   0.118  0.00  0.00    -0.479 OA
ATOM     11  C   UNL     1      -0.018   1.508   0.010  0.00  0.00    +0.234 C 
ATOM     12 CL   UNL     1       5.334   0.740  -3.810  0.00  0.00    -0.084 Cl
ATOM     13  N   UNL     1       1.560  -1.793  -0.900  0.00  0.00    -0.282 N 
ATOM     14  C   UNL     1       0.519  -2.673  -0.652  0.00  0.00    +0.240 A 
ATOM     15  N   UNL     1      -0.609  -2.271  -0.012  0.00  0.00    -0.201 N 
ATOM     16  N   UNL     1      -1.424  -3.400   0.051  0.00  0.00    -0.042 NA
ATOM     17  N   UNL     1      -0.768  -4.359  -0.519  0.00  0.00    -0.021 NA
ATOM     18  N   UNL     1       0.377  -3.937  -0.933  0.00  0.00    -0.092 NA
ATOM     19  H   UNL     1       2.558  -2.128  -1.220  0.00  0.00    +0.155 HD
ENDROOT
BRANCH   1  25
ATOM     20  C   UNL     1      -1.798  -0.501   2.749  0.00  0.00    +0.126 A 
ATOM     21  C   UNL     1      -1.695  -0.492   4.133  0.00  0.00    +0.046 A 
ATOM     22  C   UNL     1      -0.513  -0.873   4.738  0.00  0.00    +0.004 A 
ATOM     23  C   UNL     1       0.565  -1.265   3.967  0.00  0.00    +0.001 A 
ATOM     24  C   UNL     1       0.464  -1.279   2.588  0.00  0.00    +0.009 A 
ATOM     25  C   UNL     1      -0.716  -0.900   1.978  0.00  0.00    +0.023 A 
BRANCH  20  27
ATOM     26  C   UNL     1      -4.030   0.276   3.007  0.00  0.00    +0.277 C 
ATOM     27  O   UNL     1      -2.958  -0.123   2.150  0.00  0.00    -0.495 OA
ENDBRANCH  20  27
ENDBRANCH   1  25
BRANCH  11  28
ATOM     28  C   UNL     1      -0.755   2.001  -1.208  0.00  0.00    -0.003 A 
ATOM     29  C   UNL     1      -0.082   2.151  -2.407  0.00  0.00    +0.008 A 
ATOM     30  C   UNL     1      -0.754   2.598  -3.527  0.00  0.00    +0.015 A 
ATOM     31  C   UNL     1      -2.106   2.908  -3.446  0.00  0.00    +0.008 A 
ATOM     32  C   UNL     1      -2.778   2.761  -2.239  0.00  0.00    +0.015 A 
ATOM     33  C   UNL     1      -2.100   2.308  -1.124  0.00  0.00    +0.008 A 
BRANCH  31  34
ATOM     34  S   UNL     1      -2.967   3.486  -4.871  0.00  0.00    -0.129 S 
ATOM     35  C   UNL     1      -1.700   3.510  -6.169  0.00  0.00    +0.090 C 
ENDBRANCH  31  34
ENDBRANCH  11  28
TORSDOF 4
