REMARK  Name = ZINC21917658
REMARK  14 active torsions:
REMARK  status: ('A' for Active; 'I' for Inactive)
REMARK    1  A    between atoms: C_1  and  C_2
REMARK    2  A    between atoms: C_2  and  C_3
REMARK    3  A    between atoms: C_6  and  C_9
REMARK    4  A    between atoms: C_9  and  C_11
REMARK    5  A    between atoms: C_9  and  N_33
REMARK    6  A    between atoms: C_11  and  N_12
REMARK    7  A    between atoms: C_13  and  C_15
REMARK    8  A    between atoms: N_18  and  S_21
REMARK    9  A    between atoms: S_21  and  C_24
REMARK   10  A    between atoms: C_27  and  O_30
REMARK   11  A    between atoms: O_30  and  C_31
REMARK   12  A    between atoms: C_31  and  C_32
REMARK   13  A    between atoms: N_33  and  C_34
REMARK   14  A    between atoms: N_33  and  C_35
REMARK                            x       y       z     vdW  Elec       q    Type
REMARK                         _______ _______ _______ _____ _____    ______ ____
ROOT
ATOM      1  N   UNL     1       1.394   2.651   0.614  0.00  0.00    -0.316 N 
ATOM      2  C   UNL     1       0.128   2.223   0.792  0.00  0.00    +0.216 C 
ATOM      3  O   UNL     1      -0.127   1.040   0.718  0.00  0.00    -0.276 OA
ATOM      4  H   UNL     1       1.626   3.725   0.681  0.00  0.00    +0.149 HD
ENDROOT
BRANCH   2   5
ATOM      5  C   UNL     1      -0.970   3.215   1.078  0.00  0.00    +0.077 C 
ATOM      6  C   UNL     1      -0.652   3.968   2.372  0.00  0.00    +0.030 C 
ATOM      7  C   UNL     1      -1.753   4.999   2.642  0.00  0.00    +0.110 C 
ATOM      8  N   UNL     1      -3.052   4.313   2.646  0.00  0.00    -0.177 NA
ATOM      9  C   UNL     1      -3.419   3.487   1.487  0.00  0.00    +0.110 C 
ATOM     10  C   UNL     1      -2.300   2.473   1.231  0.00  0.00    +0.030 C 
BRANCH   8  11
ATOM     11  S   UNL     1      -4.084   4.469   3.931  0.00  0.00    +0.061 S 
ATOM     12  O   UNL     1      -3.749   5.690   4.576  0.00  0.00    -0.153 OA
ATOM     13  O   UNL     1      -5.390   4.202   3.439  0.00  0.00    -0.153 OA
BRANCH  11  14
ATOM     14  C   UNL     1      -3.700   3.178   5.067  0.00  0.00    +0.106 A 
ATOM     15  C   UNL     1      -4.343   1.958   4.969  0.00  0.00    +0.032 A 
ATOM     16  C   UNL     1      -4.040   0.943   5.855  0.00  0.00    +0.047 A 
ATOM     17  C   UNL     1      -3.097   1.151   6.851  0.00  0.00    +0.121 A 
ATOM     18  C   UNL     1      -2.457   2.378   6.951  0.00  0.00    +0.047 A 
ATOM     19  C   UNL     1      -2.760   3.389   6.059  0.00  0.00    +0.032 A 
BRANCH  17  20
ATOM     20  O   UNL     1      -2.801   0.155   7.727  0.00  0.00    -0.492 OA
BRANCH  20  21
ATOM     21  C   UNL     1      -3.498  -1.081   7.564  0.00  0.00    +0.225 C 
ATOM     22  C   UNL     1      -3.035  -2.073   8.633  0.00  0.00    +0.048 C 
ENDBRANCH  20  21
ENDBRANCH  17  20
ENDBRANCH  11  14
ENDBRANCH   8  11
ENDBRANCH   2   5
BRANCH   1  23
ATOM     23  C   UNL     1       2.460   1.688   0.329  0.00  0.00    +0.093 C 
BRANCH  23  24
ATOM     24  C   UNL     1       3.762   2.438   0.043  0.00  0.00    -0.021 C 
BRANCH  24  28
ATOM     25  C   UNL     1       3.291   4.817  -3.474  0.00  0.00    -0.048 A 
ATOM     26  C   UNL     1       3.189   5.402  -2.225  0.00  0.00    +0.004 A 
ATOM     27  C   UNL     1       3.341   4.632  -1.087  0.00  0.00    +0.002 A 
ATOM     28  C   UNL     1       3.596   3.278  -1.198  0.00  0.00    -0.059 A 
ATOM     29  C   UNL     1       3.704   2.694  -2.446  0.00  0.00    +0.002 A 
ATOM     30  C   UNL     1       3.546   3.463  -3.584  0.00  0.00    +0.004 A 
BRANCH  25  32
ATOM     31  C   UNL     1       4.487   6.208  -5.143  0.00  0.00    +0.009 C 
ATOM     32  C   UNL     1       3.126   5.657  -4.715  0.00  0.00    +0.032 C 
ENDBRANCH  25  32
ENDBRANCH  24  28
BRANCH  24  33
ATOM     33  N   UNL     1       4.849   1.472  -0.162  0.00  0.00    +0.382 N 
ATOM     34  C   UNL     1       6.128   2.158  -0.389  0.00  0.00    -0.096 C 
ATOM     35  C   UNL     1       4.946   0.540   0.970  0.00  0.00    -0.096 C 
ATOM     36  H   UNL     1       4.616   0.886  -1.063  0.00  0.00    -0.082 HD
ENDBRANCH  24  33
ENDBRANCH  23  24
ENDBRANCH   1  23
TORSDOF 10
