REMARK  Name = ZINC57868446
REMARK  9 active torsions:
REMARK  status: ('A' for Active; 'I' for Inactive)
REMARK    1  A    between atoms: C_1  and  C_2
REMARK    2  A    between atoms: C_2  and  C_4
REMARK    3  A    between atoms: C_2  and  C_21
REMARK    4  A    between atoms: C_4  and  N_5
REMARK    5  A    between atoms: C_13  and  C_14
REMARK    6  A    between atoms: C_14  and  C_15
REMARK    7  A    between atoms: C_14  and  C_16
REMARK    8  A    between atoms: C_14  and  C_17
REMARK    9  A    between atoms: C_21  and  N_23
REMARK                            x       y       z     vdW  Elec       q    Type
REMARK                         _______ _______ _______ _____ _____    ______ ____
ROOT
ATOM      1  N   UNL     1      -2.100   0.024  -1.268  0.00  0.00    -0.326 N 
ATOM      2  C   UNL     1      -2.699   1.255  -1.461  0.00  0.00    +0.073 A 
ATOM      3  C   UNL     1      -2.863   2.382  -0.667  0.00  0.00    +0.077 A 
ATOM      4  C   UNL     1      -3.529   3.485  -1.165  0.00  0.00    +0.168 A 
ATOM      5  C   UNL     1      -4.039   3.472  -2.467  0.00  0.00    +0.168 A 
ATOM      6  C   UNL     1      -3.881   2.358  -3.264  0.00  0.00    +0.079 A 
ATOM      7  C   UNL     1      -3.209   1.236  -2.769  0.00  0.00    +0.093 A 
ATOM      8  N   UNL     1      -2.903   0.022  -3.297  0.00  0.00    -0.232 NA
ATOM      9  C   UNL     1      -2.251  -0.684  -2.420  0.00  0.00    +0.116 A 
ATOM     10  O   UNL     1      -4.644   4.673  -2.708  0.00  0.00    -0.453 OA
ATOM     11  C   UNL     1      -4.860   5.262  -1.413  0.00  0.00    +0.466 C 
ATOM     12  O   UNL     1      -3.818   4.694  -0.598  0.00  0.00    -0.453 OA
ENDROOT
BRANCH   9  13
ATOM     13  C   UNL     1      -1.739  -2.083  -2.647  0.00  0.00    +0.020 C 
ATOM     14  C   UNL     1      -2.490  -3.055  -1.734  0.00  0.00    +0.019 C 
ATOM     15  C   UNL     1      -1.964  -2.478  -4.108  0.00  0.00    +0.019 C 
ATOM     16  C   UNL     1      -0.243  -2.137  -2.329  0.00  0.00    +0.019 C 
ENDBRANCH   9  13
BRANCH   1  17
ATOM     17  C   UNL     1      -1.424  -0.431  -0.051  0.00  0.00    +0.133 C 
BRANCH  17  19
ATOM     18  C   UNL     1       0.054   1.582   0.033  0.00  0.00    +0.016 C 
ATOM     19  C   UNL     1       0.027   0.055  -0.061  0.00  0.00    +0.057 C 
BRANCH  19  20
ATOM     20  C   UNL     1       0.762  -0.533   1.116  0.00  0.00    +0.051 C 
ATOM     21  S   UNL     1      -0.047  -1.304   2.260  0.00  0.00    -0.040 S 
BRANCH  20  22
ATOM     22  N   UNL     1       2.101  -0.410   1.204  0.00  0.00    -0.355 N 
ATOM     23  H   UNL     1       2.592   0.057   0.510  0.00  0.00    +0.143 HD
ATOM     24  H   UNL     1       2.574  -0.789   1.961  0.00  0.00    +0.143 HD
ENDBRANCH  20  22
ENDBRANCH  19  20
ENDBRANCH  17  19
ENDBRANCH   1  17
TORSDOF 5
