REMARK  Name = ZINC09387089
REMARK  10 active torsions:
REMARK  status: ('A' for Active; 'I' for Inactive)
REMARK    1  A    between atoms: C_1  and  C_2
REMARK    2  A    between atoms: C_2  and  C_3
REMARK    3  A    between atoms: C_2  and  C_4
REMARK    4  A    between atoms: C_4  and  C_6
REMARK    5  A    between atoms: C_4  and  N_64
REMARK    6  A    between atoms: C_17  and  C_18
REMARK    7  A    between atoms: C_17  and  N_64
REMARK    8  A    between atoms: N_20  and  C_21
REMARK    9  A    between atoms: C_26  and  C_27
REMARK   10  A    between atoms: C_27  and  C_28
REMARK                            x       y       z     vdW  Elec       q    Type
REMARK                         _______ _______ _______ _____ _____    ______ ____
ROOT
ATOM      1  C   UNL     1      -1.799  -1.041   2.326  0.00  0.00    +0.016 C 
ENDROOT
BRANCH   1   2
ATOM      2  C   UNL     1      -1.707  -2.533   2.136  0.00  0.00    +0.200 C 
ATOM      3  O   UNL     1      -1.661  -3.000   1.018  0.00  0.00    -0.278 OA
ATOM      4  N   UNL     1      -1.677  -3.348   3.209  0.00  0.00    -0.287 N 
ATOM      5  H   UNL     1      -1.777  -2.980   4.101  0.00  0.00    +0.155 HD
BRANCH   4   6
ATOM      6  C   UNL     1      -1.502  -4.726   3.036  0.00  0.00    +0.037 A 
ATOM      7  C   UNL     1      -0.723  -5.202   1.989  0.00  0.00    +0.023 A 
ATOM      8  C   UNL     1      -0.552  -6.562   1.822  0.00  0.00    +0.002 A 
ATOM      9  C   UNL     1      -1.155  -7.449   2.695  0.00  0.00    +0.000 A 
ATOM     10  C   UNL     1      -1.930  -6.978   3.738  0.00  0.00    +0.006 A 
ATOM     11  C   UNL     1      -2.101  -5.619   3.914  0.00  0.00    -0.022 A 
BRANCH  11  12
ATOM     12  C   UNL     1      -2.941  -5.106   5.056  0.00  0.00    +0.072 C 
BRANCH  12  13
ATOM     13  C   UNL     1      -4.347  -4.861   4.574  0.00  0.00    -0.043 A 
ATOM     14  C   UNL     1      -4.699  -3.623   4.069  0.00  0.00    +0.004 A 
ATOM     15  C   UNL     1      -5.988  -3.400   3.623  0.00  0.00    +0.000 A 
ATOM     16  C   UNL     1      -6.928  -4.411   3.689  0.00  0.00    +0.000 A 
ATOM     17  C   UNL     1      -6.577  -5.647   4.199  0.00  0.00    +0.000 A 
ATOM     18  C   UNL     1      -5.287  -5.872   4.641  0.00  0.00    +0.004 A 
ENDBRANCH  12  13
ENDBRANCH  11  12
ENDBRANCH   4   6
ENDBRANCH   1   2
BRANCH   1  19
ATOM     19  N   UNL     1      -1.814  -0.385   1.005  0.00  0.00    +0.389 N 
ATOM     20  H   UNL     1      -0.917  -0.550   0.534  0.00  0.00    -0.084 HD
ATOM     21  H   UNL     1      -2.575  -0.781   0.439  0.00  0.00    -0.084 HD
BRANCH  19  22
ATOM     22  C   UNL     1      -2.026   1.067   1.156  0.00  0.00    -0.038 C 
BRANCH  22  23
ATOM     23  C   UNL     1      -2.729   1.594  -0.068  0.00  0.00    -0.057 A 
ATOM     24  C   UNL     1      -2.378   1.126  -1.321  0.00  0.00    +0.006 A 
ATOM     25  C   UNL     1      -3.024   1.601  -2.448  0.00  0.00    +0.049 A 
ATOM     26  C   UNL     1      -4.016   2.558  -2.318  0.00  0.00    +0.162 A 
ATOM     27  C   UNL     1      -4.365   3.032  -1.062  0.00  0.00    +0.162 A 
ATOM     28  C   UNL     1      -3.721   2.550   0.065  0.00  0.00    +0.051 A 
ATOM     29  O   UNL     1      -5.346   3.974  -0.945  0.00  0.00    -0.488 OA
ATOM     30  C   UNL     1      -5.033   5.269  -1.462  0.00  0.00    +0.232 C 
ATOM     31  C   UNL     1      -5.304   5.333  -2.957  0.00  0.00    +0.082 C 
ATOM     32  C   UNL     1      -4.397   4.405  -3.750  0.00  0.00    +0.232 C 
ATOM     33  O   UNL     1      -4.658   3.039  -3.422  0.00  0.00    -0.488 OA
ENDBRANCH  22  23
BRANCH  22  35
ATOM     34  C   UNL     1      -0.895   3.265   1.520  0.00  0.00    +0.006 C 
ATOM     35  C   UNL     1      -0.673   1.766   1.307  0.00  0.00    -0.027 C 
ATOM     36  C   UNL     1       0.159   1.548   0.042  0.00  0.00    +0.006 C 
ENDBRANCH  22  35
ENDBRANCH  19  22
ENDBRANCH   1  19
TORSDOF 8
