REMARK  Name = ZINC39948073
REMARK  7 active torsions:
REMARK  status: ('A' for Active; 'I' for Inactive)
REMARK    1  A    between atoms: C_1  and  C_2
REMARK    2  A    between atoms: C_2  and  C_3
REMARK    3  A    between atoms: C_3  and  C_5
REMARK    4  A    between atoms: C_3  and  O_22
REMARK    5  A    between atoms: N_7  and  N_8
REMARK    6  A    between atoms: C_9  and  C_10
REMARK    7  A    between atoms: O_22  and  C_23
REMARK                            x       y       z     vdW  Elec       q    Type
REMARK                         _______ _______ _______ _____ _____    ______ ____
ROOT
ATOM      1  C   UNL     1      -1.522  -2.038   0.175  0.00  0.00    +0.273 C 
ATOM      2  O   UNL     1      -1.992  -2.719  -0.712  0.00  0.00    -0.270 OA
ATOM      3  N   UNL     1      -1.068  -2.621   1.303  0.00  0.00    -0.204 N 
ATOM      4  H   UNL     1      -0.692  -2.076   2.012  0.00  0.00    +0.177 HD
ENDROOT
BRANCH   3   5
ATOM      5  N   UNL     1      -1.140  -4.012   1.450  0.00  0.00    -0.191 NA
ATOM      6  C   UNL     1      -0.708  -4.565   2.521  0.00  0.00    +0.120 C 
BRANCH   6   7
ATOM      7  C   UNL     1      -0.785  -6.062   2.680  0.00  0.00    +0.141 C 
ATOM      8  C   UNL     1       0.632  -6.593   2.772  0.00  0.00    +0.001 C 
ATOM      9  C   UNL     1       0.963  -7.300   3.889  0.00  0.00    -0.007 A 
ATOM     10  C   UNL     1       2.309  -7.848   4.060  0.00  0.00    +0.009 A 
ATOM     11  C   UNL     1       2.594  -8.546   5.190  0.00  0.00    +0.001 A 
ATOM     12  C   UNL     1       1.633  -8.746   6.181  0.00  0.00    +0.002 A 
ATOM     13  C   UNL     1       0.367  -8.263   6.084  0.00  0.00    +0.024 A 
ATOM     14  C   UNL     1      -0.031  -7.527   4.953  0.00  0.00    +0.040 A 
ATOM     15  N   UNL     1      -1.276  -7.058   4.868  0.00  0.00    -0.284 N 
ATOM     16  C   UNL     1      -1.715  -6.359   3.835  0.00  0.00    +0.229 C 
ATOM     17  O   UNL     1      -2.862  -5.956   3.814  0.00  0.00    -0.274 OA
ATOM     18  H   UNL     1      -1.889  -7.237   5.598  0.00  0.00    +0.155 HD
ENDBRANCH   6   7
ENDBRANCH   3   5
BRANCH   1  19
ATOM     19  C   UNL     1      -1.445  -0.541   0.017  0.00  0.00    +0.260 C 
BRANCH  19  21
ATOM     20  C   UNL     1       0.101   1.420  -0.059  0.00  0.00    +0.008 C 
ATOM     21  C   UNL     1       0.021  -0.108  -0.023  0.00  0.00    +0.051 C 
ENDBRANCH  19  21
BRANCH  19  22
ATOM     22  O   UNL     1      -2.089  -0.158  -1.200  0.00  0.00    -0.478 OA
BRANCH  22  23
ATOM     23  C   UNL     1      -2.834   0.979  -1.172  0.00  0.00    +0.140 A 
ATOM     24  C   UNL     1      -2.848   1.772  -0.035  0.00  0.00    +0.048 A 
ATOM     25  C   UNL     1      -3.605   2.928  -0.008  0.00  0.00    +0.023 A 
ATOM     26  C   UNL     1      -4.350   3.294  -1.116  0.00  0.00    +0.043 A 
ATOM     27  C   UNL     1      -4.337   2.505  -2.252  0.00  0.00    +0.043 A 
ATOM     28  C   UNL     1      -3.576   1.351  -2.284  0.00  0.00    +0.084 A 
ATOM     29 CL   UNL     1      -3.555   0.364  -3.713  0.00  0.00    -0.080 Cl
ATOM     30 CL   UNL     1      -5.301   4.746  -1.079  0.00  0.00    -0.083 Cl
ENDBRANCH  22  23
ENDBRANCH  19  22
ENDBRANCH   1  19
TORSDOF 6
