REMARK  Name = ZINC35474484
REMARK  8 active torsions:
REMARK  status: ('A' for Active; 'I' for Inactive)
REMARK    1  A    between atoms: C_1  and  O_2
REMARK    2  A    between atoms: O_2  and  C_3
REMARK    3  A    between atoms: C_8  and  C_9
REMARK    4  A    between atoms: C_12  and  C_15
REMARK    5  A    between atoms: C_15  and  N_16
REMARK    6  A    between atoms: N_16  and  C_17
REMARK    7  A    between atoms: C_17  and  C_18
REMARK    8  A    between atoms: N_22  and  C_23
REMARK                            x       y       z     vdW  Elec       q    Type
REMARK                         _______ _______ _______ _____ _____    ______ ____
ROOT
ATOM      1  C   UNL     1      -1.238  -5.843   1.575  0.00  0.00    +0.157 C 
ENDROOT
BRANCH   1   5
ATOM      2  C   UNL     1       0.067  -2.829  -0.061  0.00  0.00    +0.094 C 
ATOM      3  N   UNL     1      -0.539  -2.384   0.990  0.00  0.00    -0.088 NA
ATOM      4  O   UNL     1      -1.011  -3.418   1.831  0.00  0.00    -0.388 OA
ATOM      5  C   UNL     1      -0.315  -4.628   1.467  0.00  0.00    +0.227 C 
ATOM      6  C   UNL     1       0.054  -4.345  -0.011  0.00  0.00    +0.108 C 
BRANCH   2  12
ATOM      7  C   UNL     1       0.605  -0.607  -1.055  0.00  0.00    +0.129 A 
ATOM      8  C   UNL     1       1.172   0.159  -2.061  0.00  0.00    +0.046 A 
ATOM      9  C   UNL     1       1.786  -0.455  -3.136  0.00  0.00    +0.004 A 
ATOM     10  C   UNL     1       1.839  -1.837  -3.216  0.00  0.00    +0.001 A 
ATOM     11  C   UNL     1       1.280  -2.613  -2.224  0.00  0.00    +0.013 A 
ATOM     12  C   UNL     1       0.662  -2.005  -1.129  0.00  0.00    +0.041 A 
BRANCH   7  14
ATOM     13  C   UNL     1      -0.017   1.425   0.010  0.00  0.00    +0.277 C 
ATOM     14  O   UNL     1       0.002  -0.004   0.002  0.00  0.00    -0.494 OA
ENDBRANCH   7  14
ENDBRANCH   2  12
ENDBRANCH   1   5
BRANCH   1  15
ATOM     15  N   UNL     1      -1.688  -5.993   2.961  0.00  0.00    -0.278 N 
ATOM     16  C   UNL     1      -0.974  -6.741   3.824  0.00  0.00    +0.303 C 
ATOM     17  O   UNL     1       0.045  -7.292   3.453  0.00  0.00    -0.253 OA
ATOM     18  N   UNL     1      -1.388  -6.879   5.099  0.00  0.00    -0.296 N 
ATOM     19  H   UNL     1      -2.200  -6.439   5.396  0.00  0.00    +0.151 HD
BRANCH  18  20
ATOM     20  C   UNL     1      -0.611  -7.692   6.038  0.00  0.00    +0.074 C 
ATOM     21  C   UNL     1      -1.021  -9.160   5.901  0.00  0.00    +0.022 C 
ATOM     22  C   UNL     1      -0.210 -10.010   6.882  0.00  0.00    +0.002 C 
ATOM     23  C   UNL     1      -0.480  -9.536   8.311  0.00  0.00    +0.000 C 
ATOM     24  C   UNL     1      -0.070  -8.068   8.448  0.00  0.00    +0.002 C 
ATOM     25  C   UNL     1      -0.881  -7.219   7.468  0.00  0.00    +0.022 C 
ENDBRANCH  18  20
BRANCH  15  26
ATOM     26  C   UNL     1      -2.915  -5.329   3.408  0.00  0.00    +0.136 C 
BRANCH  26  27
ATOM     27  C   UNL     1      -4.090  -6.248   3.192  0.00  0.00    -0.016 C 
ATOM     28  C   UNL     1      -4.880  -6.547   4.194  0.00  0.00    +0.005 C 
ENDBRANCH  26  27
ENDBRANCH  15  26
ENDBRANCH   1  15
TORSDOF 7
