REMARK  Name = ZINC02520326
REMARK  10 active torsions:
REMARK  status: ('A' for Active; 'I' for Inactive)
REMARK    1  A    between atoms: C_1  and  C_2
REMARK    2  A    between atoms: C_5  and  C_8
REMARK    3  A    between atoms: C_8  and  O_10
REMARK    4  A    between atoms: O_10  and  C_11
REMARK    5  A    between atoms: C_14  and  C_17
REMARK    6  A    between atoms: N_18  and  N_19
REMARK    7  A    between atoms: C_20  and  C_22
REMARK    8  A    between atoms: N_24  and  C_25
REMARK    9  A    between atoms: C_30  and  C_31
REMARK   10  A    between atoms: N_33  and  C_34
REMARK                            x       y       z     vdW  Elec       q    Type
REMARK                         _______ _______ _______ _____ _____    ______ ____
ROOT
ATOM      1  N   UNL     1      -0.092 -12.550   2.519  0.00  0.00    -0.199 N 
ATOM      2  C   UNL     1      -0.151 -13.183   3.707  0.00  0.00    +0.318 C 
ATOM      3  O   UNL     1      -0.197 -12.539   4.737  0.00  0.00    -0.263 OA
ATOM      4  H   UNL     1      -0.055 -13.063   1.697  0.00  0.00    +0.178 HD
ENDROOT
BRANCH   2   5
ATOM      5  C   UNL     1      -0.160 -14.673   3.759  0.00  0.00    +0.305 C 
ATOM      6  O   UNL     1      -0.114 -15.316   2.730  0.00  0.00    -0.265 OA
ATOM      7  N   UNL     1      -0.219 -15.306   4.947  0.00  0.00    -0.277 N 
ATOM      8  H   UNL     1      -0.323 -14.794   5.765  0.00  0.00    +0.155 HD
BRANCH   7   9
ATOM      9  C   UNL     1      -0.131 -16.693   5.002  0.00  0.00    +0.046 A 
ATOM     10  C   UNL     1      -0.691 -17.468   3.994  0.00  0.00    +0.024 A 
ATOM     11  C   UNL     1      -0.602 -18.844   4.050  0.00  0.00    +0.002 A 
ATOM     12  C   UNL     1       0.044 -19.463   5.108  0.00  0.00    +0.001 A 
ATOM     13  C   UNL     1       0.605 -18.710   6.117  0.00  0.00    +0.015 A 
ATOM     14  C   UNL     1       0.529 -17.316   6.072  0.00  0.00    +0.058 A 
BRANCH  14  15
ATOM     15  C   UNL     1       1.133 -16.505   7.145  0.00  0.00    +0.250 C 
ATOM     16  O   UNL     1       0.983 -15.298   7.152  0.00  0.00    -0.270 OA
ATOM     17  N   UNL     1       1.850 -17.101   8.118  0.00  0.00    -0.281 N 
ATOM     18  H   UNL     1       2.036 -18.051   8.070  0.00  0.00    +0.155 HD
BRANCH  17  19
ATOM     19  C   UNL     1       2.327 -16.348   9.196  0.00  0.00    +0.034 A 
ATOM     20  C   UNL     1       1.572 -15.296   9.698  0.00  0.00    +0.023 A 
ATOM     21  C   UNL     1       2.046 -14.555  10.763  0.00  0.00    +0.002 A 
ATOM     22  C   UNL     1       3.271 -14.859  11.329  0.00  0.00    +0.000 A 
ATOM     23  C   UNL     1       4.025 -15.906  10.831  0.00  0.00    +0.002 A 
ATOM     24  C   UNL     1       3.554 -16.655   9.770  0.00  0.00    +0.023 A 
ENDBRANCH  17  19
ENDBRANCH  14  15
ENDBRANCH   7   9
ENDBRANCH   2   5
BRANCH   1  26
ATOM     25  C   UNL     1      -0.026 -10.539   1.325  0.00  0.00    +0.138 C 
ATOM     26  N   UNL     1      -0.084 -11.149   2.471  0.00  0.00    -0.187 NA
BRANCH  25  30
ATOM     27  C   UNL     1      -0.002  -6.297   1.179  0.00  0.00    +0.132 A 
ATOM     28  C   UNL     1       0.051  -7.031   0.000  0.00  0.00    +0.047 A 
ATOM     29  C   UNL     1       0.044  -8.408   0.043  0.00  0.00    +0.013 A 
ATOM     30  C   UNL     1      -0.018  -9.067   1.274  0.00  0.00    -0.005 A 
ATOM     31  C   UNL     1      -0.071  -8.324   2.457  0.00  0.00    +0.013 A 
ATOM     32  C   UNL     1      -0.057  -6.947   2.405  0.00  0.00    +0.047 A 
BRANCH  27  33
ATOM     33  O   UNL     1       0.007  -4.940   1.132  0.00  0.00    -0.422 OA
BRANCH  33  34
ATOM     34  C   UNL     1      -1.125  -4.313   0.755  0.00  0.00    +0.344 C 
ATOM     35  O   UNL     1      -2.083  -4.960   0.384  0.00  0.00    -0.245 OA
BRANCH  34  40
ATOM     36  C   UNL     1      -1.420   1.431   0.911  0.00  0.00    +0.044 C 
ATOM     37  C   UNL     1      -1.343  -0.073   0.870  0.00  0.00    -0.050 A 
ATOM     38  C   UNL     1      -2.436  -0.808   0.446  0.00  0.00    +0.004 A 
ATOM     39  C   UNL     1      -2.372  -2.185   0.406  0.00  0.00    +0.015 A 
ATOM     40  C   UNL     1      -1.201  -2.838   0.795  0.00  0.00    +0.059 A 
ATOM     41  C   UNL     1      -0.101  -2.091   1.222  0.00  0.00    +0.015 A 
ATOM     42  C   UNL     1      -0.177  -0.714   1.252  0.00  0.00    +0.004 A 
ENDBRANCH  34  40
ENDBRANCH  33  34
ENDBRANCH  27  33
ENDBRANCH  25  30
ENDBRANCH   1  26
TORSDOF 9
