REMARK  Name = ZINC65227875
REMARK  5 active torsions:
REMARK  status: ('A' for Active; 'I' for Inactive)
REMARK    1  A    between atoms: C_4  and  C_7
REMARK    2  A    between atoms: C_7  and  N_8
REMARK    3  A    between atoms: C_9  and  C_11
REMARK    4  A    between atoms: C_19  and  C_24
REMARK    5  A    between atoms: C_26  and  C_29
REMARK                            x       y       z     vdW  Elec       q    Type
REMARK                         _______ _______ _______ _____ _____    ______ ____
ROOT
ATOM      1  C   UNL     1       5.746  -1.879   2.967  0.00  0.00    +0.092 C 
ATOM      2  C   UNL     1       5.925  -0.535   3.678  0.00  0.00    +0.016 C 
ATOM      3  C   UNL     1       6.364  -0.776   5.124  0.00  0.00    +0.020 C 
ATOM      4  C   UNL     1       7.709  -1.509   5.130  0.00  0.00    +0.106 C 
ATOM      5  N   UNL     1       7.585  -2.732   4.325  0.00  0.00    -0.315 N 
ATOM      6  C   UNL     1       7.084  -2.625   2.948  0.00  0.00    +0.119 C 
ATOM      7  C   UNL     1       7.933  -3.965   4.855  0.00  0.00    +0.110 A 
ATOM      8  C   UNL     1       9.224  -4.473   4.648  0.00  0.00    +0.060 A 
ATOM      9  C   UNL     1       9.553  -5.716   5.191  0.00  0.00    +0.016 A 
ATOM     10  C   UNL     1       8.586  -6.397   5.913  0.00  0.00    +0.018 A 
ATOM     11  C   UNL     1       7.336  -5.832   6.075  0.00  0.00    +0.084 A 
ATOM     12  N   UNL     1       7.047  -4.653   5.558  0.00  0.00    -0.349 N 
ATOM     13  H   UNL     1       6.161  -4.282   5.693  0.00  0.00    +0.167 HD
ENDROOT
BRANCH   8  14
ATOM     14  C   UNL     1      10.221  -3.704   3.866  0.00  0.00    +0.205 A 
ATOM     15  N   UNL     1      11.444  -4.137   3.511  0.00  0.00    -0.191 NA
ATOM     16  C   UNL     1      12.063  -3.215   2.830  0.00  0.00    +0.231 A 
ATOM     17  O   UNL     1      11.257  -2.152   2.723  0.00  0.00    -0.337 OA
ATOM     18  N   UNL     1      10.055  -2.489   3.401  0.00  0.00    -0.056 NA
BRANCH  16  19
ATOM     19  C   UNL     1      13.454  -3.327   2.260  0.00  0.00    +0.078 C 
ATOM     20  C   UNL     1      14.258  -2.019   2.338  0.00  0.00    +0.013 C 
ATOM     21  C   UNL     1      14.789  -2.353   0.934  0.00  0.00    +0.001 C 
ATOM     22  C   UNL     1      13.506  -3.175   0.730  0.00  0.00    +0.013 C 
ENDBRANCH  16  19
ENDBRANCH   8  14
BRANCH   1  24
ATOM     23  N   UNL     1       4.122  -0.996   1.323  0.00  0.00    -0.311 N 
ATOM     24  C   UNL     1       5.283  -1.641   1.552  0.00  0.00    +0.218 C 
ATOM     25  O   UNL     1       5.954  -2.031   0.621  0.00  0.00    -0.275 OA
ATOM     26  H   UNL     1       3.585  -0.684   2.068  0.00  0.00    +0.149 HD
BRANCH  23  27
ATOM     27  C   UNL     1       3.672  -0.765  -0.052  0.00  0.00    +0.139 C 
BRANCH  27  31
ATOM     28  C   UNL     1      -0.056   1.320   0.000  0.00  0.00    +0.000 A 
ATOM     29  C   UNL     1       1.131   2.027  -0.023  0.00  0.00    +0.000 A 
ATOM     30  C   UNL     1       2.337   1.353  -0.040  0.00  0.00    +0.005 A 
ATOM     31  C   UNL     1       2.357  -0.029  -0.033  0.00  0.00    -0.030 A 
ATOM     32  C   UNL     1       1.169  -0.737  -0.008  0.00  0.00    +0.005 A 
ATOM     33  C   UNL     1      -0.037  -0.062   0.007  0.00  0.00    +0.000 A 
ENDBRANCH  27  31
ENDBRANCH  23  27
ENDBRANCH   1  24
TORSDOF 5
