REMARK  Name = ZINC13024727
REMARK  13 active torsions:
REMARK  status: ('A' for Active; 'I' for Inactive)
REMARK    1  A    between atoms: C_1  and  C_2
REMARK    2  A    between atoms: C_2  and  C_3
REMARK    3  A    between atoms: C_3  and  C_4
REMARK    4  A    between atoms: C_3  and  C_5
REMARK    5  A    between atoms: C_3  and  N_6
REMARK    6  A    between atoms: C_7  and  C_9
REMARK    7  A    between atoms: C_9  and  C_11
REMARK    8  A    between atoms: C_9  and  N_18
REMARK    9  A    between atoms: N_18  and  C_19
REMARK   10  A    between atoms: C_23  and  C_25
REMARK   11  A    between atoms: C_25  and  C_27
REMARK   12  A    between atoms: C_28  and  C_30
REMARK   13  A    between atoms: C_30  and  N_31
REMARK                            x       y       z     vdW  Elec       q    Type
REMARK                         _______ _______ _______ _____ _____    ______ ____
ROOT
ATOM      1  N   UNL     1      -5.633   3.832  -1.760  0.00  0.00    -0.254 N 
ATOM      2  C   UNL     1      -4.527   4.601  -1.796  0.00  0.00    +0.242 C 
ATOM      3  O   UNL     1      -3.794   4.564  -2.762  0.00  0.00    -0.273 OA
ENDROOT
BRANCH   1   4
ATOM      4  C   UNL     1      -6.553   3.977  -0.716  0.00  0.00    +0.038 A 
ATOM      5  C   UNL     1      -6.231   3.528   0.560  0.00  0.00    +0.023 A 
ATOM      6  C   UNL     1      -7.133   3.673   1.598  0.00  0.00    +0.002 A 
ATOM      7  C   UNL     1      -8.364   4.255   1.373  0.00  0.00    +0.011 A 
ATOM      8  C   UNL     1      -8.700   4.706   0.093  0.00  0.00    +0.019 A 
ATOM      9  C   UNL     1      -7.785   4.563  -0.954  0.00  0.00    +0.035 A 
BRANCH   8  10
ATOM     10  C   UNL     1     -10.012   5.327  -0.152  0.00  0.00    +0.160 C 
ATOM     11  O   UNL     1     -10.301   5.716  -1.263  0.00  0.00    -0.292 OA
ATOM     12  C   UNL     1     -10.996   5.479   0.980  0.00  0.00    +0.091 C 
ENDBRANCH   8  10
ENDBRANCH   1   4
BRANCH   1  13
ATOM     13  C   UNL     1      -5.873   2.844  -2.815  0.00  0.00    +0.197 C 
BRANCH  13  14
ATOM     14  C   UNL     1      -7.236   2.230  -2.628  0.00  0.00    -0.018 A 
ATOM     15  C   UNL     1      -7.559   1.617  -1.431  0.00  0.00    +0.009 A 
ATOM     16  C   UNL     1      -8.810   1.058  -1.256  0.00  0.00    +0.038 A 
ATOM     17  C   UNL     1      -9.737   1.102  -2.283  0.00  0.00    +0.123 A 
ATOM     18  C   UNL     1      -9.411   1.711  -3.483  0.00  0.00    +0.038 A 
ATOM     19  C   UNL     1      -8.161   2.274  -3.654  0.00  0.00    +0.009 A 
ATOM     20  F   UNL     1     -10.959   0.550  -2.115  0.00  0.00    -0.205 F 
ENDBRANCH  13  14
BRANCH  13  22
ATOM     21  N   UNL     1      -4.842   0.745  -3.621  0.00  0.00    -0.308 N 
ATOM     22  C   UNL     1      -4.822   1.766  -2.743  0.00  0.00    +0.239 C 
ATOM     23  O   UNL     1      -3.958   1.818  -1.893  0.00  0.00    -0.273 OA
ATOM     24  H   UNL     1      -5.533   0.703  -4.301  0.00  0.00    +0.149 HD
BRANCH  21  25
ATOM     25  C   UNL     1      -3.821  -0.303  -3.550  0.00  0.00    +0.029 C 
ATOM     26  C   UNL     1      -2.437   0.321  -3.741  0.00  0.00    +0.031 C 
ATOM     27  C   UNL     1      -3.887  -0.989  -2.184  0.00  0.00    +0.031 C 
BRANCH  25  29
ATOM     28  C   UNL     1      -3.004  -2.429  -4.578  0.00  0.00    +0.006 C 
ATOM     29  C   UNL     1      -4.071  -1.335  -4.652  0.00  0.00    +0.022 C 
ENDBRANCH  25  29
ENDBRANCH  21  25
ENDBRANCH  13  22
ENDBRANCH   1  13
BRANCH   2  30
ATOM     30  C   UNL     1      -4.200   5.506  -0.636  0.00  0.00    +0.242 C 
BRANCH  30  31
ATOM     31  N   UNL     1      -2.928   6.186  -0.891  0.00  0.00    -0.235 N 
ATOM     32  C   UNL     1      -1.674   5.743  -0.542  0.00  0.00    +0.090 A 
ATOM     33  C   UNL     1      -1.195   4.609   0.104  0.00  0.00    +0.029 A 
ATOM     34  C   UNL     1       0.148   4.459   0.309  0.00  0.00    +0.002 A 
ATOM     35  C   UNL     1       1.042   5.426  -0.133  0.00  0.00    +0.002 A 
ATOM     36  C   UNL     1       0.598   6.545  -0.774  0.00  0.00    +0.032 A 
ATOM     37  C   UNL     1      -0.775   6.725  -0.992  0.00  0.00    +0.113 A 
ATOM     38  N   UNL     1      -1.495   7.701  -1.580  0.00  0.00    -0.129 NA
ATOM     39  N   UNL     1      -2.749   7.418  -1.538  0.00  0.00    -0.064 NA
ENDBRANCH  30  31
ENDBRANCH   2  30
TORSDOF 9
