REMARK  Name = ZINC00195086
REMARK  7 active torsions:
REMARK  status: ('A' for Active; 'I' for Inactive)
REMARK    1  A    between atoms: C_1  and  C_2
REMARK    2  A    between atoms: C_5  and  C_8
REMARK    3  A    between atoms: C_10  and  C_17
REMARK    4  A    between atoms: C_11  and  C_16
REMARK    5  A    between atoms: C_17  and  O_19
REMARK    6  A    between atoms: O_19  and  C_20
REMARK    7  A    between atoms: C_25  and  C_27
REMARK                            x       y       z     vdW  Elec       q    Type
REMARK                         _______ _______ _______ _____ _____    ______ ____
ROOT
ATOM      1  C   UNL     1      -2.545  -0.054   0.352  0.00  0.00    +0.143 C 
ATOM      2  C   UNL     1      -1.212  -0.763   0.224  0.00  0.00    +0.078 C 
ATOM      3  C   UNL     1      -1.225  -2.074  -0.098  0.00  0.00    +0.021 C 
ATOM      4  N   UNL     1      -2.400  -2.736  -0.308  0.00  0.00    -0.273 N 
ATOM      5  C   UNL     1      -3.605  -2.159  -0.214  0.00  0.00    +0.304 C 
ATOM      6  O   UNL     1      -4.597  -2.832  -0.419  0.00  0.00    -0.252 OA
ATOM      7  N   UNL     1      -3.754  -0.857   0.100  0.00  0.00    -0.288 N 
ATOM      8  C   UNL     1       0.079  -2.818  -0.229  0.00  0.00    +0.061 C 
ATOM      9  H   UNL     1      -2.361  -3.678  -0.537  0.00  0.00    +0.156 HD
ATOM     10  H   UNL     1      -4.636  -0.459   0.163  0.00  0.00    +0.151 HD
ENDROOT
BRANCH   1  15
ATOM     11  C   UNL     1      -2.908   2.116   5.695  0.00  0.00    +0.044 C 
ATOM     12  C   UNL     1      -2.813   1.550   4.302  0.00  0.00    -0.050 A 
ATOM     13  C   UNL     1      -2.461   2.369   3.246  0.00  0.00    +0.004 A 
ATOM     14  C   UNL     1      -2.374   1.850   1.967  0.00  0.00    +0.006 A 
ATOM     15  C   UNL     1      -2.639   0.511   1.745  0.00  0.00    -0.022 A 
ATOM     16  C   UNL     1      -2.997  -0.307   2.801  0.00  0.00    +0.006 A 
ATOM     17  C   UNL     1      -3.078   0.211   4.080  0.00  0.00    +0.004 A 
ENDBRANCH   1  15
BRANCH   2  18
ATOM     18  C   UNL     1       0.005  -0.075   0.442  0.00  0.00    +0.339 C 
ATOM     19  O   UNL     1       1.056  -0.689   0.464  0.00  0.00    -0.245 OA
BRANCH  18  20
ATOM     20  O   UNL     1       0.002   1.262   0.625  0.00  0.00    -0.458 OA
BRANCH  20  21
ATOM     21  C   UNL     1       1.267   1.891   0.839  0.00  0.00    +0.180 C 
ATOM     22  C   UNL     1       1.855   2.366  -0.506  0.00  0.00    +0.045 C 
ATOM     23  C   UNL     1       1.435   3.855  -0.598  0.00  0.00    +0.004 C 
ATOM     24  C   UNL     1       1.577   4.342   0.866  0.00  0.00    +0.007 C 
ATOM     25  C   UNL     1       1.091   3.146   1.711  0.00  0.00    +0.027 C 
ATOM     26  C   UNL     1       1.934   3.024   2.982  0.00  0.00    +0.011 C 
ENDBRANCH  20  21
ENDBRANCH  18  20
ENDBRANCH   2  18
TORSDOF 4
