REMARK  Name = ZINC00729516
REMARK  13 active torsions:
REMARK  status: ('A' for Active; 'I' for Inactive)
REMARK    1  A    between atoms: C_1  and  C_2
REMARK    2  A    between atoms: C_2  and  N_3
REMARK    3  A    between atoms: N_3  and  C_4
REMARK    4  A    between atoms: N_3  and  C_6
REMARK    5  A    between atoms: C_4  and  C_5
REMARK    6  A    between atoms: C_9  and  C_12
REMARK    7  A    between atoms: C_17  and  C_22
REMARK    8  A    between atoms: C_24  and  O_32
REMARK    9  A    between atoms: C_25  and  O_30
REMARK   10  A    between atoms: C_26  and  O_28
REMARK   11  A    between atoms: O_28  and  C_29
REMARK   12  A    between atoms: O_30  and  C_31
REMARK   13  A    between atoms: O_32  and  C_33
REMARK                            x       y       z     vdW  Elec       q    Type
REMARK                         _______ _______ _______ _____ _____    ______ ____
ROOT
ATOM      1  C   UNL     1      -2.871   2.227   2.447  0.00  0.00    +0.136 C 
ATOM      2  C   UNL     1      -2.019   1.770   1.288  0.00  0.00    +0.036 C 
ATOM      3  C   UNL     1      -0.689   1.594   1.308  0.00  0.00    +0.017 C 
ATOM      4  C   UNL     1       0.050   1.120   0.067  0.00  0.00    +0.059 C 
ATOM      5  C   UNL     1      -0.657   1.631  -1.187  0.00  0.00    +0.032 C 
ATOM      6  C   UNL     1      -2.090   1.083  -1.170  0.00  0.00    +0.088 C 
ATOM      7  C   UNL     1      -2.751   1.520   0.103  0.00  0.00    +0.163 C 
ATOM      8  O   UNL     1      -3.958   1.666   0.117  0.00  0.00    -0.292 OA
ATOM      9  N   UNL     1       0.102   1.798   2.395  0.00  0.00    -0.316 N 
ATOM     10  C   UNL     1       0.042   2.911   3.225  0.00  0.00    +0.052 A 
ATOM     11  C   UNL     1       1.109   3.778   3.378  0.00  0.00    +0.025 A 
ATOM     12  C   UNL     1       1.025   4.800   4.309  0.00  0.00    +0.002 A 
ATOM     13  C   UNL     1      -0.116   4.953   5.076  0.00  0.00    +0.002 A 
ATOM     14  C   UNL     1      -1.193   4.100   4.907  0.00  0.00    +0.025 A 
ATOM     15  C   UNL     1      -1.118   3.087   3.965  0.00  0.00    +0.049 A 
ATOM     16  N   UNL     1      -2.193   2.233   3.726  0.00  0.00    -0.331 N 
ATOM     17  H   UNL     1       0.758   1.115   2.607  0.00  0.00    +0.152 HD
ATOM     18  H   UNL     1      -2.492   1.633   4.428  0.00  0.00    +0.147 HD
ENDROOT
BRANCH   1  22
ATOM     19  C   UNL     1      -4.254   6.188   1.631  0.00  0.00    +0.030 A 
ATOM     20  C   UNL     1      -2.895   5.942   1.778  0.00  0.00    +0.023 A 
ATOM     21  C   UNL     1      -2.451   4.661   2.042  0.00  0.00    +0.007 A 
ATOM     22  C   UNL     1      -3.358   3.624   2.159  0.00  0.00    -0.023 A 
ATOM     23  C   UNL     1      -4.712   3.864   2.008  0.00  0.00    +0.007 A 
ATOM     24  C   UNL     1      -5.163   5.144   1.750  0.00  0.00    +0.023 A 
BRANCH  19  25
ATOM     25  N   UNL     1      -4.707   7.482   1.365  0.00  0.00    -0.330 N 
BRANCH  25  27
ATOM     26  C   UNL     1      -6.747   8.083   2.572  0.00  0.00    +0.024 C 
ATOM     27  C   UNL     1      -6.140   7.740   1.210  0.00  0.00    +0.102 C 
ENDBRANCH  25  27
BRANCH  25  28
ATOM     28  C   UNL     1      -3.747   8.582   1.240  0.00  0.00    +0.102 C 
ATOM     29  C   UNL     1      -3.306   8.711  -0.219  0.00  0.00    +0.024 C 
ENDBRANCH  25  28
ENDBRANCH  19  25
ENDBRANCH   1  22
BRANCH   5  30
ATOM     30  C   UNL     1       0.063   1.138  -2.416  0.00  0.00    -0.036 A 
ATOM     31  C   UNL     1       0.199  -0.219  -2.637  0.00  0.00    +0.053 A 
ATOM     32  C   UNL     1       0.856  -0.676  -3.770  0.00  0.00    +0.165 A 
ATOM     33  C   UNL     1       1.389   0.233  -4.676  0.00  0.00    +0.204 A 
ATOM     34  C   UNL     1       1.255   1.597  -4.447  0.00  0.00    +0.165 A 
ATOM     35  C   UNL     1       0.591   2.046  -3.315  0.00  0.00    +0.053 A 
BRANCH  34  36
ATOM     36  O   UNL     1       1.774   2.490  -5.331  0.00  0.00    -0.491 OA
ATOM     37  C   UNL     1       1.598   3.877  -5.031  0.00  0.00    +0.277 C 
ENDBRANCH  34  36
BRANCH  33  38
ATOM     38  O   UNL     1       2.039  -0.212  -5.786  0.00  0.00    -0.488 OA
ATOM     39  C   UNL     1       3.448  -0.424  -5.671  0.00  0.00    +0.277 C 
ENDBRANCH  33  38
BRANCH  32  40
ATOM     40  O   UNL     1       0.985  -2.012  -3.990  0.00  0.00    -0.491 OA
ATOM     41  C   UNL     1       0.413  -2.888  -3.016  0.00  0.00    +0.277 C 
ENDBRANCH  32  40
ENDBRANCH   5  30
TORSDOF 8
