REMARK  Name = ZINC44714193
REMARK  9 active torsions:
REMARK  status: ('A' for Active; 'I' for Inactive)
REMARK    1  A    between atoms: C_1  and  C_2
REMARK    2  A    between atoms: C_5  and  C_9
REMARK    3  A    between atoms: C_6  and  C_8
REMARK    4  A    between atoms: C_13  and  C_22
REMARK    5  A    between atoms: N_24  and  C_25
REMARK    6  A    between atoms: C_25  and  C_27
REMARK    7  A    between atoms: C_25  and  C_28
REMARK    8  A    between atoms: C_29  and  C_35
REMARK    9  A    between atoms: C_33  and  C_34
REMARK                            x       y       z     vdW  Elec       q    Type
REMARK                         _______ _______ _______ _____ _____    ______ ____
ROOT
ATOM      1  C   UNL     1       0.146  -4.140  -0.012  0.00  0.00    +0.247 C 
ATOM      2  O   UNL     1       0.257  -4.724   1.048  0.00  0.00    -0.270 OA
ATOM      3  N   UNL     1       0.093  -4.838  -1.164  0.00  0.00    -0.296 N 
ATOM      4  C   UNL     1       0.068  -4.308  -2.547  0.00  0.00    +0.121 C 
ATOM      5  C   UNL     1       0.965  -5.275  -3.352  0.00  0.00    +0.100 C 
ATOM      6  C   UNL     1       0.945  -6.587  -2.551  0.00  0.00    -0.004 C 
ATOM      7  C   UNL     1       0.052  -6.311  -1.333  0.00  0.00    +0.115 C 
ATOM      8  C   UNL     1       0.354  -7.713  -3.395  0.00  0.00    -0.010 C 
ATOM      9  C   UNL     1       0.399  -9.020  -2.598  0.00  0.00    -0.082 C 
ATOM     10  N   UNL     1       1.788  -9.328  -2.238  0.00  0.00    +0.379 N 
ATOM     11  C   UNL     1       2.318  -8.286  -1.350  0.00  0.00    -0.082 C 
ATOM     12  C   UNL     1       2.355  -6.949  -2.094  0.00  0.00    -0.010 C 
ATOM     13  H   UNL     1       1.821 -10.220  -1.766  0.00  0.00    -0.086 HD
ATOM     14  H   UNL     1       2.349  -9.372  -3.075  0.00  0.00    -0.086 HD
ENDROOT
BRANCH   1  19
ATOM     15  C   UNL     1      -0.149   1.606  -0.115  0.00  0.00    +0.044 C 
ATOM     16  C   UNL     1      -0.072   0.101  -0.088  0.00  0.00    -0.050 A 
ATOM     17  C   UNL     1      -0.974  -0.648  -0.823  0.00  0.00    +0.004 A 
ATOM     18  C   UNL     1      -0.908  -2.026  -0.803  0.00  0.00    +0.013 A 
ATOM     19  C   UNL     1       0.070  -2.664  -0.039  0.00  0.00    +0.040 A 
ATOM     20  C   UNL     1       0.977  -1.902   0.700  0.00  0.00    -0.038 A 
ATOM     21  C   UNL     1       0.904  -0.525   0.667  0.00  0.00    +0.007 A 
ATOM     22  C   UNL     1       2.037  -2.583   1.527  0.00  0.00    +0.044 C 
ENDBRANCH   1  19
BRANCH   5  23
ATOM     23  C   UNL     1       2.368  -4.734  -3.444  0.00  0.00    +0.219 C 
ATOM     24  O   UNL     1       2.787  -3.986  -2.587  0.00  0.00    -0.275 OA
ATOM     25  N   UNL     1       3.158  -5.083  -4.479  0.00  0.00    -0.308 N 
ATOM     26  H   UNL     1       2.823  -5.681  -5.165  0.00  0.00    +0.149 HD
BRANCH  25  27
ATOM     27  C   UNL     1       4.523  -4.558  -4.568  0.00  0.00    +0.104 C 
ATOM     28  C   UNL     1       5.463  -5.439  -3.744  0.00  0.00    +0.033 C 
BRANCH  27  29
ATOM     29  C   UNL     1       4.968  -4.557  -6.008  0.00  0.00    +0.015 A 
ATOM     30  C   UNL     1       5.611  -3.549  -6.642  0.00  0.00    +0.038 A 
ATOM     31  N   UNL     1       5.831  -3.939  -7.915  0.00  0.00    -0.281 N 
ATOM     32  H   UNL     1       6.275  -3.418  -8.603  0.00  0.00    +0.189 HD
ATOM     33  N   UNL     1       5.307  -5.229  -8.068  0.00  0.00    -0.179 NA
ATOM     34  C   UNL     1       4.795  -5.601  -6.923  0.00  0.00    +0.065 A 
ATOM     35  C   UNL     1       4.131  -6.923  -6.640  0.00  0.00    +0.068 C 
ATOM     36  C   UNL     1       6.008  -2.228  -6.036  0.00  0.00    +0.065 C 
ENDBRANCH  27  29
ENDBRANCH  25  27
ENDBRANCH   5  23
TORSDOF 4
