REMARK  Name = ZINC14478386
REMARK  3 active torsions:
REMARK  status: ('A' for Active; 'I' for Inactive)
REMARK    1  A    between atoms: C_4  and  N_32
REMARK    2  A    between atoms: C_5  and  C_7
REMARK    3  A    between atoms: C_18  and  C_23
REMARK                            x       y       z     vdW  Elec       q    Type
REMARK                         _______ _______ _______ _____ _____    ______ ____
ROOT
ATOM      1  C   UNL     1      -2.491   3.912   0.198  0.00  0.00    +0.107 C 
ATOM      2  C   UNL     1      -2.839   4.405  -1.210  0.00  0.00    +0.029 C 
ATOM      3  C   UNL     1      -1.923   5.628  -1.512  0.00  0.00    +0.033 C 
ATOM      4  C   UNL     1      -2.640   6.780  -0.836  0.00  0.00    -0.030 C 
ATOM      5  C   UNL     1      -3.908   6.493  -0.663  0.00  0.00    -0.023 C 
ATOM      6  C   UNL     1      -4.208   5.112  -1.193  0.00  0.00    +0.049 C 
ATOM      7  C   UNL     1      -5.217   4.407  -0.343  0.00  0.00    -0.019 A 
ATOM      8  C   UNL     1      -6.544   4.786  -0.438  0.00  0.00    +0.019 A 
ATOM      9  C   UNL     1      -7.518   4.152   0.333  0.00  0.00    +0.037 A 
ATOM     10  C   UNL     1      -7.155   3.125   1.210  0.00  0.00    +0.015 A 
ATOM     11  C   UNL     1      -5.835   2.749   1.306  0.00  0.00    +0.024 A 
ATOM     12  C   UNL     1      -4.867   3.386   0.534  0.00  0.00    +0.031 A 
ATOM     13  N   UNL     1      -3.537   2.989   0.650  0.00  0.00    -0.336 N 
ATOM     14  H   UNL     1      -3.308   2.123   1.020  0.00  0.00    +0.147 HD
ENDROOT
BRANCH   9  15
ATOM     15  C   UNL     1      -8.930   4.564   0.224  0.00  0.00    +0.247 C 
ATOM     16  O   UNL     1      -9.434   4.720  -0.872  0.00  0.00    -0.270 OA
ATOM     17  N   UNL     1      -9.661   4.766   1.337  0.00  0.00    -0.298 N 
ATOM     18  C   UNL     1     -11.009   5.270   1.199  0.00  0.00    +0.108 C 
ATOM     19  C   UNL     1     -10.998   6.813   1.207  0.00  0.00    +0.019 C 
ATOM     20  C   UNL     1     -10.688   7.314   2.555  0.00  0.00    +0.002 C 
ATOM     21  C   UNL     1      -9.306   6.921   3.070  0.00  0.00    +0.002 C 
ATOM     22  C   UNL     1      -9.378   5.550   3.697  0.00  0.00    +0.019 C 
ATOM     23  C   UNL     1      -9.051   4.471   2.648  0.00  0.00    +0.108 C 
ENDBRANCH   9  15
BRANCH   1  28
ATOM     24  C   UNL     1       0.603   2.156  -1.067  0.00  0.00    +0.000 A 
ATOM     25  C   UNL     1       1.268   1.883   0.114  0.00  0.00    +0.002 A 
ATOM     26  C   UNL     1       0.716   2.267   1.322  0.00  0.00    +0.033 A 
ATOM     27  C   UNL     1      -0.500   2.924   1.349  0.00  0.00    +0.131 A 
ATOM     28  C   UNL     1      -1.165   3.196   0.168  0.00  0.00    +0.003 A 
ATOM     29  C   UNL     1      -0.610   2.818  -1.040  0.00  0.00    +0.008 A 
BRANCH  27  30
ATOM     30  N   UNL     1      -1.091   3.335   2.643  0.00  0.00    +0.057 N 
ATOM     31  O   UNL     1      -0.553   3.014   3.687  0.00  0.00    -0.126 OA
ATOM     32  O   UNL     1      -2.115   3.994   2.662  0.00  0.00    -0.126 OA
ENDBRANCH  27  30
ENDBRANCH   1  28
TORSDOF 3
