REMARK  Name = ZINC20919417
REMARK  11 active torsions:
REMARK  status: ('A' for Active; 'I' for Inactive)
REMARK    1  A    between atoms: C_1  and  C_2
REMARK    2  A    between atoms: C_2  and  C_3
REMARK    3  A    between atoms: C_3  and  C_5
REMARK    4  A    between atoms: C_3  and  S_6
REMARK    5  A    between atoms: S_6  and  C_7
REMARK    6  A    between atoms: N_11  and  N_12
REMARK    7  A    between atoms: N_13  and  N_14
REMARK    8  A    between atoms: C_15  and  C_16
REMARK    9  A    between atoms: C_15  and  C_23
REMARK   10  A    between atoms: C_16  and  C_17
REMARK   11  A    between atoms: C_23  and  C_24
REMARK                            x       y       z     vdW  Elec       q    Type
REMARK                         _______ _______ _______ _____ _____    ______ ____
ROOT
ATOM      1  N   UNL     1      -2.422   1.520   0.023  0.00  0.00    -0.188 NA
ATOM      2  C   UNL     1      -3.468   2.258   0.032  0.00  0.00    +0.045 C 
ENDROOT
BRANCH   1   8
ATOM      3  C   UNL     1       2.096   0.653  -0.015  0.00  0.00    +0.210 A 
ATOM      4  N   UNL     1       1.340  -0.419  -0.013  0.00  0.00    -0.119 NA
ATOM      5  N   UNL     1       0.002  -0.004   0.002  0.00  0.00    -0.109 NA
ATOM      6  C   UNL     1      -0.016   1.306   0.009  0.00  0.00    +0.254 A 
ATOM      7  N   UNL     1       1.278   1.747  -0.001  0.00  0.00    -0.211 N 
ATOM      8  N   UNL     1      -1.150   2.107   0.019  0.00  0.00    -0.204 N 
ATOM      9  H   UNL     1      -1.050   3.203   0.024  0.00  0.00    +0.177 HD
BRANCH   7  10
ATOM     10  N   UNL     1       1.683   3.051   0.002  0.00  0.00    -0.294 N 
ATOM     11  H   UNL     1       0.936   3.859   0.013  0.00  0.00    +0.163 HD
ATOM     12  H   UNL     1       2.755   3.295  -0.008  0.00  0.00    +0.163 HD
ENDBRANCH   7  10
BRANCH   3  13
ATOM     13  S   UNL     1       3.858   0.677  -0.031  0.00  0.00    -0.081 S 
BRANCH  13  14
ATOM     14  C   UNL     1       4.321  -1.077  -0.046  0.00  0.00    +0.051 C 
ATOM     15  C   UNL     1       3.849  -1.718  -1.352  0.00  0.00    +0.019 C 
BRANCH  14  17
ATOM     16  C   UNL     1       6.300  -0.676   1.425  0.00  0.00    +0.005 C 
ATOM     17  C   UNL     1       5.842  -1.204   0.065  0.00  0.00    +0.011 C 
ENDBRANCH  14  17
ENDBRANCH  13  14
ENDBRANCH   3  13
ENDBRANCH   1   8
BRANCH   2  18
ATOM     18  C   UNL     1      -3.331   3.759   0.039  0.00  0.00    +0.088 C 
BRANCH  18  19
ATOM     19  C   UNL     1      -3.292   4.266  -1.380  0.00  0.00    -0.042 A 
ATOM     20  C   UNL     1      -2.082   4.396  -2.035  0.00  0.00    +0.004 A 
ATOM     21  C   UNL     1      -2.047   4.857  -3.338  0.00  0.00    +0.000 A 
ATOM     22  C   UNL     1      -3.222   5.198  -3.982  0.00  0.00    +0.000 A 
ATOM     23  C   UNL     1      -4.432   5.074  -3.325  0.00  0.00    +0.000 A 
ATOM     24  C   UNL     1      -4.467   4.608  -2.023  0.00  0.00    +0.004 A 
ENDBRANCH  18  19
ENDBRANCH   2  18
BRANCH   2  25
ATOM     25  C   UNL     1      -4.836   1.627   0.036  0.00  0.00    +0.088 C 
BRANCH  25  26
ATOM     26  C   UNL     1      -5.537   1.955   1.329  0.00  0.00    -0.042 A 
ATOM     27  C   UNL     1      -5.406   1.115   2.419  0.00  0.00    +0.004 A 
ATOM     28  C   UNL     1      -6.045   1.418   3.606  0.00  0.00    +0.000 A 
ATOM     29  C   UNL     1      -6.824   2.556   3.701  0.00  0.00    +0.000 A 
ATOM     30  C   UNL     1      -6.960   3.393   2.609  0.00  0.00    +0.000 A 
ATOM     31  C   UNL     1      -6.316   3.093   1.423  0.00  0.00    +0.004 A 
ENDBRANCH  25  26
ENDBRANCH   2  25
TORSDOF 9
