REMARK  Name = ZINC47146519
REMARK  6 active torsions:
REMARK  status: ('A' for Active; 'I' for Inactive)
REMARK    1  A    between atoms: C_1  and  O_2
REMARK    2  A    between atoms: O_2  and  C_3
REMARK    3  A    between atoms: C_6  and  N_9
REMARK    4  A    between atoms: C_14  and  C_28
REMARK    5  A    between atoms: C_32  and  O_34
REMARK    6  A    between atoms: O_34  and  C_35
REMARK                            x       y       z     vdW  Elec       q    Type
REMARK                         _______ _______ _______ _____ _____    ______ ____
ROOT
ATOM      1  N   UNL     1       3.703  -2.787  -6.048  0.00  0.00    -0.209 N 
ATOM      2  C   UNL     1       3.538  -4.121  -5.845  0.00  0.00    +0.232 C 
ATOM      3  O   UNL     1       3.176  -4.663  -4.823  0.00  0.00    -0.274 OA
ATOM      4  C   UNL     1       3.892  -4.784  -7.139  0.00  0.00    +0.110 C 
ATOM      5  C   UNL     1       4.520  -6.155  -7.116  0.00  0.00    +0.072 C 
ATOM      6  C   UNL     1       4.872  -6.542  -8.525  0.00  0.00    +0.033 A 
ATOM      7  C   UNL     1       5.046  -5.759  -9.612  0.00  0.00    +0.088 A 
ATOM      8  N   UNL     1       5.348  -6.433 -10.770  0.00  0.00    -0.311 N 
ATOM      9  H   UNL     1       5.477  -5.942 -11.597  0.00  0.00    +0.170 HD
ATOM     10  C   UNL     1       5.464  -7.774 -10.757  0.00  0.00    +0.289 A 
ATOM     11  O   UNL     1       5.728  -8.518 -11.685  0.00  0.00    -0.260 OA
ATOM     12  S   UNL     1       5.158  -8.176  -9.153  0.00  0.00    -0.030 S 
ATOM     13  S   UNL     1       4.901  -3.982  -9.502  0.00  0.00    -0.093 S 
ATOM     14  C   UNL     1       4.950  -3.783  -7.692  0.00  0.00    +0.152 C 
ATOM     15  C   UNL     1       4.356  -2.490  -7.201  0.00  0.00    +0.240 C 
ATOM     16  O   UNL     1       4.444  -1.401  -7.727  0.00  0.00    -0.274 OA
ENDROOT
BRANCH   1  20
ATOM     17  C   UNL     1       2.317   0.116  -3.392  0.00  0.00    +0.120 A 
ATOM     18  C   UNL     1       2.978   0.496  -4.551  0.00  0.00    +0.047 A 
ATOM     19  C   UNL     1       3.437  -0.465  -5.431  0.00  0.00    +0.027 A 
ATOM     20  C   UNL     1       3.237  -1.811  -5.154  0.00  0.00    +0.044 A 
ATOM     21  C   UNL     1       2.575  -2.190  -3.994  0.00  0.00    +0.027 A 
ATOM     22  C   UNL     1       2.121  -1.229  -3.113  0.00  0.00    +0.047 A 
BRANCH  17  24
ATOM     23  C   UNL     1       2.101   2.427  -2.877  0.00  0.00    +0.277 C 
ATOM     24  O   UNL     1       1.866   1.062  -2.526  0.00  0.00    -0.495 OA
ENDBRANCH  17  24
ENDBRANCH   1  20
BRANCH   5  25
ATOM     25  C   UNL     1       3.543  -7.150  -6.543  0.00  0.00    -0.035 A 
ATOM     26  C   UNL     1       2.325  -7.357  -7.163  0.00  0.00    +0.004 A 
ATOM     27  C   UNL     1       1.427  -8.269  -6.640  0.00  0.00    +0.004 A 
ATOM     28  C   UNL     1       1.744  -8.975  -5.495  0.00  0.00    +0.046 A 
ATOM     29  C   UNL     1       2.966  -8.768  -4.871  0.00  0.00    +0.129 A 
ATOM     30  C   UNL     1       3.868  -7.856  -5.401  0.00  0.00    +0.050 A 
BRANCH  29  31
ATOM     31  O   UNL     1       3.281  -9.461  -3.745  0.00  0.00    -0.456 OA
BRANCH  31  32
ATOM     32  C   UNL     1       4.485  -9.219  -3.163  0.00  0.00    +0.128 A 
ATOM     33  C   UNL     1       4.603  -8.231  -2.195  0.00  0.00    +0.046 A 
ATOM     34  C   UNL     1       5.827  -7.987  -1.605  0.00  0.00    +0.004 A 
ATOM     35  C   UNL     1       6.935  -8.725  -1.978  0.00  0.00    +0.000 A 
ATOM     36  C   UNL     1       6.821  -9.710  -2.942  0.00  0.00    +0.004 A 
ATOM     37  C   UNL     1       5.597  -9.962  -3.531  0.00  0.00    +0.046 A 
ENDBRANCH  31  32
ENDBRANCH  29  31
ENDBRANCH   5  25
TORSDOF 5
