REMARK  Name = ZINC61795416
REMARK  7 active torsions:
REMARK  status: ('A' for Active; 'I' for Inactive)
REMARK    1  A    between atoms: C_1  and  C_2
REMARK    2  A    between atoms: C_7  and  N_8
REMARK    3  A    between atoms: C_9  and  C_11
REMARK    4  A    between atoms: C_11  and  N_12
REMARK    5  A    between atoms: N_15  and  C_16
REMARK    6  A    between atoms: C_16  and  C_17
REMARK    7  A    between atoms: C_19  and  C_22
REMARK                            x       y       z     vdW  Elec       q    Type
REMARK                         _______ _______ _______ _____ _____    ______ ____
ROOT
ATOM      1  C   UNL     1      -0.167   0.054   4.882  0.00  0.00    +0.202 C 
ENDROOT
BRANCH   1   2
ATOM      2  N   UNL     1      -0.240  -0.903   5.989  0.00  0.00    -0.291 N 
ATOM      3  C   UNL     1      -0.345  -0.460   7.257  0.00  0.00    +0.300 C 
ATOM      4  O   UNL     1      -0.377   0.734   7.484  0.00  0.00    -0.253 OA
ATOM      5  N   UNL     1      -0.412  -1.341   8.275  0.00  0.00    -0.292 N 
ATOM      6  H   UNL     1      -0.214  -1.856   5.809  0.00  0.00    +0.151 HD
ATOM      7  H   UNL     1      -0.386  -2.294   8.095  0.00  0.00    +0.151 HD
BRANCH   5   8
ATOM      8  C   UNL     1      -0.526  -0.859   9.654  0.00  0.00    +0.183 C 
BRANCH   8   9
ATOM      9  C   UNL     1      -0.584  -2.036  10.594  0.00  0.00    +0.154 A 
ATOM     10  C   UNL     1       0.472  -2.637  11.177  0.00  0.00    +0.072 A 
ATOM     11  C   UNL     1      -0.010  -3.688  11.977  0.00  0.00    +0.081 A 
ATOM     12  N   UNL     1      -1.309  -3.712  11.874  0.00  0.00    -0.083 NA
ATOM     13  O   UNL     1      -1.696  -2.665  11.002  0.00  0.00    -0.358 OA
ATOM     14  C   UNL     1       0.830  -4.624  12.808  0.00  0.00    +0.069 C 
ENDBRANCH   8   9
ENDBRANCH   5   8
ENDBRANCH   1   2
BRANCH   1  16
ATOM     15  N   UNL     1       0.026  -0.014   2.417  0.00  0.00    -0.284 N 
ATOM     16  C   UNL     1      -0.056  -0.694   3.578  0.00  0.00    +0.234 C 
ATOM     17  O   UNL     1      -0.040  -1.906   3.574  0.00  0.00    -0.274 OA
ATOM     18  H   UNL     1       0.079   0.955   2.425  0.00  0.00    +0.155 HD
BRANCH  15  25
ATOM     19  C   UNL     1      -1.265   1.183   0.182  0.00  0.00    +0.046 C 
ATOM     20  C   UNL     1      -0.584  -0.158   0.085  0.00  0.00    -0.028 A 
ATOM     21  C   UNL     1      -0.570  -0.840  -1.116  0.00  0.00    +0.020 A 
ATOM     22  C   UNL     1       0.055  -2.071  -1.206  0.00  0.00    +0.018 A 
ATOM     23  C   UNL     1       0.666  -2.623  -0.094  0.00  0.00    +0.017 A 
ATOM     24  C   UNL     1       0.655  -1.945   1.109  0.00  0.00    +0.024 A 
ATOM     25  C   UNL     1       0.034  -0.706   1.201  0.00  0.00    +0.036 A 
ATOM     26 BR   UNL     1       0.072  -3.002  -2.852  0.00  0.00    -0.050 Br
ENDBRANCH  15  25
ENDBRANCH   1  16
TORSDOF 5
