REMARK  Name = ZINC08597564
REMARK  7 active torsions:
REMARK  status: ('A' for Active; 'I' for Inactive)
REMARK    1  A    between atoms: C_1  and  C_2
REMARK    2  A    between atoms: C_2  and  C_3
REMARK    3  A    between atoms: C_3  and  C_5
REMARK    4  A    between atoms: C_3  and  N_6
REMARK    5  A    between atoms: C_7  and  C_9
REMARK    6  A    between atoms: N_15  and  C_26
REMARK    7  A    between atoms: C_26  and  C_27
REMARK                            x       y       z     vdW  Elec       q    Type
REMARK                         _______ _______ _______ _____ _____    ______ ____
ROOT
ATOM      1  C   UNL     1       3.921   0.513   2.456  0.00  0.00    +0.039 A 
ATOM      2  C   UNL     1       4.368   0.808   1.167  0.00  0.00    +0.014 A 
ATOM      3  C   UNL     1       5.675   1.200   0.971  0.00  0.00    +0.020 A 
ATOM      4  C   UNL     1       6.546   1.303   2.043  0.00  0.00    +0.065 A 
ATOM      5  C   UNL     1       6.117   1.016   3.329  0.00  0.00    +0.054 A 
ATOM      6  C   UNL     1       4.795   0.622   3.534  0.00  0.00    +0.037 A 
ATOM      7  N   UNL     1       6.952   1.113   4.428  0.00  0.00    -0.262 N 
ATOM      8  C   UNL     1       8.181   0.705   4.601  0.00  0.00    +0.252 C 
ATOM      9  O   UNL     1       8.653   0.913   5.702  0.00  0.00    -0.270 OA
ATOM     10  C   UNL     1       9.068   0.029   3.651  0.00  0.00    +0.053 A 
ATOM     11  C   UNL     1       9.842  -1.055   4.087  0.00  0.00    +0.014 A 
ATOM     12  C   UNL     1      10.679  -1.706   3.208  0.00  0.00    +0.001 A 
ATOM     13  C   UNL     1      10.762  -1.295   1.890  0.00  0.00    +0.001 A 
ATOM     14  C   UNL     1      10.004  -0.225   1.450  0.00  0.00    +0.018 A 
ATOM     15  C   UNL     1       9.163   0.436   2.322  0.00  0.00    +0.056 A 
ATOM     16  S   UNL     1       8.211   1.804   1.752  0.00  0.00    +0.088 S 
ATOM     17  O   UNL     1       8.441   2.813   2.726  0.00  0.00    -0.247 OA
ENDROOT
BRANCH   1  19
ATOM     18  N   UNL     1       1.676  -0.013   1.633  0.00  0.00    -0.309 N 
ATOM     19  C   UNL     1       2.521   0.092   2.678  0.00  0.00    +0.244 C 
ATOM     20  O   UNL     1       2.133  -0.160   3.801  0.00  0.00    -0.270 OA
ATOM     21  H   UNL     1       1.986   0.187   0.736  0.00  0.00    +0.149 HD
BRANCH  18  22
ATOM     22  C   UNL     1       0.289  -0.431   1.852  0.00  0.00    +0.070 C 
ATOM     23  C   UNL     1       0.215  -1.959   1.878  0.00  0.00    +0.028 C 
BRANCH  22  25
ATOM     24  C   UNL     1      -0.614   1.632   0.771  0.00  0.00    +0.005 C 
ATOM     25  C   UNL     1      -0.590   0.103   0.720  0.00  0.00    +0.018 C 
ENDBRANCH  22  25
ENDBRANCH  18  22
ENDBRANCH   1  19
BRANCH   7  26
ATOM     26  C   UNL     1       6.362   1.787   5.587  0.00  0.00    +0.152 C 
BRANCH  26  27
ATOM     27  C   UNL     1       6.755   3.241   5.577  0.00  0.00    +0.005 A 
ATOM     28  C   UNL     1       7.768   3.690   6.404  0.00  0.00    +0.008 A 
ATOM     29  C   UNL     1       8.128   5.024   6.395  0.00  0.00    +0.000 A 
ATOM     30  C   UNL     1       7.476   5.912   5.559  0.00  0.00    +0.003 A 
ATOM     31  C   UNL     1       6.463   5.466   4.731  0.00  0.00    +0.038 A 
ATOM     32  C   UNL     1       6.105   4.128   4.736  0.00  0.00    +0.128 A 
ATOM     33  F   UNL     1       5.118   3.690   3.924  0.00  0.00    -0.205 F 
ENDBRANCH  26  27
ENDBRANCH   7  26
TORSDOF 5
