REMARK  Name = ZINC12101502
REMARK  7 active torsions:
REMARK  status: ('A' for Active; 'I' for Inactive)
REMARK    1  A    between atoms: C_1  and  C_2
REMARK    2  A    between atoms: C_3  and  C_35
REMARK    3  A    between atoms: N_9  and  C_30
REMARK    4  A    between atoms: C_10  and  S_12
REMARK    5  A    between atoms: S_12  and  C_13
REMARK    6  A    between atoms: C_13  and  C_14
REMARK    7  A    between atoms: C_18  and  C_27
REMARK                            x       y       z     vdW  Elec       q    Type
REMARK                         _______ _______ _______ _____ _____    ______ ____
ROOT
ATOM      1  S   UNL     1       1.662   2.194   0.003  0.00  0.00    -0.078 S 
ENDROOT
BRANCH   1  11
ATOM      2  C   UNL     1       1.496   9.152   0.142  0.00  0.00    +0.045 C 
ATOM      3  C   UNL     1       0.490   8.030   0.132  0.00  0.00    -0.026 A 
ATOM      4  C   UNL     1      -0.824   8.297   0.155  0.00  0.00    -0.008 A 
ATOM      5  S   UNL     1      -1.576   6.681   0.133  0.00  0.00    -0.073 S 
ATOM      6  C   UNL     1      -0.103   5.693   0.094  0.00  0.00    +0.117 A 
ATOM      7  C   UNL     1       0.932   6.647   0.099  0.00  0.00    +0.075 A 
ATOM      8  C   UNL     1       2.263   6.122   0.072  0.00  0.00    +0.263 A 
ATOM      9  O   UNL     1       3.223   6.873   0.075  0.00  0.00    -0.267 OA
ATOM     10  N   UNL     1       2.441   4.788   0.049  0.00  0.00    -0.284 N 
ATOM     11  C   UNL     1       1.378   3.932   0.040  0.00  0.00    +0.173 A 
ATOM     12  N   UNL     1       0.142   4.388   0.065  0.00  0.00    -0.216 NA
ATOM     13  C   UNL     1      -1.503   9.643   0.190  0.00  0.00    +0.052 C 
BRANCH  10  14
ATOM     14  C   UNL     1       3.801   4.245   0.026  0.00  0.00    +0.093 C 
ATOM     15  C   UNL     1       4.554   4.653   1.310  0.00  0.00    +0.025 C 
ATOM     16  C   UNL     1       6.003   4.918   0.831  0.00  0.00    +0.002 C 
ATOM     17  C   UNL     1       5.791   5.592  -0.547  0.00  0.00    +0.002 C 
ATOM     18  C   UNL     1       4.588   4.842  -1.154  0.00  0.00    +0.025 C 
ENDBRANCH  10  14
ENDBRANCH   1  11
BRANCH   1  19
ATOM     19  C   UNL     1      -0.046   1.595   0.014  0.00  0.00    +0.173 C 
BRANCH  19  20
ATOM     20  C   UNL     1      -0.051   0.089  -0.015  0.00  0.00    +0.230 C 
ATOM     21  O   UNL     1       0.993  -0.519  -0.132  0.00  0.00    -0.274 OA
ATOM     22  N   UNL     1      -1.214  -0.584   0.089  0.00  0.00    -0.264 N 
ATOM     23  C   UNL     1      -2.505   0.125   0.105  0.00  0.00    +0.168 C 
ATOM     24  C   UNL     1      -3.481  -0.670  -0.775  0.00  0.00    +0.276 C 
ATOM     25  O   UNL     1      -3.588  -1.999  -0.260  0.00  0.00    -0.476 OA
ATOM     26  C   UNL     1      -2.437  -2.670   0.005  0.00  0.00    +0.143 A 
ATOM     27  C   UNL     1      -1.238  -1.986   0.181  0.00  0.00    +0.078 A 
ATOM     28  C   UNL     1      -0.072  -2.684   0.450  0.00  0.00    +0.027 A 
ATOM     29  C   UNL     1      -0.100  -4.064   0.536  0.00  0.00    +0.002 A 
ATOM     30  C   UNL     1      -1.289  -4.745   0.354  0.00  0.00    +0.004 A 
ATOM     31  C   UNL     1      -2.455  -4.054   0.097  0.00  0.00    +0.047 A 
BRANCH  24  32
ATOM     32  C   UNL     1      -4.834  -0.006  -0.754  0.00  0.00    +0.253 C 
ATOM     33  O   UNL     1      -5.784  -0.582  -0.267  0.00  0.00    -0.272 OA
ATOM     34  N   UNL     1      -4.989   1.226  -1.279  0.00  0.00    -0.326 N 
ATOM     35  H   UNL     1      -4.229   1.685  -1.669  0.00  0.00    +0.145 HD
ATOM     36  H   UNL     1      -5.860   1.652  -1.266  0.00  0.00    +0.145 HD
ENDBRANCH  24  32
ENDBRANCH  19  20
ENDBRANCH   1  19
TORSDOF 5
