REMARK  Name = ZINC09592410
REMARK  2 active torsions:
REMARK  status: ('A' for Active; 'I' for Inactive)
REMARK    1  A    between atoms: C_6  and  N_7
REMARK    2  A    between atoms: C_10  and  C_22
REMARK                            x       y       z     vdW  Elec       q    Type
REMARK                         _______ _______ _______ _____ _____    ______ ____
ROOT
ATOM      1  C   UNL     1       1.368   7.905  -1.492  0.00  0.00    +0.036 A 
ATOM      2  C   UNL     1       2.563   7.374  -1.050  0.00  0.00    +0.049 A 
ATOM      3  C   UNL     1       2.723   5.997  -0.963  0.00  0.00    +0.135 A 
ATOM      4  C   UNL     1       1.679   5.159  -1.321  0.00  0.00    +0.010 A 
ATOM      5  C   UNL     1       0.483   5.696  -1.763  0.00  0.00    +0.041 A 
ATOM      6  C   UNL     1       0.328   7.067  -1.848  0.00  0.00    +0.127 A 
ATOM      7  C   UNL     1       1.835   3.665  -1.232  0.00  0.00    +0.104 C 
ATOM      8  C   UNL     1       3.289   3.298  -1.136  0.00  0.00    +0.091 A 
ATOM      9  C   UNL     1       3.692   1.976  -1.405  0.00  0.00    +0.262 A 
ATOM     10  O   UNL     1       2.866   1.135  -1.717  0.00  0.00    -0.267 OA
ATOM     11  N   UNL     1       4.995   1.646  -1.317  0.00  0.00    -0.273 N 
ATOM     12  H   UNL     1       5.316   0.615  -1.524  0.00  0.00    +0.173 HD
ATOM     13  C   UNL     1       5.910   2.571  -0.976  0.00  0.00    +0.352 A 
ATOM     14  O   UNL     1       7.082   2.256  -0.901  0.00  0.00    -0.245 OA
ATOM     15  N   UNL     1       5.548   3.829  -0.720  0.00  0.00    -0.157 NA
ATOM     16  C   UNL     1       4.229   4.213  -0.795  0.00  0.00    +0.234 A 
ATOM     17  O   UNL     1       3.900   5.489  -0.525  0.00  0.00    -0.437 OA
ENDROOT
BRANCH   7  18
ATOM     18  C   UNL     1       1.100   3.152   0.009  0.00  0.00    +0.093 A 
ATOM     19  C   UNL     1      -0.386   3.376  -0.196  0.00  0.00    +0.262 A 
ATOM     20  O   UNL     1      -0.971   2.891  -1.141  0.00  0.00    -0.267 OA
ATOM     21  N   UNL     1      -1.033   4.136   0.712  0.00  0.00    -0.275 N 
ATOM     22  C   UNL     1      -0.402   4.684   1.757  0.00  0.00    +0.329 A 
ATOM     23  O   UNL     1      -1.061   5.358   2.523  0.00  0.00    -0.247 OA
ATOM     24  N   UNL     1       0.901   4.538   2.023  0.00  0.00    -0.275 N 
ATOM     25  C   UNL     1       1.716   3.812   1.228  0.00  0.00    +0.262 A 
ATOM     26  O   UNL     1       2.896   3.693   1.479  0.00  0.00    -0.267 OA
ATOM     27  H   UNL     1      -2.112   4.321   0.606  0.00  0.00    +0.173 HD
ATOM     28  H   UNL     1       1.338   5.016   2.912  0.00  0.00    +0.173 HD
ENDBRANCH   7  18
BRANCH   6  29
ATOM     29  N   UNL     1      -0.954   7.638  -2.321  0.00  0.00    +0.056 N 
ATOM     30  O   UNL     1      -1.871   6.899  -2.634  0.00  0.00    -0.126 OA
ATOM     31  O   UNL     1      -1.092   8.846  -2.396  0.00  0.00    -0.126 OA
ENDBRANCH   6  29
TORSDOF 2
