REMARK  Name = ZINC35062314
REMARK  15 active torsions:
REMARK  status: ('A' for Active; 'I' for Inactive)
REMARK    1  A    between atoms: C_1  and  C_2
REMARK    2  A    between atoms: C_7  and  N_8
REMARK    3  A    between atoms: C_18  and  C_19
REMARK    4  A    between atoms: C_19  and  C_21
REMARK    5  A    between atoms: C_19  and  N_22
REMARK    6  A    between atoms: N_22  and  C_23
REMARK    7  A    between atoms: C_23  and  C_24
REMARK    8  A    between atoms: C_24  and  N_25
REMARK    9  A    between atoms: N_25  and  C_26
REMARK   10  A    between atoms: N_25  and  C_27
REMARK   11  A    between atoms: C_28  and  C_30
REMARK   12  A    between atoms: C_30  and  C_31
REMARK   13  A    between atoms: C_31  and  C_32
REMARK   14  A    between atoms: C_31  and  C_33
REMARK   15  A    between atoms: C_31  and  C_34
REMARK                            x       y       z     vdW  Elec       q    Type
REMARK                         _______ _______ _______ _____ _____    ______ ____
ROOT
ATOM      1  N   UNL     1       0.115   0.644   1.946  0.00  0.00    -0.263 N 
ATOM      2  C   UNL     1      -1.003   1.317   2.305  0.00  0.00    +0.266 A 
ATOM      3  O   UNL     1      -1.971   1.374   1.568  0.00  0.00    -0.267 OA
ATOM      4  C   UNL     1      -1.004   1.976   3.619  0.00  0.00    +0.065 A 
ATOM      5  C   UNL     1      -2.105   2.693   4.082  0.00  0.00    +0.015 A 
ATOM      6  C   UNL     1      -2.052   3.291   5.322  0.00  0.00    +0.001 A 
ATOM      7  C   UNL     1      -0.914   3.184   6.111  0.00  0.00    +0.002 A 
ATOM      8  C   UNL     1       0.184   2.480   5.671  0.00  0.00    +0.028 A 
ATOM      9  C   UNL     1       0.156   1.865   4.418  0.00  0.00    +0.078 A 
ATOM     10  N   UNL     1       1.215   1.161   3.946  0.00  0.00    -0.231 NA
ATOM     11  C   UNL     1       1.186   0.585   2.783  0.00  0.00    +0.138 A 
ENDROOT
BRANCH   1  18
ATOM     12  C   UNL     1       1.389   1.986  -0.215  0.00  0.00    +0.046 C 
ATOM     13  C   UNL     1       0.780   0.617  -0.377  0.00  0.00    -0.025 A 
ATOM     14  C   UNL     1       0.837  -0.025  -1.598  0.00  0.00    +0.025 A 
ATOM     15  C   UNL     1       0.277  -1.282  -1.747  0.00  0.00    +0.041 A 
ATOM     16  C   UNL     1      -0.339  -1.900  -0.672  0.00  0.00    +0.022 A 
ATOM     17  C   UNL     1      -0.397  -1.262   0.551  0.00  0.00    +0.028 A 
ATOM     18  C   UNL     1       0.168  -0.003   0.704  0.00  0.00    +0.054 A 
ATOM     19 CL   UNL     1       0.349  -2.086  -3.284  0.00  0.00    -0.084 Cl
ENDBRANCH   1  18
BRANCH  11  20
ATOM     20  C   UNL     1       2.402  -0.184   2.335  0.00  0.00    +0.139 C 
ATOM     21  C   UNL     1       2.000  -1.619   1.988  0.00  0.00    +0.036 C 
BRANCH  20  22
ATOM     22  N   UNL     1       3.393  -0.201   3.413  0.00  0.00    -0.293 N 
ATOM     23  C   UNL     1       3.102  -0.797   4.587  0.00  0.00    +0.217 C 
ATOM     24  O   UNL     1       3.886  -0.733   5.510  0.00  0.00    -0.276 OA
BRANCH  22  25
ATOM     25  C   UNL     1       4.702   0.428   3.217  0.00  0.00    +0.090 C 
BRANCH  25  26
ATOM     26  C   UNL     1       4.633   1.894   3.651  0.00  0.00    -0.060 C 
BRANCH  26  27
ATOM     27  N   UNL     1       5.944   2.525   3.453  0.00  0.00    +0.377 N 
ATOM     28  C   UNL     1       5.848   3.960   3.756  0.00  0.00    -0.097 C 
ATOM     29  C   UNL     1       6.928   1.901   4.348  0.00  0.00    -0.097 C 
ATOM     30  H   UNL     1       6.236   2.403   2.495  0.00  0.00    -0.083 HD
ENDBRANCH  26  27
ENDBRANCH  25  26
ENDBRANCH  22  25
BRANCH  23  31
ATOM     31  C   UNL     1       1.802  -1.542   4.751  0.00  0.00    +0.102 C 
BRANCH  31  32
ATOM     32  C   UNL     1       1.649  -1.984   6.208  0.00  0.00    -0.029 C 
ATOM     33  C   UNL     1       1.650  -0.753   7.117  0.00  0.00    +0.011 C 
ATOM     34  C   UNL     1       0.329  -2.740   6.375  0.00  0.00    +0.011 C 
ATOM     35  C   UNL     1       2.814  -2.900   6.589  0.00  0.00    +0.011 C 
ENDBRANCH  31  32
ENDBRANCH  23  31
ENDBRANCH  20  22
ENDBRANCH  11  20
TORSDOF 8
