REMARK  Name = ZINC34896887
REMARK  14 active torsions:
REMARK  status: ('A' for Active; 'I' for Inactive)
REMARK    1  A    between atoms: C_1  and  C_2
REMARK    2  A    between atoms: C_2  and  C_3
REMARK    3  A    between atoms: C_3  and  C_38
REMARK    4  A    between atoms: N_8  and  C_9
REMARK    5  A    between atoms: C_12  and  C_15
REMARK    6  A    between atoms: N_16  and  C_17
REMARK    7  A    between atoms: C_17  and  C_19
REMARK    8  A    between atoms: C_17  and  C_34
REMARK    9  A    between atoms: C_19  and  N_21
REMARK   10  A    between atoms: C_19  and  O_26
REMARK   11  A    between atoms: O_26  and  C_27
REMARK   12  A    between atoms: C_34  and  C_35
REMARK   13  A    between atoms: C_34  and  C_36
REMARK   14  A    between atoms: C_34  and  C_37
REMARK                            x       y       z     vdW  Elec       q    Type
REMARK                         _______ _______ _______ _____ _____    ______ ____
ROOT
ATOM      1  C   UNL     1       0.948  -0.352   1.321  0.00  0.00    +0.089 C 
ATOM      2  C   UNL     1       1.345  -1.813   1.258  0.00  0.00    +0.090 C 
ATOM      3  N   UNL     1       2.620  -1.857   1.549  0.00  0.00    -0.287 N 
ATOM      4  C   UNL     1       3.130  -0.647   1.795  0.00  0.00    +0.143 C 
ATOM      5  S   UNL     1       4.769  -0.367   2.204  0.00  0.00    -0.018 S 
ATOM      6  N   UNL     1       2.206   0.326   1.684  0.00  0.00    -0.270 N 
ATOM      7  N   UNL     1       0.539  -2.865   0.961  0.00  0.00    -0.325 N 
ATOM      8  C   UNL     1      -0.117  -0.124   2.395  0.00  0.00    +0.040 C 
ATOM      9  H   UNL     1      -0.398  -2.717   0.760  0.00  0.00    +0.147 HD
ATOM     10  H   UNL     1       3.137  -2.677   1.582  0.00  0.00    +0.155 HD
ENDROOT
BRANCH   6  11
ATOM     11  C   UNL     1       2.400   1.698   1.873  0.00  0.00    +0.036 A 
ATOM     12  C   UNL     1       1.798   2.345   2.945  0.00  0.00    +0.024 A 
ATOM     13  C   UNL     1       1.991   3.700   3.129  0.00  0.00    +0.005 A 
ATOM     14  C   UNL     1       2.783   4.413   2.248  0.00  0.00    -0.050 A 
ATOM     15  C   UNL     1       3.384   3.772   1.180  0.00  0.00    +0.005 A 
ATOM     16  C   UNL     1       3.199   2.416   0.993  0.00  0.00    +0.024 A 
ATOM     17  C   UNL     1       2.992   5.891   2.452  0.00  0.00    +0.044 C 
ENDBRANCH   6  11
BRANCH   1  19
ATOM     18  C   UNL     1       0.104   1.619   0.038  0.00  0.00    +0.006 C 
ATOM     19  C   UNL     1       0.449   0.131  -0.043  0.00  0.00    +0.030 C 
ENDBRANCH   1  19
BRANCH   7  20
ATOM     20  C   UNL     1       1.086  -4.224   0.944  0.00  0.00    +0.140 C 
BRANCH  20  21
ATOM     21  C   UNL     1       1.067  -4.800   2.361  0.00  0.00    -0.014 C 
ATOM     22  C   UNL     1      -0.380  -4.930   2.840  0.00  0.00    +0.012 C 
ATOM     23  C   UNL     1       1.730  -6.178   2.361  0.00  0.00    +0.012 C 
ATOM     24  C   UNL     1       1.833  -3.866   3.301  0.00  0.00    +0.012 C 
ENDBRANCH  20  21
BRANCH  20  25
ATOM     25  C   UNL     1       0.235  -5.104   0.025  0.00  0.00    +0.315 C 
BRANCH  25  26
ATOM     26  N   UNL     1       0.136  -4.478  -1.296  0.00  0.00    -0.211 N 
ATOM     27  C   UNL     1       0.451  -5.036  -2.477  0.00  0.00    +0.223 A 
ATOM     28  N   UNL     1       0.221  -4.154  -3.416  0.00  0.00    -0.223 NA
ATOM     29  C   UNL     1      -0.240  -3.027  -2.875  0.00  0.00    +0.245 A 
ATOM     30  N   UNL     1      -0.315  -3.179  -1.579  0.00  0.00    -0.155 NA
ENDBRANCH  25  26
BRANCH  25  31
ATOM     31  O   UNL     1       0.846  -6.390  -0.102  0.00  0.00    -0.465 OA
BRANCH  31  32
ATOM     32  C   UNL     1       0.033  -7.430  -0.427  0.00  0.00    +0.124 A 
ATOM     33  C   UNL     1      -1.303  -7.201  -0.721  0.00  0.00    +0.047 A 
ATOM     34  C   UNL     1      -2.128  -8.259  -1.051  0.00  0.00    +0.023 A 
ATOM     35  C   UNL     1      -1.621  -9.546  -1.090  0.00  0.00    +0.041 A 
ATOM     36  C   UNL     1      -0.288  -9.776  -0.797  0.00  0.00    +0.023 A 
ATOM     37  C   UNL     1       0.541  -8.720  -0.473  0.00  0.00    +0.047 A 
ATOM     38 CL   UNL     1      -2.659 -10.874  -1.505  0.00  0.00    -0.084 Cl
ENDBRANCH  31  32
ENDBRANCH  25  31
ENDBRANCH  20  25
ENDBRANCH   7  20
TORSDOF 8
