REMARK  Name = ZINC34708002
REMARK  5 active torsions:
REMARK  status: ('A' for Active; 'I' for Inactive)
REMARK    1  A    between atoms: C_1  and  C_2
REMARK    2  A    between atoms: N_8  and  C_9
REMARK    3  A    between atoms: C_9  and  C_10
REMARK    4  A    between atoms: C_15  and  C_16
REMARK    5  A    between atoms: C_30  and  C_33
REMARK                            x       y       z     vdW  Elec       q    Type
REMARK                         _______ _______ _______ _____ _____    ______ ____
ROOT
ATOM      1  C   UNL     1      -0.710   0.636   0.882  0.00  0.00    -0.012 C 
ATOM      2  C   UNL     1      -1.318  -0.759   0.728  0.00  0.00    -0.054 C 
ATOM      3  C   UNL     1      -0.337  -1.663  -0.025  0.00  0.00    +0.092 C 
ATOM      4  N   UNL     1      -0.883  -3.029  -0.046  0.00  0.00    -0.304 N 
ATOM      5  C   UNL     1      -1.330  -3.617   1.226  0.00  0.00    +0.089 C 
ATOM      6  C   UNL     1      -2.264  -2.621   1.920  0.00  0.00    -0.059 C 
ATOM      7  N   UNL     1      -1.584  -1.327   2.056  0.00  0.00    +0.386 N 
ATOM      8  C   UNL     1      -0.975  -3.735  -1.221  0.00  0.00    +0.206 A 
ATOM      9  N   UNL     1      -2.032  -3.568  -1.972  0.00  0.00    -0.215 NA
ATOM     10  C   UNL     1      -2.195  -4.228  -3.146  0.00  0.00    +0.078 A 
ATOM     11  C   UNL     1      -3.331  -4.037  -3.935  0.00  0.00    +0.028 A 
ATOM     12  C   UNL     1      -3.463  -4.724  -5.122  0.00  0.00    +0.002 A 
ATOM     13  C   UNL     1      -2.480  -5.607  -5.545  0.00  0.00    +0.001 A 
ATOM     14  C   UNL     1      -1.350  -5.814  -4.783  0.00  0.00    +0.014 A 
ATOM     15  C   UNL     1      -1.196  -5.129  -3.581  0.00  0.00    +0.045 A 
ATOM     16  C   UNL     1      -0.015  -5.308  -2.729  0.00  0.00    +0.173 A 
ATOM     17  N   UNL     1       0.047  -4.579  -1.560  0.00  0.00    -0.244 N 
ATOM     18  C   UNL     1       1.237  -4.928  -0.974  0.00  0.00    +0.206 A 
ATOM     19  N   UNL     1       1.821  -5.802  -1.772  0.00  0.00    -0.125 NA
ATOM     20  N   UNL     1       1.078  -6.030  -2.798  0.00  0.00    -0.128 NA
ATOM     21  H   UNL     1      -0.712  -1.456   2.546  0.00  0.00    -0.081 HD
ENDROOT
BRANCH  18  22
ATOM     22  C   UNL     1       1.764  -4.422   0.302  0.00  0.00    +0.172 A 
ATOM     23  C   UNL     1       2.167  -5.183   1.360  0.00  0.00    +0.053 A 
ATOM     24  C   UNL     1       2.594  -4.290   2.361  0.00  0.00    +0.042 A 
ATOM     25  C   UNL     1       2.434  -3.043   1.874  0.00  0.00    +0.196 A 
ATOM     26  O   UNL     1       1.938  -3.126   0.629  0.00  0.00    -0.460 OA
ENDBRANCH  18  22
BRANCH   7  27
ATOM     27  C   UNL     1      -2.437  -0.405   2.818  0.00  0.00    -0.042 C 
BRANCH  27  28
ATOM     28  C   UNL     1      -2.660  -0.955   4.203  0.00  0.00    -0.052 A 
ATOM     29  C   UNL     1      -3.807  -1.673   4.485  0.00  0.00    +0.002 A 
ATOM     30  C   UNL     1      -4.012  -2.178   5.756  0.00  0.00    +0.000 A 
ATOM     31  C   UNL     1      -3.069  -1.966   6.744  0.00  0.00    +0.001 A 
ATOM     32  C   UNL     1      -1.921  -1.249   6.462  0.00  0.00    +0.012 A 
ATOM     33  C   UNL     1      -1.715  -0.747   5.190  0.00  0.00    +0.056 A 
BRANCH  33  34
ATOM     34  C   UNL     1      -0.462   0.030   4.881  0.00  0.00    +0.418 C 
ATOM     35  F   UNL     1       0.275   0.215   6.056  0.00  0.00    -0.166 F 
ATOM     36  F   UNL     1       0.310  -0.679   3.954  0.00  0.00    -0.166 F 
ATOM     37  F   UNL     1      -0.806   1.276   4.346  0.00  0.00    -0.166 F 
ENDBRANCH  33  34
ENDBRANCH  27  28
ENDBRANCH   7  27
TORSDOF 4
