REMARK  Name = ZINC39575922
REMARK  11 active torsions:
REMARK  status: ('A' for Active; 'I' for Inactive)
REMARK    1  A    between atoms: C_1  and  O_2
REMARK    2  A    between atoms: O_2  and  C_3
REMARK    3  A    between atoms: C_6  and  C_9
REMARK    4  A    between atoms: C_13  and  S_24
REMARK    5  A    between atoms: N_15  and  C_16
REMARK    6  A    between atoms: C_19  and  O_22
REMARK    7  A    between atoms: O_22  and  C_23
REMARK    8  A    between atoms: S_24  and  C_25
REMARK    9  A    between atoms: C_25  and  C_26
REMARK   10  A    between atoms: N_28  and  N_29
REMARK   11  A    between atoms: C_30  and  C_31
REMARK                            x       y       z     vdW  Elec       q    Type
REMARK                         _______ _______ _______ _____ _____    ______ ____
ROOT
ATOM      1  C   UNL     1       2.492  -2.606  -4.588  0.00  0.00    +0.188 C 
ATOM      2  N   UNL     1       3.541  -1.674  -5.061  0.00  0.00    -0.230 NA
ATOM      3  N   UNL     1       4.702  -1.965  -4.205  0.00  0.00    -0.226 NA
ATOM      4  C   UNL     1       4.635  -3.441  -4.041  0.00  0.00    +0.218 C 
ATOM      5  N   UNL     1       3.189  -3.731  -3.939  0.00  0.00    -0.284 N 
ATOM      6  H   UNL     1       3.758  -1.838  -6.033  0.00  0.00    +0.143 HD
ATOM      7  H   UNL     1       5.561  -1.689  -4.656  0.00  0.00    +0.143 HD
ENDROOT
BRANCH   1  11
ATOM      8  C   UNL     1      -0.051  -0.641  -1.771  0.00  0.00    +0.120 A 
ATOM      9  C   UNL     1      -0.592  -1.225  -2.907  0.00  0.00    +0.046 A 
ATOM     10  C   UNL     1       0.232  -1.859  -3.816  0.00  0.00    +0.010 A 
ATOM     11  C   UNL     1       1.595  -1.913  -3.594  0.00  0.00    -0.011 A 
ATOM     12  C   UNL     1       2.138  -1.333  -2.463  0.00  0.00    +0.010 A 
ATOM     13  C   UNL     1       1.319  -0.692  -1.554  0.00  0.00    +0.046 A 
BRANCH   8  15
ATOM     14  C   UNL     1      -2.259  -0.003  -1.163  0.00  0.00    +0.277 C 
ATOM     15  O   UNL     1      -0.859  -0.016  -0.875  0.00  0.00    -0.495 OA
ENDBRANCH   8  15
ENDBRANCH   1  11
BRANCH   5  16
ATOM     16  C   UNL     1       2.599  -4.852  -3.345  0.00  0.00    +0.033 A 
ATOM     17  C   UNL     1       1.218  -4.924  -3.217  0.00  0.00    +0.027 A 
ATOM     18  C   UNL     1       0.636  -6.031  -2.631  0.00  0.00    +0.047 A 
ATOM     19  C   UNL     1       1.430  -7.069  -2.169  0.00  0.00    +0.120 A 
ATOM     20  C   UNL     1       2.810  -6.998  -2.295  0.00  0.00    +0.047 A 
ATOM     21  C   UNL     1       3.393  -5.894  -2.887  0.00  0.00    +0.027 A 
BRANCH  19  22
ATOM     22  O   UNL     1       0.857  -8.159  -1.591  0.00  0.00    -0.495 OA
ATOM     23  C   UNL     1       1.735  -9.191  -1.138  0.00  0.00    +0.277 C 
ENDBRANCH  19  22
ENDBRANCH   5  16
BRANCH   4  24
ATOM     24  S   UNL     1       5.497  -3.951  -2.529  0.00  0.00    -0.112 S 
BRANCH  24  25
ATOM     25  C   UNL     1       4.635  -3.054  -1.209  0.00  0.00    +0.169 C 
BRANCH  25  26
ATOM     26  C   UNL     1       5.260  -3.393   0.120  0.00  0.00    +0.242 C 
ATOM     27  O   UNL     1       6.194  -4.163   0.171  0.00  0.00    -0.273 OA
ATOM     28  N   UNL     1       4.780  -2.839   1.251  0.00  0.00    -0.206 N 
ATOM     29  H   UNL     1       4.032  -2.223   1.210  0.00  0.00    +0.177 HD
BRANCH  28  30
ATOM     30  N   UNL     1       5.361  -3.154   2.486  0.00  0.00    -0.188 NA
ATOM     31  C   UNL     1       4.895  -2.616   3.585  0.00  0.00    +0.136 C 
BRANCH  31  32
ATOM     32  C   UNL     1       5.476  -2.932   4.822  0.00  0.00    +0.000 C 
ATOM     33  C   UNL     1       5.100  -2.455   6.075  0.00  0.00    +0.004 A 
ATOM     34  C   UNL     1       4.087  -1.564   6.493  0.00  0.00    +0.010 A 
ATOM     35  C   UNL     1       3.948  -1.273   7.811  0.00  0.00    +0.001 A 
ATOM     36  C   UNL     1       4.786  -1.836   8.778  0.00  0.00    +0.002 A 
ATOM     37  C   UNL     1       5.778  -2.698   8.450  0.00  0.00    +0.026 A 
ATOM     38  C   UNL     1       5.987  -3.051   7.090  0.00  0.00    +0.043 A 
ATOM     39  N   UNL     1       6.865  -3.850   6.522  0.00  0.00    -0.380 N 
ATOM     40  C   UNL     1       6.639  -3.866   5.074  0.00  0.00    +0.150 C 
ATOM     41  H   UNL     1       7.550  -4.353   6.989  0.00  0.00    +0.160 HD
ENDBRANCH  31  32
ENDBRANCH  28  30
ENDBRANCH  25  26
ENDBRANCH  24  25
ENDBRANCH   4  24
TORSDOF 9
