REMARK  Name = ZINC16390618
REMARK  13 active torsions:
REMARK  status: ('A' for Active; 'I' for Inactive)
REMARK    1  A    between atoms: C_1  and  C_2
REMARK    2  A    between atoms: C_2  and  C_3
REMARK    3  A    between atoms: C_3  and  N_65
REMARK    4  A    between atoms: C_4  and  C_5
REMARK    5  A    between atoms: C_4  and  N_65
REMARK    6  A    between atoms: N_7  and  C_8
REMARK    7  A    between atoms: C_17  and  C_18
REMARK    8  A    between atoms: C_17  and  N_65
REMARK    9  A    between atoms: N_20  and  C_21
REMARK   10  A    between atoms: C_21  and  C_23
REMARK   11  A    between atoms: C_21  and  C_33
REMARK   12  A    between atoms: C_33  and  C_34
REMARK   13  A    between atoms: C_33  and  C_35
REMARK                            x       y       z     vdW  Elec       q    Type
REMARK                         _______ _______ _______ _____ _____    ______ ____
ROOT
ATOM      1  C   UNL     1      -6.224  -0.166   2.324  0.00  0.00    +0.019 C 
ENDROOT
BRANCH   1   2
ATOM      2  C   UNL     1      -5.438  -0.883   1.256  0.00  0.00    +0.197 C 
ATOM      3  O   UNL     1      -5.649  -2.056   1.033  0.00  0.00    -0.278 OA
ATOM      4  N   UNL     1      -4.500  -0.220   0.550  0.00  0.00    -0.310 N 
ATOM      5  H   UNL     1      -4.376   0.732   0.684  0.00  0.00    +0.149 HD
BRANCH   4   6
ATOM      6  C   UNL     1      -3.669  -0.939  -0.419  0.00  0.00    +0.106 C 
BRANCH   6   7
ATOM      7  C   UNL     1      -2.310  -0.293  -0.492  0.00  0.00    -0.023 A 
ATOM      8  C   UNL     1      -2.198   1.085  -0.457  0.00  0.00    +0.009 A 
ATOM      9  C   UNL     1      -0.954   1.681  -0.529  0.00  0.00    +0.050 A 
ATOM     10  C   UNL     1       0.188   0.899  -0.629  0.00  0.00    +0.162 A 
ATOM     11  C   UNL     1       0.075  -0.486  -0.661  0.00  0.00    +0.162 A 
ATOM     12  C   UNL     1      -1.177  -1.078  -0.594  0.00  0.00    +0.055 A 
ATOM     13  O   UNL     1       1.181  -1.272  -0.759  0.00  0.00    -0.485 OA
ATOM     14  C   UNL     1       2.386  -0.637  -1.201  0.00  0.00    +0.270 C 
ATOM     15  C   UNL     1       2.547   0.679  -0.428  0.00  0.00    +0.270 C 
ATOM     16  O   UNL     1       1.406   1.501  -0.699  0.00  0.00    -0.485 OA
ENDBRANCH   6   7
BRANCH   6  17
ATOM     17  C   UNL     1      -4.333  -0.888  -1.797  0.00  0.00    +0.008 C 
ATOM     18  C   UNL     1      -3.409  -1.533  -2.832  0.00  0.00    +0.009 C 
ATOM     19  C   UNL     1      -5.660  -1.649  -1.752  0.00  0.00    +0.009 C 
ENDBRANCH   6  17
ENDBRANCH   4   6
ENDBRANCH   1   2
BRANCH   1  20
ATOM     20  N   UNL     1      -7.096  -1.144   3.007  0.00  0.00    +0.391 N 
ATOM     21  H   UNL     1      -7.514  -1.766   2.305  0.00  0.00    -0.080 HD
BRANCH  20  22
ATOM     22  C   UNL     1      -8.178  -0.440   3.727  0.00  0.00    -0.078 C 
BRANCH  22  24
ATOM     23  C   UNL     1     -10.315   0.819   3.426  0.00  0.00    +0.002 C 
ATOM     24  C   UNL     1      -9.238  -0.003   2.715  0.00  0.00    -0.022 C 
ENDBRANCH  22  24
ENDBRANCH  20  22
BRANCH  20  25
ATOM     25  C   UNL     1      -6.302  -1.954   3.954  0.00  0.00    +0.020 C 
BRANCH  25  26
ATOM     26  C   UNL     1      -7.161  -3.080   4.470  0.00  0.00    +0.201 C 
ATOM     27  O   UNL     1      -8.311  -3.183   4.101  0.00  0.00    -0.278 OA
ATOM     28  N   UNL     1      -6.650  -3.972   5.342  0.00  0.00    -0.285 N 
ATOM     29  H   UNL     1      -5.759  -3.842   5.703  0.00  0.00    +0.155 HD
BRANCH  28  30
ATOM     30  C   UNL     1      -7.406  -5.088   5.726  0.00  0.00    +0.072 A 
ATOM     31  C   UNL     1      -8.274  -5.684   4.822  0.00  0.00    +0.029 A 
ATOM     32  C   UNL     1      -9.016  -6.786   5.201  0.00  0.00    +0.043 A 
ATOM     33  C   UNL     1      -8.902  -7.292   6.485  0.00  0.00    +0.161 A 
ATOM     34  C   UNL     1      -8.040  -6.697   7.393  0.00  0.00    +0.195 A 
ATOM     35  C   UNL     1      -7.291  -5.595   7.015  0.00  0.00    +0.182 A 
ATOM     36  F   UNL     1      -6.450  -5.014   7.899  0.00  0.00    -0.200 F 
ATOM     37  F   UNL     1      -7.931  -7.192   8.645  0.00  0.00    -0.199 F 
ATOM     38  F   UNL     1      -9.633  -8.367   6.853  0.00  0.00    -0.202 F 
ENDBRANCH  28  30
ENDBRANCH  25  26
ENDBRANCH  20  25
ENDBRANCH   1  20
TORSDOF 10
