REMARK  Name = ZINC01867454
REMARK  8 active torsions:
REMARK  status: ('A' for Active; 'I' for Inactive)
REMARK    1  A    between atoms: C_1  and  C_2
REMARK    2  A    between atoms: C_5  and  N_8
REMARK    3  A    between atoms: C_14  and  S_15
REMARK    4  A    between atoms: S_15  and  C_16
REMARK    5  A    between atoms: C_16  and  C_17
REMARK    6  A    between atoms: N_19  and  C_20
REMARK    7  A    between atoms: C_20  and  C_21
REMARK    8  A    between atoms: C_21  and  C_22
REMARK                            x       y       z     vdW  Elec       q    Type
REMARK                         _______ _______ _______ _____ _____    ______ ____
ROOT
ATOM      1  N   UNL     1       0.058  -4.171  -0.021  0.00  0.00    -0.256 N 
ATOM      2  C   UNL     1       0.169  -4.849   1.142  0.00  0.00    +0.263 A 
ATOM      3  O   UNL     1       0.278  -4.255   2.202  0.00  0.00    -0.267 OA
ATOM      4  C   UNL     1       0.156  -6.249   1.104  0.00  0.00    +0.050 A 
ATOM      5  C   UNL     1       0.027  -6.886  -0.120  0.00  0.00    +0.083 A 
ATOM      6  N   UNL     1      -0.048  -6.163  -1.243  0.00  0.00    -0.222 NA
ATOM      7  C   UNL     1      -0.042  -4.846  -1.202  0.00  0.00    +0.177 A 
ATOM      8  C   UNL     1      -0.055  -8.363  -0.159  0.00  0.00    +0.004 A 
ATOM      9  C   UNL     1       0.122  -9.055  -1.354  0.00  0.00    +0.010 A 
ATOM     10  C   UNL     1       0.061 -10.434  -1.362  0.00  0.00    +0.001 A 
ATOM     11  C   UNL     1      -0.174 -11.125  -0.186  0.00  0.00    +0.000 A 
ATOM     12  C   UNL     1      -0.358 -10.441   1.002  0.00  0.00    +0.004 A 
ATOM     13  C   UNL     1      -0.310  -9.061   1.021  0.00  0.00    -0.037 A 
ATOM     14  C   UNL     1      -0.563  -8.312   2.301  0.00  0.00    +0.047 C 
ATOM     15  C   UNL     1       0.297  -7.051   2.370  0.00  0.00    +0.007 C 
ATOM     16  C   UNL     1      -0.150  -6.197   3.561  0.00  0.00    +0.012 C 
ATOM     17  C   UNL     1      -0.004  -7.007   4.850  0.00  0.00    +0.001 C 
ATOM     18  C   UNL     1       1.460  -7.409   5.038  0.00  0.00    +0.000 C 
ATOM     19  C   UNL     1       1.912  -8.257   3.848  0.00  0.00    +0.001 C 
ATOM     20  C   UNL     1       1.765  -7.448   2.558  0.00  0.00    +0.012 C 
ENDROOT
BRANCH   1  25
ATOM     21  C   UNL     1      -0.017   1.503   0.012  0.00  0.00    +0.044 C 
ATOM     22  C   UNL     1       0.003  -0.004   0.003  0.00  0.00    -0.050 A 
ATOM     23  C   UNL     1      -1.182  -0.710   0.102  0.00  0.00    +0.005 A 
ATOM     24  C   UNL     1      -1.167  -2.091   0.095  0.00  0.00    +0.026 A 
ATOM     25  C   UNL     1       0.040  -2.771  -0.013  0.00  0.00    +0.052 A 
ATOM     26  C   UNL     1       1.228  -2.058  -0.113  0.00  0.00    +0.026 A 
ATOM     27  C   UNL     1       1.206  -0.678  -0.110  0.00  0.00    +0.005 A 
ENDBRANCH   1  25
BRANCH   7  28
ATOM     28  S   UNL     1      -0.158  -3.937  -2.707  0.00  0.00    -0.078 S 
BRANCH  28  29
ATOM     29  C   UNL     1      -0.270  -5.218  -3.986  0.00  0.00    +0.173 C 
BRANCH  29  30
ATOM     30  C   UNL     1      -0.375  -4.567  -5.341  0.00  0.00    +0.223 C 
ATOM     31  O   UNL     1      -0.375  -3.358  -5.435  0.00  0.00    -0.275 OA
ATOM     32  N   UNL     1      -0.470  -5.329  -6.449  0.00  0.00    -0.314 N 
ATOM     33  H   UNL     1      -0.470  -6.296  -6.375  0.00  0.00    +0.149 HD
BRANCH  32  34
ATOM     34  C   UNL     1      -0.573  -4.696  -7.767  0.00  0.00    +0.109 C 
BRANCH  34  35
ATOM     35  C   UNL     1      -0.667  -5.776  -8.846  0.00  0.00    +0.054 C 
BRANCH  35  36
ATOM     36  C   UNL     1      -0.772  -5.125 -10.201  0.00  0.00    -0.046 A 
ATOM     37  C   UNL     1      -2.014  -4.814 -10.723  0.00  0.00    +0.004 A 
ATOM     38  C   UNL     1      -2.111  -4.217 -11.966  0.00  0.00    +0.000 A 
ATOM     39  C   UNL     1      -0.966  -3.930 -12.686  0.00  0.00    +0.000 A 
ATOM     40  C   UNL     1       0.275  -4.241 -12.164  0.00  0.00    +0.000 A 
ATOM     41  C   UNL     1       0.372  -4.834 -10.919  0.00  0.00    +0.004 A 
ENDBRANCH  35  36
ENDBRANCH  34  35
ENDBRANCH  32  34
ENDBRANCH  29  30
ENDBRANCH  28  29
ENDBRANCH   7  28
TORSDOF 7
