REMARK  Name = ZINC15404543
REMARK  5 active torsions:
REMARK  status: ('A' for Active; 'I' for Inactive)
REMARK    1  A    between atoms: C_1  and  C_2
REMARK    2  A    between atoms: C_6  and  N_8
REMARK    3  A    between atoms: C_12  and  C_15
REMARK    4  A    between atoms: C_18  and  O_24
REMARK    5  A    between atoms: C_19  and  C_21
REMARK                            x       y       z     vdW  Elec       q    Type
REMARK                         _______ _______ _______ _____ _____    ______ ____
ROOT
ATOM      1  N   UNL     1       0.050  -2.791   2.363  0.00  0.00    -0.225 NA
ATOM      2  C   UNL     1      -0.808  -3.766   2.561  0.00  0.00    +0.174 C 
ATOM      3  N   UNL     1      -1.680  -4.207   1.573  0.00  0.00    -0.215 N 
ATOM      4  N   UNL     1      -2.961  -4.621   1.925  0.00  0.00    -0.184 NA
ATOM      5  C   UNL     1      -3.445  -4.793   3.088  0.00  0.00    +0.077 C 
ATOM      6  C   UNL     1      -2.740  -4.557   4.395  0.00  0.00    +0.134 C 
ATOM      7  S   UNL     1      -0.936  -4.627   4.110  0.00  0.00    -0.083 S 
ATOM      8  H   UNL     1      -1.397  -4.225   0.645  0.00  0.00    +0.176 HD
ENDROOT
BRANCH   1  14
ATOM      9  C   UNL     1      -2.470  -0.199  -0.939  0.00  0.00    +0.044 C 
ATOM     10  C   UNL     1      -1.184  -0.811  -0.447  0.00  0.00    -0.048 A 
ATOM     11  C   UNL     1      -0.022  -0.660  -1.184  0.00  0.00    +0.003 A 
ATOM     12  C   UNL     1       1.163  -1.218  -0.740  0.00  0.00    +0.002 A 
ATOM     13  C   UNL     1       1.195  -1.930   0.441  0.00  0.00    +0.028 A 
ATOM     14  C   UNL     1       0.026  -2.086   1.190  0.00  0.00    +0.067 A 
ATOM     15  C   UNL     1      -1.166  -1.514   0.739  0.00  0.00    +0.031 A 
ENDBRANCH   1  14
BRANCH   5  16
ATOM     16  C   UNL     1      -4.837  -5.274   3.163  0.00  0.00    -0.000 A 
ATOM     17  C   UNL     1      -5.440  -5.482   4.409  0.00  0.00    +0.013 A 
ATOM     18  C   UNL     1      -6.740  -5.930   4.484  0.00  0.00    +0.047 A 
ATOM     19  C   UNL     1      -7.462  -6.180   3.325  0.00  0.00    +0.129 A 
ATOM     20  C   UNL     1      -6.868  -5.975   2.071  0.00  0.00    +0.078 A 
ATOM     21  C   UNL     1      -5.554  -5.516   1.993  0.00  0.00    +0.026 A 
BRANCH  20  22
ATOM     22  C   UNL     1      -7.634  -6.240   0.837  0.00  0.00    +0.245 C 
ATOM     23  O   UNL     1      -8.781  -6.637   0.907  0.00  0.00    -0.270 OA
ATOM     24  N   UNL     1      -7.061  -6.043  -0.367  0.00  0.00    -0.325 N 
ATOM     25  H   UNL     1      -6.146  -5.727  -0.422  0.00  0.00    +0.145 HD
ATOM     26  H   UNL     1      -7.564  -6.217  -1.178  0.00  0.00    +0.145 HD
ENDBRANCH  20  22
BRANCH  19  27
ATOM     27  O   UNL     1      -8.742  -6.622   3.405  0.00  0.00    -0.506 OA
ATOM     28  H   UNL     1      -9.401  -5.915   3.428  0.00  0.00    +0.292 HD
ENDBRANCH  19  27
ENDBRANCH   5  16
TORSDOF 4
