REMARK  Name = ZINC25157454
REMARK  8 active torsions:
REMARK  status: ('A' for Active; 'I' for Inactive)
REMARK    1  A    between atoms: C_1  and  C_2
REMARK    2  A    between atoms: C_2  and  O_4
REMARK    3  A    between atoms: O_4  and  C_5
REMARK    4  A    between atoms: C_5  and  C_6
REMARK    5  A    between atoms: C_9  and  C_11
REMARK    6  A    between atoms: C_17  and  O_23
REMARK    7  A    between atoms: O_23  and  C_24
REMARK    8  A    between atoms: C_28  and  C_30
REMARK                            x       y       z     vdW  Elec       q    Type
REMARK                         _______ _______ _______ _____ _____    ______ ____
ROOT
ATOM      1  C   UNL     1       2.340   5.718   0.217  0.00  0.00    +0.189 C 
ATOM      2  C   UNL     1       3.291   5.796  -0.952  0.00  0.00    +0.049 A 
ATOM      3  C   UNL     1       4.046   4.756  -1.368  0.00  0.00    -0.015 A 
ATOM      4  C   UNL     1       4.821   5.222  -2.500  0.00  0.00    +0.007 A 
ATOM      5  C   UNL     1       5.762   4.597  -3.325  0.00  0.00    +0.056 A 
ATOM      6  C   UNL     1       6.314   5.368  -4.338  0.00  0.00    +0.121 A 
ATOM      7  C   UNL     1       5.952   6.696  -4.527  0.00  0.00    +0.047 A 
ATOM      8  C   UNL     1       5.024   7.330  -3.721  0.00  0.00    +0.030 A 
ATOM      9  C   UNL     1       4.454   6.578  -2.696  0.00  0.00    +0.047 A 
ATOM     10  N   UNL     1       3.526   6.889  -1.741  0.00  0.00    -0.356 N 
ATOM     11  H   UNL     1       2.993   7.832  -1.548  0.00  0.00    +0.166 HD
ATOM     12  C   UNL     1       4.046   3.387  -0.738  0.00  0.00    +0.056 C 
ATOM     13  C   UNL     1       3.431   3.483   0.664  0.00  0.00    +0.114 C 
ATOM     14  N   UNL     1       2.210   4.300   0.595  0.00  0.00    -0.282 N 
ATOM     15  C   UNL     1       1.003   3.764   0.865  0.00  0.00    +0.250 C 
ATOM     16  O   UNL     1       0.003   4.453   0.797  0.00  0.00    -0.270 OA
ENDROOT
BRANCH  15  17
ATOM     17  C   UNL     1       0.895   2.341   1.243  0.00  0.00    +0.073 A 
ATOM     18  C   UNL     1       1.773   1.401   0.699  0.00  0.00    +0.036 A 
ATOM     19  C   UNL     1       1.667   0.073   1.056  0.00  0.00    +0.042 A 
ATOM     20  C   UNL     1       0.691  -0.331   1.953  0.00  0.00    +0.023 A 
ATOM     21  C   UNL     1      -0.183   0.592   2.496  0.00  0.00    +0.040 A 
ATOM     22  C   UNL     1      -0.088   1.927   2.147  0.00  0.00    +0.136 A 
ATOM     23  F   UNL     1      -0.946   2.828   2.675  0.00  0.00    -0.205 F 
ATOM     24 CL   UNL     1       2.758  -1.095   0.380  0.00  0.00    -0.084 Cl
ENDBRANCH  15  17
BRANCH   1  28
ATOM     25  C   UNL     1      -0.922   6.509  -1.220  0.00  0.00    +0.143 A 
ATOM     26  C   UNL     1      -0.846   7.495  -0.308  0.00  0.00    +0.048 A 
ATOM     27  C   UNL     1       0.387   7.335   0.365  0.00  0.00    +0.047 A 
ATOM     28  C   UNL     1       0.994   6.267  -0.182  0.00  0.00    +0.132 A 
ATOM     29  O   UNL     1       0.195   5.769  -1.140  0.00  0.00    -0.459 OA
BRANCH  25  30
ATOM     30  C   UNL     1      -2.067   6.276  -2.172  0.00  0.00    +0.306 C 
BRANCH  30  31
ATOM     31  O   UNL     1      -1.832   7.011  -3.402  0.00  0.00    -0.457 OA
BRANCH  31  33
ATOM     32  C   UNL     1      -2.590   7.643  -5.665  0.00  0.00    +0.136 C 
ATOM     33  C   UNL     1      -2.766   6.909  -4.361  0.00  0.00    +0.304 C 
ATOM     34  O   UNL     1      -3.747   6.228  -4.179  0.00  0.00    -0.251 OA
ENDBRANCH  31  33
ENDBRANCH  30  31
ENDBRANCH  25  30
ENDBRANCH   1  28
BRANCH   6  35
ATOM     35  O   UNL     1       7.234   4.808  -5.168  0.00  0.00    -0.495 OA
ATOM     36  C   UNL     1       7.774   5.642  -6.195  0.00  0.00    +0.277 C 
ENDBRANCH   6  35
TORSDOF 6
