REMARK  Name = ZINC35927939
REMARK  8 active torsions:
REMARK  status: ('A' for Active; 'I' for Inactive)
REMARK    1  A    between atoms: C_1  and  C_2
REMARK    2  A    between atoms: C_2  and  O_3
REMARK    3  A    between atoms: O_3  and  C_4
REMARK    4  A    between atoms: C_11  and  C_21
REMARK    5  A    between atoms: N_12  and  C_13
REMARK    6  A    between atoms: C_13  and  C_14
REMARK    7  A    between atoms: C_19  and  C_20
REMARK    8  A    between atoms: C_26  and  N_29
REMARK                            x       y       z     vdW  Elec       q    Type
REMARK                         _______ _______ _______ _____ _____    ______ ____
ROOT
ATOM      1  C   UNL     1       0.810  -0.803  -2.801  0.00  0.00    +0.130 A 
ATOM      2  C   UNL     1       0.189  -1.141  -1.615  0.00  0.00    +0.046 A 
ATOM      3  C   UNL     1       0.393  -2.390  -1.046  0.00  0.00    +0.006 A 
ATOM      4  C   UNL     1       1.216  -3.313  -1.652  0.00  0.00    +0.026 A 
ATOM      5  C   UNL     1       1.855  -3.000  -2.848  0.00  0.00    +0.053 A 
ATOM      6  C   UNL     1       1.648  -1.736  -3.435  0.00  0.00    +0.042 A 
ATOM      7  C   UNL     1       2.407  -1.705  -4.628  0.00  0.00    +0.044 A 
ATOM      8  C   UNL     1       3.035  -2.905  -4.751  0.00  0.00    +0.106 A 
ATOM      9  N   UNL     1       2.713  -3.697  -3.665  0.00  0.00    -0.332 N 
ENDROOT
BRANCH   8  10
ATOM     10  C   UNL     1       3.926  -3.291  -5.854  0.00  0.00    +0.263 C 
ATOM     11  O   UNL     1       4.107  -4.468  -6.106  0.00  0.00    -0.268 OA
ATOM     12  N   UNL     1       4.542  -2.342  -6.587  0.00  0.00    -0.296 N 
ATOM     13  C   UNL     1       4.460  -0.927  -6.200  0.00  0.00    +0.110 C 
ATOM     14  C   UNL     1       5.880  -0.361  -6.098  0.00  0.00    +0.044 C 
ATOM     15  C   UNL     1       6.621  -0.612  -7.413  0.00  0.00    +0.095 C 
ATOM     16  C   UNL     1       6.719  -2.118  -7.667  0.00  0.00    +0.044 C 
ATOM     17  C   UNL     1       5.313  -2.704  -7.784  0.00  0.00    +0.110 C 
BRANCH  15  18
ATOM     18  N   UNL     1       7.968  -0.042  -7.330  0.00  0.00    -0.289 N 
ATOM     19  C   UNL     1       8.456   1.013  -8.097  0.00  0.00    +0.070 A 
ATOM     20  C   UNL     1       7.900   1.802  -9.093  0.00  0.00    +0.028 A 
ATOM     21  C   UNL     1       8.654   2.797  -9.682  0.00  0.00    +0.002 A 
ATOM     22  C   UNL     1       9.963   3.011  -9.284  0.00  0.00    +0.002 A 
ATOM     23  C   UNL     1      10.525   2.230  -8.293  0.00  0.00    +0.028 A 
ATOM     24  C   UNL     1       9.775   1.228  -7.695  0.00  0.00    +0.067 A 
ATOM     25  N   UNL     1      10.049   0.297  -6.696  0.00  0.00    -0.306 N 
ATOM     26  H   UNL     1      10.890   0.203  -6.222  0.00  0.00    +0.170 HD
ATOM     27  C   UNL     1       8.944  -0.446  -6.495  0.00  0.00    +0.328 A 
ATOM     28  O   UNL     1       8.845  -1.349  -5.685  0.00  0.00    -0.247 OA
ENDBRANCH  15  18
ENDBRANCH   8  10
BRANCH   1  29
ATOM     29  O   UNL     1       0.609   0.420  -3.353  0.00  0.00    -0.492 OA
BRANCH  29  31
ATOM     30  C   UNL     1      -0.361   2.633  -3.421  0.00  0.00    +0.048 C 
ATOM     31  C   UNL     1      -0.256   1.315  -2.651  0.00  0.00    +0.226 C 
ENDBRANCH  29  31
ENDBRANCH   1  29
BRANCH   9  32
ATOM     32  C   UNL     1       3.192  -5.062  -3.433  0.00  0.00    +0.158 C 
BRANCH  32  33
ATOM     33  C   UNL     1       4.544  -5.014  -2.770  0.00  0.00    -0.025 A 
ATOM     34  C   UNL     1       5.636  -4.524  -3.461  0.00  0.00    +0.005 A 
ATOM     35  C   UNL     1       6.877  -4.481  -2.853  0.00  0.00    +0.000 A 
ATOM     36  C   UNL     1       7.025  -4.926  -1.553  0.00  0.00    +0.000 A 
ATOM     37  C   UNL     1       5.933  -5.415  -0.861  0.00  0.00    +0.004 A 
ATOM     38  C   UNL     1       4.691  -5.455  -1.468  0.00  0.00    -0.046 A 
ATOM     39  C   UNL     1       3.500  -5.984  -0.712  0.00  0.00    +0.044 C 
ENDBRANCH  32  33
ENDBRANCH   9  32
TORSDOF 6
