REMARK  Name = ZINC54644019
REMARK  8 active torsions:
REMARK  status: ('A' for Active; 'I' for Inactive)
REMARK    1  A    between atoms: C_1  and  C_2
REMARK    2  A    between atoms: C_7  and  C_8
REMARK    3  A    between atoms: C_8  and  O_9
REMARK    4  A    between atoms: O_9  and  C_10
REMARK    5  A    between atoms: C_14  and  C_16
REMARK    6  A    between atoms: C_29  and  S_31
REMARK    7  A    between atoms: S_31  and  C_32
REMARK    8  A    between atoms: C_32  and  C_33
REMARK                            x       y       z     vdW  Elec       q    Type
REMARK                         _______ _______ _______ _____ _____    ______ ____
ROOT
ATOM      1  C   UNL     1       0.116  -1.625   8.410  0.00  0.00    +0.176 C 
ATOM      2  C   UNL     1       1.359  -1.349   9.227  0.00  0.00    +0.041 C 
ATOM      3  C   UNL     1       1.310  -0.699  10.409  0.00  0.00    +0.020 C 
ATOM      4  C   UNL     1       2.571  -0.423  11.194  0.00  0.00    +0.052 C 
ATOM      5  C   UNL     1       3.588  -1.538  10.944  0.00  0.00    +0.014 C 
ATOM      6  C   UNL     1       3.876  -1.599   9.440  0.00  0.00    +0.080 C 
ATOM      7  C   UNL     1       2.582  -1.803   8.703  0.00  0.00    +0.163 C 
ATOM      8  O   UNL     1       2.594  -2.374   7.630  0.00  0.00    -0.292 OA
ATOM      9  N   UNL     1       0.123  -0.267  10.951  0.00  0.00    -0.287 N 
ATOM     10  C   UNL     1      -1.055  -0.760  10.415  0.00  0.00    +0.219 A 
ATOM     11  N   UNL     1      -1.073  -1.403   9.224  0.00  0.00    -0.220 N 
ATOM     12  N   UNL     1      -2.399  -1.767   8.991  0.00  0.00    -0.141 NA
ATOM     13  C   UNL     1      -3.096  -1.333  10.018  0.00  0.00    +0.211 A 
ATOM     14  N   UNL     1      -2.275  -0.724  10.877  0.00  0.00    -0.187 NA
ATOM     15  H   UNL     1       0.111   0.364  11.687  0.00  0.00    +0.155 HD
ENDROOT
BRANCH   1  20
ATOM     16  C   UNL     1       0.053  -0.377   4.844  0.00  0.00    +0.121 A 
ATOM     17  C   UNL     1       0.031   0.997   5.035  0.00  0.00    +0.045 A 
ATOM     18  C   UNL     1       0.035   1.516   6.315  0.00  0.00    +0.004 A 
ATOM     19  C   UNL     1       0.062   0.667   7.406  0.00  0.00    +0.006 A 
ATOM     20  C   UNL     1       0.086  -0.703   7.218  0.00  0.00    -0.015 A 
ATOM     21  C   UNL     1       0.075  -1.226   5.940  0.00  0.00    +0.051 A 
BRANCH  16  22
ATOM     22  O   UNL     1       0.048  -0.889   3.585  0.00  0.00    -0.487 OA
BRANCH  22  23
ATOM     23  C   UNL     1       0.025   0.045   2.504  0.00  0.00    +0.264 C 
BRANCH  23  30
ATOM     24  C   UNL     1      -0.018   1.503   0.010  0.00  0.00    +0.044 C 
ATOM     25  C   UNL     1       0.002  -0.004   0.002  0.00  0.00    -0.044 A 
ATOM     26  C   UNL     1       0.006  -0.689  -1.199  0.00  0.00    +0.004 A 
ATOM     27  C   UNL     1       0.025  -2.071  -1.207  0.00  0.00    +0.000 A 
ATOM     28  C   UNL     1       0.040  -2.768  -0.013  0.00  0.00    +0.000 A 
ATOM     29  C   UNL     1       0.037  -2.084   1.188  0.00  0.00    +0.007 A 
ATOM     30  C   UNL     1       0.023  -0.702   1.195  0.00  0.00    -0.007 A 
ENDBRANCH  23  30
ENDBRANCH  22  23
ENDBRANCH  16  22
ENDBRANCH   1  20
BRANCH  13  31
ATOM     31  S   UNL     1      -4.835  -1.526  10.229  0.00  0.00    -0.080 S 
BRANCH  31  32
ATOM     32  C   UNL     1      -5.176  -0.723  11.820  0.00  0.00    +0.115 C 
BRANCH  32  33
ATOM     33  C   UNL     1      -6.648  -0.818  12.126  0.00  0.00    -0.002 A 
ATOM     34  C   UNL     1      -7.509   0.175  11.697  0.00  0.00    +0.007 A 
ATOM     35  C   UNL     1      -8.859   0.089  11.977  0.00  0.00    +0.000 A 
ATOM     36  C   UNL     1      -9.352  -0.991  12.685  0.00  0.00    +0.003 A 
ATOM     37  C   UNL     1      -8.494  -1.986  13.115  0.00  0.00    +0.038 A 
ATOM     38  C   UNL     1      -7.141  -1.903  12.830  0.00  0.00    +0.127 A 
ATOM     39  F   UNL     1      -6.302  -2.877  13.245  0.00  0.00    -0.205 F 
ENDBRANCH  32  33
ENDBRANCH  31  32
ENDBRANCH  13  31
TORSDOF 7
