REMARK  Name = ZINC15945023
REMARK  6 active torsions:
REMARK  status: ('A' for Active; 'I' for Inactive)
REMARK    1  A    between atoms: C_1  and  C_2
REMARK    2  A    between atoms: C_2  and  O_3
REMARK    3  A    between atoms: O_3  and  C_4
REMARK    4  A    between atoms: C_13  and  C_14
REMARK    5  A    between atoms: C_25  and  C_26
REMARK    6  A    between atoms: C_25  and  N_61
REMARK                            x       y       z     vdW  Elec       q    Type
REMARK                         _______ _______ _______ _____ _____    ______ ____
ROOT
ATOM      1  C   UNL     1      -0.013   1.086   0.008  0.00  0.00    +0.194 C 
ATOM      2  N   UNL     1       1.415   1.441  -0.085  0.00  0.00    -0.316 N 
ATOM      3  C   UNL     1       1.760   2.712   0.294  0.00  0.00    +0.080 A 
ATOM      4  C   UNL     1       0.984   3.484   1.173  0.00  0.00    +0.068 A 
ATOM      5  C   UNL     1       1.500   4.807   1.475  0.00  0.00    -0.027 A 
ATOM      6  C   UNL     1       2.662   5.137   0.865  0.00  0.00    -0.021 A 
ATOM      7  S   UNL     1       3.089   3.716  -0.103  0.00  0.00    -0.080 S 
ATOM      8  C   UNL     1       3.402   6.431   0.999  0.00  0.00    -0.035 C 
ATOM      9  C   UNL     1       1.855   6.859   2.813  0.00  0.00    -0.073 C 
ATOM     10  C   UNL     1       0.824   5.802   2.412  0.00  0.00    +0.018 C 
ATOM     11  C   UNL     1      -0.265   2.881   1.693  0.00  0.00    +0.248 C 
ATOM     12  O   UNL     1      -0.933   3.440   2.543  0.00  0.00    -0.270 OA
ATOM     13  N   UNL     1      -0.632   1.686   1.186  0.00  0.00    -0.289 N 
ATOM     14  H   UNL     1       2.078   0.806  -0.399  0.00  0.00    +0.149 HD
ATOM     15  H   UNL     1      -1.345   1.199   1.627  0.00  0.00    +0.151 HD
ATOM     16  N   UNL     1       2.477   7.423   1.598  0.00  0.00    +0.386 N 
ATOM     17  H   UNL     1       1.740   7.647   0.918  0.00  0.00    -0.081 HD
ENDROOT
BRANCH   1  27
ATOM     18  C   UNL     1      -1.898   2.266  -1.114  0.00  0.00    +0.128 A 
ATOM     19  C   UNL     1      -2.567   2.733  -2.250  0.00  0.00    +0.046 A 
ATOM     20  C   UNL     1      -2.074   2.503  -3.496  0.00  0.00    +0.012 A 
ATOM     21  C   UNL     1      -0.872   1.791  -3.649  0.00  0.00    -0.017 A 
ATOM     22  C   UNL     1      -0.334   1.535  -4.922  0.00  0.00    +0.008 A 
ATOM     23  C   UNL     1       0.833   0.843  -5.034  0.00  0.00    +0.001 A 
ATOM     24  C   UNL     1       1.505   0.382  -3.903  0.00  0.00    +0.001 A 
ATOM     25  C   UNL     1       1.014   0.610  -2.655  0.00  0.00    +0.009 A 
ATOM     26  C   UNL     1      -0.188   1.321  -2.499  0.00  0.00    -0.008 A 
ATOM     27  C   UNL     1      -0.725   1.576  -1.226  0.00  0.00    +0.040 A 
BRANCH  18  28
ATOM     28  O   UNL     1      -2.418   2.507   0.118  0.00  0.00    -0.492 OA
BRANCH  28  30
ATOM     29  C   UNL     1      -4.075   3.407   1.631  0.00  0.00    +0.048 C 
ATOM     30  C   UNL     1      -3.648   3.234   0.172  0.00  0.00    +0.225 C 
ENDBRANCH  28  30
ENDBRANCH  18  28
ENDBRANCH   1  27
BRANCH  16  31
ATOM     31  C   UNL     1       3.212   8.662   1.934  0.00  0.00    -0.043 C 
BRANCH  31  32
ATOM     32  C   UNL     1       4.234   8.392   3.008  0.00  0.00    -0.064 A 
ATOM     33  C   UNL     1       3.889   8.529   4.340  0.00  0.00    +0.002 A 
ATOM     34  C   UNL     1       4.825   8.277   5.325  0.00  0.00    +0.000 A 
ATOM     35  C   UNL     1       6.109   7.898   4.979  0.00  0.00    +0.000 A 
ATOM     36  C   UNL     1       6.455   7.767   3.647  0.00  0.00    +0.000 A 
ATOM     37  C   UNL     1       5.518   8.014   2.662  0.00  0.00    +0.002 A 
ENDBRANCH  31  32
ENDBRANCH  16  31
TORSDOF 5
