REMARK  Name = ZINC66778440
REMARK  3 active torsions:
REMARK  status: ('A' for Active; 'I' for Inactive)
REMARK    1  A    between atoms: C_10  and  C_13
REMARK    2  A    between atoms: N_15  and  C_16
REMARK    3  A    between atoms: C_21  and  C_22
REMARK                            x       y       z     vdW  Elec       q    Type
REMARK                         _______ _______ _______ _____ _____    ______ ____
ROOT
ATOM      1  C   UNL     1       4.946  -2.795   0.527  0.00  0.00    +0.265 C 
ATOM      2  O   UNL     1       5.898  -2.260   1.060  0.00  0.00    -0.268 OA
ATOM      3  N   UNL     1       5.094  -3.995  -0.070  0.00  0.00    -0.280 N 
ATOM      4  H   UNL     1       4.320  -4.458  -0.425  0.00  0.00    +0.155 HD
ENDROOT
BRANCH   1  14
ATOM      5  C   UNL     1      -0.149   1.067   1.241  0.00  0.00    +0.001 A 
ATOM      6  C   UNL     1       0.969   1.637   1.836  0.00  0.00    +0.002 A 
ATOM      7  C   UNL     1       2.185   0.991   1.812  0.00  0.00    +0.026 A 
ATOM      8  C   UNL     1       2.297  -0.247   1.185  0.00  0.00    +0.051 A 
ATOM      9  C   UNL     1       1.161  -0.820   0.584  0.00  0.00    +0.045 A 
ATOM     10  C   UNL     1      -0.062  -0.147   0.620  0.00  0.00    +0.014 A 
ATOM     11  C   UNL     1       1.296  -2.129  -0.076  0.00  0.00    +0.190 A 
ATOM     12  O   UNL     1       0.341  -2.666  -0.611  0.00  0.00    -0.287 OA
ATOM     13  C   UNL     1       2.575  -2.747  -0.069  0.00  0.00    +0.082 A 
ATOM     14  C   UNL     1       3.623  -2.129   0.534  0.00  0.00    +0.106 A 
ATOM     15  N   UNL     1       3.499  -0.915   1.145  0.00  0.00    -0.350 N 
ATOM     16  H   UNL     1       4.277  -0.513   1.562  0.00  0.00    +0.166 HD
ENDBRANCH   1  14
BRANCH   3  17
ATOM     17  C   UNL     1       6.360  -4.569  -0.176  0.00  0.00    +0.044 A 
ATOM     18  C   UNL     1       7.492  -3.766  -0.170  0.00  0.00    +0.024 A 
ATOM     19  C   UNL     1       8.745  -4.336  -0.275  0.00  0.00    +0.002 A 
ATOM     20  C   UNL     1       8.882  -5.710  -0.389  0.00  0.00    +0.001 A 
ATOM     21  C   UNL     1       7.768  -6.522  -0.397  0.00  0.00    +0.013 A 
ATOM     22  C   UNL     1       6.496  -5.960  -0.285  0.00  0.00    +0.038 A 
BRANCH  22  23
ATOM     23  C   UNL     1       5.298  -6.825  -0.288  0.00  0.00    +0.141 A 
ATOM     24  N   UNL     1       5.316  -8.194  -0.286  0.00  0.00    -0.338 N 
ATOM     25  H   UNL     1       6.104  -8.760  -0.283  0.00  0.00    +0.167 HD
ATOM     26  C   UNL     1       4.001  -8.619  -0.289  0.00  0.00    +0.066 A 
ATOM     27  C   UNL     1       3.393  -9.867  -0.288  0.00  0.00    +0.028 A 
ATOM     28  C   UNL     1       2.016  -9.955  -0.292  0.00  0.00    +0.002 A 
ATOM     29  C   UNL     1       1.237  -8.807  -0.296  0.00  0.00    +0.002 A 
ATOM     30  C   UNL     1       1.818  -7.571  -0.296  0.00  0.00    +0.030 A 
ATOM     31  C   UNL     1       3.212  -7.456  -0.292  0.00  0.00    +0.089 A 
ATOM     32  N   UNL     1       4.059  -6.397  -0.286  0.00  0.00    -0.228 NA
ENDBRANCH  22  23
ENDBRANCH   3  17
TORSDOF 3
