REMARK  Name = ZINC40993956
REMARK  10 active torsions:
REMARK  status: ('A' for Active; 'I' for Inactive)
REMARK    1  A    between atoms: C_1  and  C_2
REMARK    2  A    between atoms: C_5  and  C_8
REMARK    3  A    between atoms: C_10  and  C_13
REMARK    4  A    between atoms: C_17  and  N_18
REMARK    5  A    between atoms: C_19  and  C_21
REMARK    6  A    between atoms: C_21  and  C_23
REMARK    7  A    between atoms: C_21  and  O_24
REMARK    8  A    between atoms: O_24  and  C_25
REMARK    9  A    between atoms: C_29  and  C_32
REMARK   10  A    between atoms: C_30  and  C_31
REMARK                            x       y       z     vdW  Elec       q    Type
REMARK                         _______ _______ _______ _____ _____    ______ ____
ROOT
ATOM      1  C   UNL     1      -0.348  -7.879   1.803  0.00  0.00    +0.071 A 
ATOM      2  C   UNL     1      -0.237  -9.263   1.377  0.00  0.00    -0.023 A 
ATOM      3  C   UNL     1       0.001 -10.171   2.351  0.00  0.00    -0.004 A 
ATOM      4  S   UNL     1       0.085  -9.221   3.845  0.00  0.00    -0.077 S 
ATOM      5  C   UNL     1      -0.196  -7.601   3.153  0.00  0.00    +0.085 A 
ATOM      6  C   UNL     1       0.157 -11.651   2.193  0.00  0.00    +0.043 C 
ATOM      7  C   UNL     1      -0.362 -12.047   0.803  0.00  0.00    +0.005 C 
ATOM      8  C   UNL     1       0.236 -11.093  -0.235  0.00  0.00    +0.005 C 
ATOM      9  C   UNL     1      -0.377  -9.702  -0.077  0.00  0.00    +0.037 C 
ENDROOT
BRANCH   1  12
ATOM     10  C   UNL     1      -0.952  -4.832  -0.015  0.00  0.00    +0.202 A 
ATOM     11  N   UNL     1      -0.718  -5.524   1.110  0.00  0.00    -0.187 NA
ATOM     12  C   UNL     1      -0.605  -6.806   0.832  0.00  0.00    +0.261 A 
ATOM     13  O   UNL     1      -0.767  -6.963  -0.495  0.00  0.00    -0.332 OA
ATOM     14  N   UNL     1      -0.996  -5.667  -1.026  0.00  0.00    -0.056 NA
BRANCH  10  19
ATOM     15  C   UNL     1      -1.669   0.873  -0.351  0.00  0.00    +0.044 C 
ATOM     16  C   UNL     1      -1.480  -0.619  -0.264  0.00  0.00    -0.050 A 
ATOM     17  C   UNL     1      -1.550  -1.391  -1.409  0.00  0.00    +0.004 A 
ATOM     18  C   UNL     1      -1.379  -2.759  -1.334  0.00  0.00    +0.012 A 
ATOM     19  C   UNL     1      -1.136  -3.361  -0.102  0.00  0.00    +0.022 A 
ATOM     20  C   UNL     1      -1.066  -2.579   1.048  0.00  0.00    +0.012 A 
ATOM     21  C   UNL     1      -1.233  -1.212   0.962  0.00  0.00    +0.004 A 
ENDBRANCH  10  19
ENDBRANCH   1  12
BRANCH   5  22
ATOM     22  N   UNL     1      -0.252  -6.374   3.802  0.00  0.00    -0.276 N 
ATOM     23  C   UNL     1      -0.078  -6.309   5.137  0.00  0.00    +0.258 C 
ATOM     24  O   UNL     1       0.128  -7.322   5.772  0.00  0.00    -0.271 OA
ATOM     25  H   UNL     1      -0.416  -5.564   3.294  0.00  0.00    +0.155 HD
BRANCH  23  26
ATOM     26  C   UNL     1      -0.138  -4.978   5.841  0.00  0.00    +0.256 C 
ATOM     27  C   UNL     1       1.023  -4.100   5.371  0.00  0.00    +0.062 C 
BRANCH  26  28
ATOM     28  O   UNL     1      -0.042  -5.181   7.252  0.00  0.00    -0.480 OA
BRANCH  28  29
ATOM     29  C   UNL     1      -0.582  -4.224   8.051  0.00  0.00    +0.125 A 
ATOM     30  C   UNL     1      -1.091  -3.059   7.494  0.00  0.00    +0.046 A 
ATOM     31  C   UNL     1      -1.640  -2.088   8.309  0.00  0.00    +0.004 A 
ATOM     32  C   UNL     1      -1.683  -2.276   9.678  0.00  0.00    +0.004 A 
ATOM     33  C   UNL     1      -1.177  -3.435  10.236  0.00  0.00    -0.044 A 
ATOM     34  C   UNL     1      -0.631  -4.412   9.425  0.00  0.00    -0.006 A 
ATOM     35  C   UNL     1      -0.085  -5.678  10.033  0.00  0.00    +0.048 C 
ATOM     36  C   UNL     1      -1.225  -3.636  11.728  0.00  0.00    +0.044 C 
ENDBRANCH  28  29
ENDBRANCH  26  28
ENDBRANCH  23  26
ENDBRANCH   5  22
TORSDOF 6
