REMARK  Name = ZINC63502968
REMARK  9 active torsions:
REMARK  status: ('A' for Active; 'I' for Inactive)
REMARK    1  A    between atoms: C_1  and  C_2
REMARK    2  A    between atoms: C_2  and  C_3
REMARK    3  A    between atoms: C_14  and  C_34
REMARK    4  A    between atoms: N_16  and  C_19
REMARK    5  A    between atoms: C_19  and  C_20
REMARK    6  A    between atoms: N_22  and  C_23
REMARK    7  A    between atoms: C_23  and  C_24
REMARK    8  A    between atoms: C_24  and  C_25
REMARK    9  A    between atoms: C_34  and  C_35
REMARK                            x       y       z     vdW  Elec       q    Type
REMARK                         _______ _______ _______ _____ _____    ______ ____
ROOT
ATOM      1  C   UNL     1      -1.412  -0.526   0.013  0.00  0.00    -0.017 C 
ATOM      2  C   UNL     1      -2.136  -0.887  -1.027  0.00  0.00    +0.007 C 
ATOM      3  C   UNL     1      -3.539  -1.385  -0.838  0.00  0.00    +0.112 C 
ATOM      4  C   UNL     1      -4.063  -0.932   0.571  0.00  0.00    +0.078 C 
ATOM      5  S   UNL     1      -2.455  -0.792   1.438  0.00  0.00    -0.124 S 
ATOM      6  C   UNL     1      -4.585   0.494   0.274  0.00  0.00    +0.048 C 
ATOM      7  C   UNL     1      -5.214   0.322  -1.119  0.00  0.00    +0.164 C 
ATOM      8  N   UNL     1      -4.414  -0.733  -1.814  0.00  0.00    -0.298 N 
ATOM      9  C   UNL     1      -4.500  -0.947  -3.181  0.00  0.00    +0.117 C 
ATOM     10  N   UNL     1      -4.679   0.123  -3.906  0.00  0.00    -0.166 NA
ATOM     11  N   UNL     1      -4.743   1.391  -3.319  0.00  0.00    -0.181 N 
ATOM     12  C   UNL     1      -5.058   1.574  -1.951  0.00  0.00    +0.256 C 
ATOM     13  O   UNL     1      -5.161   2.675  -1.452  0.00  0.00    -0.272 OA
ENDROOT
BRANCH   1  15
ATOM     14  C   UNL     1      -0.019   1.526   0.010  0.00  0.00    +0.009 C 
ATOM     15  C   UNL     1       0.002  -0.004   0.002  0.00  0.00    +0.038 C 
ENDBRANCH   1  15
BRANCH   9  16
ATOM     16  C   UNL     1      -4.394  -2.322  -3.788  0.00  0.00    +0.070 C 
ATOM     17  C   UNL     1      -4.529  -2.220  -5.308  0.00  0.00    +0.012 C 
ENDBRANCH   9  16
BRANCH  11  18
ATOM     18  C   UNL     1      -4.512   2.571  -4.156  0.00  0.00    +0.230 C 
BRANCH  18  19
ATOM     19  C   UNL     1      -3.044   2.910  -4.151  0.00  0.00    +0.232 C 
ATOM     20  O   UNL     1      -2.267   2.234  -3.511  0.00  0.00    -0.274 OA
ATOM     21  N   UNL     1      -2.594   3.966  -4.857  0.00  0.00    -0.314 N 
ATOM     22  H   UNL     1      -3.215   4.507  -5.370  0.00  0.00    +0.149 HD
BRANCH  21  23
ATOM     23  C   UNL     1      -1.167   4.296  -4.852  0.00  0.00    +0.108 C 
BRANCH  23  24
ATOM     24  C   UNL     1      -0.925   5.529  -5.727  0.00  0.00    +0.052 C 
BRANCH  24  25
ATOM     25  C   UNL     1       0.543   5.868  -5.721  0.00  0.00    -0.040 C 
ATOM     26  C   UNL     1       1.468   5.493  -6.634  0.00  0.00    -0.001 A 
ATOM     27  C   UNL     1       1.388   4.685  -7.857  0.00  0.00    +0.010 A 
ATOM     28  C   UNL     1       2.511   4.476  -8.580  0.00  0.00    +0.001 A 
ATOM     29  C   UNL     1       3.748   5.010  -8.192  0.00  0.00    +0.002 A 
ATOM     30  C   UNL     1       3.901   5.761  -7.081  0.00  0.00    +0.026 A 
ATOM     31  C   UNL     1       2.786   6.045  -6.245  0.00  0.00    +0.043 A 
ATOM     32  N   UNL     1       2.679   6.736  -5.136  0.00  0.00    -0.380 N 
ATOM     33  C   UNL     1       1.279   6.704  -4.698  0.00  0.00    +0.144 C 
ATOM     34  H   UNL     1       3.404   7.194  -4.683  0.00  0.00    +0.160 HD
ENDBRANCH  24  25
ENDBRANCH  23  24
ENDBRANCH  21  23
ENDBRANCH  18  19
ENDBRANCH  11  18
TORSDOF 7
