REMARK  Name = ZINC22433476
REMARK  11 active torsions:
REMARK  status: ('A' for Active; 'I' for Inactive)
REMARK    1  A    between atoms: C_1  and  C_2
REMARK    2  A    between atoms: C_2  and  C_3
REMARK    3  A    between atoms: C_3  and  C_4
REMARK    4  A    between atoms: C_10  and  C_12
REMARK    5  A    between atoms: C_15  and  C_18
REMARK    6  A    between atoms: C_18  and  N_19
REMARK    7  A    between atoms: C_20  and  C_22
REMARK    8  A    between atoms: C_22  and  C_23
REMARK    9  A    between atoms: C_22  and  C_24
REMARK   10  A    between atoms: C_22  and  O_25
REMARK   11  A    between atoms: O_25  and  C_26
REMARK                            x       y       z     vdW  Elec       q    Type
REMARK                         _______ _______ _______ _____ _____    ______ ____
ROOT
ATOM      1  C   UNL     1       1.982  -0.510   6.682  0.00  0.00    +0.009 A 
ATOM      2  C   UNL     1       2.332   0.778   6.280  0.00  0.00    +0.011 A 
ATOM      3  C   UNL     1       1.557   1.443   5.351  0.00  0.00    +0.006 A 
ATOM      4  C   UNL     1       0.435   0.833   4.820  0.00  0.00    -0.030 A 
ATOM      5  C   UNL     1       0.079  -0.443   5.218  0.00  0.00    +0.006 A 
ATOM      6  C   UNL     1       0.849  -1.120   6.142  0.00  0.00    +0.011 A 
ENDROOT
BRANCH   1  13
ATOM      7  C   UNL     1       3.721  -4.096   9.849  0.00  0.00    +0.156 A 
ATOM      8  N   UNL     1       4.793  -3.932  10.573  0.00  0.00    -0.132 NA
ATOM      9  N   UNL     1       5.299  -2.768  10.354  0.00  0.00    -0.120 NA
ATOM     10  C   UNL     1       4.572  -2.140   9.481  0.00  0.00    +0.218 A 
ATOM     11  N   UNL     1       3.526  -2.948   9.109  0.00  0.00    -0.190 N 
ATOM     12  N   UNL     1       2.642  -2.428   8.172  0.00  0.00    -0.156 NA
ATOM     13  C   UNL     1       2.809  -1.228   7.678  0.00  0.00    +0.132 A 
ATOM     14  S   UNL     1       4.294  -0.682   8.506  0.00  0.00    -0.026 S 
BRANCH   7  15
ATOM     15  C   UNL     1       2.849  -5.325   9.825  0.00  0.00    +0.078 C 
BRANCH  15  17
ATOM     16  C   UNL     1       2.472  -7.538   8.728  0.00  0.00    +0.004 C 
ATOM     17  C   UNL     1       3.357  -6.290   8.753  0.00  0.00    +0.004 C 
ENDBRANCH  15  17
ENDBRANCH   7  15
ENDBRANCH   1  13
BRANCH   4  18
ATOM     18  C   UNL     1      -0.408   1.564   3.806  0.00  0.00    +0.139 C 
BRANCH  18  19
ATOM     19  N   UNL     1       0.088   1.275   2.459  0.00  0.00    -0.308 N 
ATOM     20  C   UNL     1      -0.515   1.824   1.386  0.00  0.00    +0.257 C 
ATOM     21  O   UNL     1      -1.469   2.558   1.536  0.00  0.00    -0.271 OA
ATOM     22  H   UNL     1       0.954   0.610   2.322  0.00  0.00    +0.149 HD
BRANCH  20  23
ATOM     23  C   UNL     1      -0.005   1.527  -0.000  0.00  0.00    +0.180 C 
ATOM     24  C   UNL     1      -0.086   0.021  -0.261  0.00  0.00    +0.065 C 
ATOM     25  C   UNL     1       1.450   1.987  -0.118  0.00  0.00    +0.065 C 
BRANCH  23  26
ATOM     26  O   UNL     1      -0.803   2.220  -0.961  0.00  0.00    -0.477 OA
BRANCH  26  27
ATOM     27  C   UNL     1      -0.815   3.577  -0.890  0.00  0.00    +0.122 A 
ATOM     28  C   UNL     1      -0.175   4.223   0.158  0.00  0.00    +0.047 A 
ATOM     29  C   UNL     1      -0.182   5.603   0.225  0.00  0.00    +0.019 A 
ATOM     30  C   UNL     1      -0.837   6.340  -0.745  0.00  0.00    +0.018 A 
ATOM     31  C   UNL     1      -1.481   5.698  -1.787  0.00  0.00    +0.019 A 
ATOM     32  C   UNL     1      -1.471   4.319  -1.862  0.00  0.00    +0.047 A 
ATOM     33 BR   UNL     1      -0.852   8.229  -0.646  0.00  0.00    -0.050 Br
ENDBRANCH  26  27
ENDBRANCH  23  26
ENDBRANCH  20  23
ENDBRANCH  18  19
ENDBRANCH   4  18
TORSDOF 8
