REMARK  Name = ZINC10215531
REMARK  3 active torsions:
REMARK  status: ('A' for Active; 'I' for Inactive)
REMARK    1  A    between atoms: C_8  and  C_19
REMARK    2  A    between atoms: C_12  and  C_14
REMARK    3  A    between atoms: N_21  and  C_22
REMARK                            x       y       z     vdW  Elec       q    Type
REMARK                         _______ _______ _______ _____ _____    ______ ____
ROOT
ATOM      1  C   UNL     1      -1.036  -3.346  -4.714  0.00  0.00    +0.000 A 
ATOM      2  C   UNL     1      -1.523  -4.534  -4.200  0.00  0.00    +0.000 A 
ATOM      3  C   UNL     1      -1.137  -4.943  -2.940  0.00  0.00    +0.005 A 
ATOM      4  C   UNL     1      -0.263  -4.172  -2.186  0.00  0.00    -0.027 A 
ATOM      5  C   UNL     1       0.216  -2.985  -2.692  0.00  0.00    -0.040 A 
ATOM      6  C   UNL     1      -0.172  -2.577  -3.963  0.00  0.00    +0.004 A 
ATOM      7  C   UNL     1       1.153  -2.089  -1.926  0.00  0.00    +0.067 C 
ATOM      8  C   UNL     1       1.860  -2.863  -0.815  0.00  0.00    +0.167 C 
ATOM      9  N   UNL     1       0.843  -3.639  -0.086  0.00  0.00    -0.279 N 
ATOM     10  C   UNL     1       0.139  -4.691  -0.827  0.00  0.00    +0.144 C 
ATOM     11  C   UNL     1       0.570  -3.393   1.211  0.00  0.00    +0.283 C 
ATOM     12  O   UNL     1       0.693  -2.267   1.655  0.00  0.00    -0.267 OA
ENDROOT
BRANCH  11  13
ATOM     13  C   UNL     1       0.125  -4.482   2.086  0.00  0.00    +0.189 A 
ATOM     14  C   UNL     1      -0.298  -4.352   3.378  0.00  0.00    +0.054 A 
ATOM     15  C   UNL     1      -0.627  -5.641   3.827  0.00  0.00    +0.042 A 
ATOM     16  C   UNL     1      -0.386  -6.491   2.805  0.00  0.00    +0.196 A 
ATOM     17  O   UNL     1       0.067  -5.790   1.758  0.00  0.00    -0.458 OA
ENDBRANCH  11  13
BRANCH   8  18
ATOM     18  C   UNL     1       2.537  -1.900   0.126  0.00  0.00    +0.234 C 
ATOM     19  O   UNL     1       2.730  -2.215   1.281  0.00  0.00    -0.274 OA
ATOM     20  N   UNL     1       2.929  -0.689  -0.317  0.00  0.00    -0.307 N 
ATOM     21  H   UNL     1       2.774  -0.436  -1.240  0.00  0.00    +0.149 HD
BRANCH  20  22
ATOM     22  C   UNL     1       3.587   0.248   0.598  0.00  0.00    +0.105 C 
ATOM     23  C   UNL     1       4.524   1.133  -0.205  0.00  0.00    +0.038 C 
ATOM     24  C   UNL     1       5.268   2.076   0.751  0.00  0.00    +0.076 C 
ATOM     25  S   UNL     1       4.064   3.304   1.339  0.00  0.00    -0.125 S 
ATOM     26  C   UNL     1       2.651   2.327   1.745  0.00  0.00    +0.013 A 
ATOM     27  C   UNL     1       2.533   1.009   1.346  0.00  0.00    -0.014 A 
ATOM     28  C   UNL     1       1.371   0.312   1.669  0.00  0.00    +0.006 A 
ATOM     29  C   UNL     1       0.357   0.914   2.383  0.00  0.00    +0.000 A 
ATOM     30  C   UNL     1       0.488   2.226   2.800  0.00  0.00    +0.001 A 
ATOM     31  C   UNL     1       1.629   2.930   2.479  0.00  0.00    +0.015 A 
ENDBRANCH  20  22
ENDBRANCH   8  18
TORSDOF 3
