REMARK  Name = ZINC09563231
REMARK  10 active torsions:
REMARK  status: ('A' for Active; 'I' for Inactive)
REMARK    1  A    between atoms: C_1  and  C_2
REMARK    2  A    between atoms: C_5  and  S_8
REMARK    3  A    between atoms: S_8  and  N_11
REMARK    4  A    between atoms: N_11  and  C_12
REMARK    5  A    between atoms: C_15  and  C_18
REMARK    6  A    between atoms: C_18  and  N_20
REMARK    7  A    between atoms: N_22  and  C_30
REMARK    8  A    between atoms: C_30  and  C_31
REMARK    9  A    between atoms: C_31  and  S_32
REMARK   10  A    between atoms: S_32  and  C_33
REMARK                            x       y       z     vdW  Elec       q    Type
REMARK                         _______ _______ _______ _____ _____    ______ ____
ROOT
ATOM      1  C   UNL     1      -1.340  -0.644  -0.131  0.00  0.00    +0.048 A 
ATOM      2  C   UNL     1      -2.269  -0.184   0.798  0.00  0.00    +0.025 A 
ATOM      3  C   UNL     1      -3.478  -0.828   0.940  0.00  0.00    +0.015 A 
ATOM      4  C   UNL     1      -3.766  -1.950   0.159  0.00  0.00    +0.039 A 
ATOM      5  C   UNL     1      -2.830  -2.412  -0.768  0.00  0.00    +0.015 A 
ATOM      6  C   UNL     1      -1.625  -1.761  -0.910  0.00  0.00    +0.025 A 
ENDROOT
BRANCH   1   7
ATOM      7  N   UNL     1      -0.121   0.012  -0.276  0.00  0.00    -0.216 N 
ATOM      8  H   UNL     1       0.568  -0.089   0.400  0.00  0.00    +0.174 HD
BRANCH   7   9
ATOM      9  S   UNL     1       0.154   0.963  -1.603  0.00  0.00    +0.072 S 
ATOM     10  O   UNL     1       1.433   1.556  -1.419  0.00  0.00    -0.150 OA
ATOM     11  O   UNL     1      -0.163   0.174  -2.742  0.00  0.00    -0.150 OA
BRANCH   9  16
ATOM     12  C   UNL     1      -3.870   5.456  -1.443  0.00  0.00    +0.044 C 
ATOM     13  C   UNL     1      -2.865   4.334  -1.484  0.00  0.00    -0.050 A 
ATOM     14  C   UNL     1      -1.601   4.518  -0.953  0.00  0.00    +0.005 A 
ATOM     15  C   UNL     1      -0.679   3.489  -0.990  0.00  0.00    +0.029 A 
ATOM     16  C   UNL     1      -1.021   2.275  -1.556  0.00  0.00    +0.109 A 
ATOM     17  C   UNL     1      -2.283   2.092  -2.091  0.00  0.00    +0.029 A 
ATOM     18  C   UNL     1      -3.206   3.120  -2.050  0.00  0.00    +0.005 A 
ENDBRANCH   9  16
ENDBRANCH   7   9
ENDBRANCH   1   7
BRANCH   4  19
ATOM     19  C   UNL     1      -5.062  -2.646   0.314  0.00  0.00    +0.269 C 
ATOM     20  O   UNL     1      -5.313  -3.624  -0.369  0.00  0.00    -0.268 OA
BRANCH  19  21
ATOM     21  N   UNL     1      -5.958  -2.202   1.202  0.00  0.00    -0.152 NA
ATOM     22  C   UNL     1      -7.121  -2.828   1.341  0.00  0.00    +0.167 A 
ATOM     23  N   UNL     1      -8.144  -2.530   2.187  0.00  0.00    -0.320 N 
ATOM     24  C   UNL     1      -9.291  -3.301   2.186  0.00  0.00    +0.058 A 
ATOM     25  C   UNL     1     -10.443  -3.150   2.974  0.00  0.00    +0.027 A 
ATOM     26  C   UNL     1     -11.500  -4.020   2.848  0.00  0.00    +0.002 A 
ATOM     27  C   UNL     1     -11.464  -5.067   1.943  0.00  0.00    +0.001 A 
ATOM     28  C   UNL     1     -10.341  -5.239   1.153  0.00  0.00    +0.017 A 
ATOM     29  C   UNL     1      -9.283  -4.371   1.279  0.00  0.00    +0.039 A 
ATOM     30  S   UNL     1      -7.699  -4.226   0.492  0.00  0.00    -0.052 S 
BRANCH  23  31
ATOM     31  C   UNL     1      -8.031  -1.387   3.097  0.00  0.00    +0.135 C 
BRANCH  31  32
ATOM     32  C   UNL     1      -6.592  -1.280   3.605  0.00  0.00    +0.090 C 
BRANCH  32  33
ATOM     33  S   UNL     1      -6.490   0.023   4.863  0.00  0.00    -0.162 S 
ATOM     34  C   UNL     1      -4.744   0.022   5.355  0.00  0.00    +0.084 C 
ENDBRANCH  32  33
ENDBRANCH  31  32
ENDBRANCH  23  31
ENDBRANCH  19  21
ENDBRANCH   4  19
TORSDOF 8
