REMARK  Name = ZINC07101938
REMARK  4 active torsions:
REMARK  status: ('A' for Active; 'I' for Inactive)
REMARK    1  A    between atoms: C_1  and  C_2
REMARK    2  A    between atoms: C_2  and  C_26
REMARK    3  A    between atoms: C_6  and  C_16
REMARK    4  A    between atoms: C_11  and  O_15
REMARK                            x       y       z     vdW  Elec       q    Type
REMARK                         _______ _______ _______ _____ _____    ______ ____
ROOT
ATOM      1  C   UNL     1       2.272   0.792   0.696  0.00  0.00    +0.031 C 
ATOM      2  C   UNL     1       1.256   1.699  -0.001  0.00  0.00    +0.036 C 
ATOM      3  C   UNL     1       1.167   3.036   0.744  0.00  0.00    +0.094 C 
ATOM      4  C   UNL     1       0.061   3.878   0.103  0.00  0.00    +0.182 C 
ATOM      5  C   UNL     1      -0.122   5.174   0.900  0.00  0.00    +0.081 C 
ATOM      6  C   UNL     1      -1.299   5.947   0.301  0.00  0.00    +0.058 C 
ATOM      7  C   UNL     1      -1.155   6.013  -1.199  0.00  0.00    +0.002 A 
ATOM      8  C   UNL     1      -1.884   6.962  -1.896  0.00  0.00    +0.011 A 
ATOM      9  C   UNL     1      -1.782   7.050  -3.270  0.00  0.00    +0.046 A 
ATOM     10  C   UNL     1      -0.944   6.186  -3.959  0.00  0.00    +0.120 A 
ATOM     11  C   UNL     1      -0.211   5.238  -3.265  0.00  0.00    +0.091 A 
ATOM     12  C   UNL     1      -0.314   5.151  -1.881  0.00  0.00    +0.131 A 
ATOM     13  O   UNL     1       0.427   4.212  -1.235  0.00  0.00    -0.468 OA
ATOM     14  N   UNL     1      -1.189   3.119   0.103  0.00  0.00    -0.262 N 
ATOM     15  C   UNL     1      -1.190   1.778   0.046  0.00  0.00    +0.303 C 
ATOM     16  O   UNL     1      -2.256   1.194   0.032  0.00  0.00    -0.253 OA
ATOM     17  N   UNL     1      -0.059   1.057   0.008  0.00  0.00    -0.294 N 
ATOM     18  C   UNL     1       1.695   1.945  -1.446  0.00  0.00    +0.031 C 
ATOM     19  H   UNL     1      -2.034   3.593   0.142  0.00  0.00    +0.154 HD
ATOM     20  H   UNL     1      -0.115   0.089  -0.018  0.00  0.00    +0.151 HD
ENDROOT
BRANCH   6  21
ATOM     21  C   UNL     1      -1.320   7.345   0.864  0.00  0.00    -0.040 A 
ATOM     22  C   UNL     1      -0.236   8.181   0.677  0.00  0.00    +0.004 A 
ATOM     23  C   UNL     1      -0.257   9.465   1.190  0.00  0.00    +0.000 A 
ATOM     24  C   UNL     1      -1.358   9.909   1.897  0.00  0.00    +0.000 A 
ATOM     25  C   UNL     1      -2.441   9.070   2.088  0.00  0.00    +0.000 A 
ATOM     26  C   UNL     1      -2.422   7.788   1.572  0.00  0.00    +0.004 A 
ENDBRANCH   6  21
BRANCH  10  27
ATOM     27  O   UNL     1      -0.842   6.269  -5.312  0.00  0.00    -0.507 OA
ATOM     28  H   UNL     1      -1.477   5.717  -5.789  0.00  0.00    +0.292 HD
ENDBRANCH  10  27
TORSDOF 2
