REMARK  Name = ZINC06613447
REMARK  3 active torsions:
REMARK  status: ('A' for Active; 'I' for Inactive)
REMARK    1  A    between atoms: N_6  and  O_7
REMARK    2  A    between atoms: C_8  and  S_12
REMARK    3  A    between atoms: S_12  and  C_15
REMARK                            x       y       z     vdW  Elec       q    Type
REMARK                         _______ _______ _______ _____ _____    ______ ____
ROOT
ATOM      1  C   UNL     1      -1.770   6.818  -1.235  0.00  0.00    +0.000 C 
ATOM      2  C   UNL     1      -0.912   6.536  -0.009  0.00  0.00    +0.000 C 
ATOM      3  C   UNL     1       0.572   6.633  -0.385  0.00  0.00    +0.006 C 
ATOM      4  C   UNL     1       1.199   5.234  -0.244  0.00  0.00    +0.056 C 
ATOM      5  C   UNL     1       0.620   4.373  -1.344  0.00  0.00    +0.081 C 
ATOM      6  N   UNL     1       1.349   4.023  -2.336  0.00  0.00    -0.095 NA
ATOM      7  C   UNL     1      -0.813   3.929  -1.267  0.00  0.00    +0.178 C 
ATOM      8  C   UNL     1      -1.628   4.598  -2.380  0.00  0.00    +0.032 C 
ATOM      9  C   UNL     1      -1.214   6.075  -2.451  0.00  0.00    +0.002 C 
ENDROOT
BRANCH   7  10
ATOM     10  S   UNL     1      -0.896   2.127  -1.459  0.00  0.00    -0.020 S 
ATOM     11  O   UNL     1      -0.260   1.775  -2.680  0.00  0.00    -0.173 OA
ATOM     12  O   UNL     1      -2.236   1.712  -1.234  0.00  0.00    -0.173 OA
BRANCH  10  13
ATOM     13  C   UNL     1       0.128   1.529  -0.086  0.00  0.00    +0.131 C 
ATOM     14  C   UNL     1       0.200   0.002  -0.131  0.00  0.00    +0.026 C 
ATOM     15  C   UNL     1       1.064  -0.502   1.027  0.00  0.00    +0.002 C 
ATOM     16  C   UNL     1       0.446  -0.059   2.355  0.00  0.00    +0.000 C 
ATOM     17  C   UNL     1       0.373   1.468   2.400  0.00  0.00    +0.002 C 
ATOM     18  C   UNL     1      -0.490   1.972   1.241  0.00  0.00    +0.026 C 
ENDBRANCH  10  13
ENDBRANCH   7  10
BRANCH   6  19
ATOM     19  O   UNL     1       2.699   4.444  -2.406  0.00  0.00    -0.409 OA
ATOM     20  H   UNL     1       3.325   4.143  -3.259  0.00  0.00    +0.328 HD
ENDBRANCH   6  19
TORSDOF 3
