REMARK  Name = ZINC04758348
REMARK  10 active torsions:
REMARK  status: ('A' for Active; 'I' for Inactive)
REMARK    1  A    between atoms: C_1  and  C_2
REMARK    2  A    between atoms: C_2  and  N_18
REMARK    3  A    between atoms: C_5  and  C_8
REMARK    4  A    between atoms: C_8  and  C_9
REMARK    5  A    between atoms: C_8  and  C_10
REMARK    6  A    between atoms: C_8  and  N_11
REMARK    7  A    between atoms: C_12  and  C_14
REMARK    8  A    between atoms: C_15  and  C_16
REMARK    9  A    between atoms: C_19  and  C_21
REMARK   10  A    between atoms: C_22  and  C_23
REMARK                            x       y       z     vdW  Elec       q    Type
REMARK                         _______ _______ _______ _____ _____    ______ ____
ROOT
ATOM      1  C   UNL     1      -3.744  -0.333   0.838  0.00  0.00    +0.031 C 
ATOM      2  C   UNL     1      -3.781   1.056   0.197  0.00  0.00    +0.032 C 
ATOM      3  C   UNL     1      -2.684   1.158  -0.864  0.00  0.00    +0.026 C 
ATOM      4  C   UNL     1      -2.721   2.547  -1.505  0.00  0.00    +0.007 C 
ATOM      5  C   UNL     1      -4.086   2.770  -2.160  0.00  0.00    +0.012 C 
ATOM      6  C   UNL     1      -5.183   2.668  -1.099  0.00  0.00    +0.007 C 
ATOM      7  C   UNL     1      -5.146   1.279  -0.458  0.00  0.00    +0.026 C 
ENDROOT
BRANCH   2   8
ATOM      8  N   UNL     1      -3.561   2.075   1.226  0.00  0.00    -0.307 N 
ATOM      9  C   UNL     1      -4.410   2.174   2.269  0.00  0.00    +0.238 C 
ATOM     10  O   UNL     1      -5.358   1.418   2.354  0.00  0.00    -0.271 OA
ATOM     11  H   UNL     1      -2.805   2.678   1.158  0.00  0.00    +0.150 HD
BRANCH   9  12
ATOM     12  C   UNL     1      -4.189   3.201   3.306  0.00  0.00    +0.074 C 
ATOM     13  C   UNL     1      -4.961   3.224   4.405  0.00  0.00    +0.101 C 
BRANCH  13  14
ATOM     14  C   UNL     1      -5.521   1.967   4.938  0.00  0.00    +0.380 C 
ATOM     15  O   UNL     1      -5.164   0.900   4.480  0.00  0.00    -0.241 OA
ATOM     16  O   UNL     1      -6.429   2.003   5.933  0.00  0.00    -0.241 OA
ENDBRANCH  13  14
ENDBRANCH   9  12
ENDBRANCH   2   8
BRANCH   5  17
ATOM     17  C   UNL     1      -4.123   4.159  -2.800  0.00  0.00    +0.032 C 
ATOM     18  C   UNL     1      -4.019   5.226  -1.710  0.00  0.00    +0.031 C 
ATOM     19  C   UNL     1      -2.950   4.304  -3.771  0.00  0.00    +0.031 C 
BRANCH  17  20
ATOM     20  N   UNL     1      -5.383   4.326  -3.529  0.00  0.00    -0.307 N 
ATOM     21  C   UNL     1      -5.638   5.480  -4.177  0.00  0.00    +0.238 C 
ATOM     22  O   UNL     1      -4.823   6.381  -4.158  0.00  0.00    -0.271 OA
ATOM     23  H   UNL     1      -6.034   3.607  -3.544  0.00  0.00    +0.150 HD
BRANCH  21  24
ATOM     24  C   UNL     1      -6.909   5.649  -4.911  0.00  0.00    +0.074 C 
ATOM     25  C   UNL     1      -7.112   6.748  -5.655  0.00  0.00    +0.101 C 
BRANCH  25  26
ATOM     26  C   UNL     1      -5.971   7.424  -6.301  0.00  0.00    +0.380 C 
ATOM     27  O   UNL     1      -4.872   6.907  -6.288  0.00  0.00    -0.241 OA
ATOM     28  O   UNL     1      -6.147   8.616  -6.904  0.00  0.00    -0.241 OA
ENDBRANCH  25  26
ENDBRANCH  21  24
ENDBRANCH  17  20
ENDBRANCH   5  17
TORSDOF 7
