REMARK  Name = ZINC37400259
REMARK  5 active torsions:
REMARK  status: ('A' for Active; 'I' for Inactive)
REMARK    1  A    between atoms: C_1  and  C_2
REMARK    2  A    between atoms: C_3  and  S_9
REMARK    3  A    between atoms: C_4  and  C_8
REMARK    4  A    between atoms: S_9  and  N_12
REMARK    5  A    between atoms: N_12  and  C_13
REMARK                            x       y       z     vdW  Elec       q    Type
REMARK                         _______ _______ _______ _____ _____    ______ ____
ROOT
ATOM      1  S   UNL     1      -0.008  -0.247  -2.770  0.00  0.00    +0.097 S 
ATOM      2  O   UNL     1      -0.548  -1.312  -3.541  0.00  0.00    -0.148 OA
ATOM      3  O   UNL     1      -0.578   1.055  -2.765  0.00  0.00    -0.148 OA
ENDROOT
BRANCH   1   6
ATOM      4  C   UNL     1      -0.018   1.503   0.010  0.00  0.00    +0.067 C 
ATOM      5  C   UNL     1       0.002  -0.004   0.002  0.00  0.00    +0.060 A 
ATOM      6  C   UNL     1       0.008  -0.796  -1.095  0.00  0.00    +0.153 A 
ATOM      7  C   UNL     1       0.028  -2.127  -0.666  0.00  0.00    +0.087 A 
ATOM      8  N   UNL     1       0.035  -2.134   0.643  0.00  0.00    -0.177 NA
ATOM      9  N   UNL     1       0.024  -0.805   1.088  0.00  0.00    -0.280 N 
ATOM     10  H   UNL     1       0.029  -0.513   2.013  0.00  0.00    +0.189 HD
ATOM     11  C   UNL     1       0.040  -3.343  -1.556  0.00  0.00    +0.069 C 
ENDBRANCH   1   6
BRANCH   1  12
ATOM     12  N   UNL     1       1.569  -0.072  -3.243  0.00  0.00    -0.068 NA
BRANCH  12  13
ATOM     13  C   UNL     1       1.864   0.353  -4.529  0.00  0.00    +0.223 A 
ATOM     14  N   UNL     1       1.054   0.677  -5.528  0.00  0.00    -0.123 NA
ATOM     15  N   UNL     1       1.496   1.049  -6.649  0.00  0.00    -0.148 NA
ATOM     16  C   UNL     1       2.786   1.140  -6.900  0.00  0.00    +0.183 A 
ATOM     17  S   UNL     1       3.449   0.631  -5.316  0.00  0.00    -0.036 S 
ENDBRANCH  12  13
ENDBRANCH   1  12
TORSDOF 3
