REMARK  Name = ZINC28051598
REMARK  4 active torsions:
REMARK  status: ('A' for Active; 'I' for Inactive)
REMARK    1  A    between atoms: C_1  and  C_2
REMARK    2  A    between atoms: C_6  and  C_8
REMARK    3  A    between atoms: C_11  and  C_30
REMARK    4  A    between atoms: C_21  and  C_24
REMARK                            x       y       z     vdW  Elec       q    Type
REMARK                         _______ _______ _______ _____ _____    ______ ____
ROOT
ATOM      1  C   UNL     1       2.451   3.937   0.000  0.00  0.00    +0.091 C 
ATOM      2  C   UNL     1       3.252   3.579   1.211  0.00  0.00    +0.049 A 
ATOM      3  C   UNL     1       3.107   3.893   2.560  0.00  0.00    +0.087 A 
ATOM      4  N   UNL     1       4.100   3.305   3.179  0.00  0.00    -0.081 NA
ATOM      5  O   UNL     1       4.814   2.691   2.411  0.00  0.00    -0.339 OA
ATOM      6  C   UNL     1       4.377   2.797   1.160  0.00  0.00    +0.226 A 
ATOM      7  N   UNL     1       4.843   2.293  -0.037  0.00  0.00    -0.286 N 
ATOM      8  C   UNL     1       4.347   2.817  -1.207  0.00  0.00    +0.019 C 
ATOM      9  C   UNL     1       3.239   3.588  -1.246  0.00  0.00    +0.024 C 
ATOM     10  C   UNL     1       2.762   4.108  -2.463  0.00  0.00    +0.162 C 
ATOM     11  O   UNL     1       1.775   4.818  -2.459  0.00  0.00    -0.292 OA
ATOM     12  C   UNL     1       3.444   3.805  -3.768  0.00  0.00    +0.088 C 
ATOM     13  C   UNL     1       4.141   2.444  -3.658  0.00  0.00    +0.032 C 
ATOM     14  C   UNL     1       5.108   2.495  -2.474  0.00  0.00    +0.059 C 
ATOM     15  C   UNL     1       2.025   4.738   3.181  0.00  0.00    +0.069 C 
ATOM     16  H   UNL     1       5.595   1.490  -0.041  0.00  0.00    +0.155 HD
ENDROOT
BRANCH   1  22
ATOM     17  C   UNL     1      -2.553   3.869   0.044  0.00  0.00    +0.044 C 
ATOM     18  C   UNL     1      -1.238   3.133   0.029  0.00  0.00    -0.050 A 
ATOM     19  C   UNL     1      -1.219   1.750   0.017  0.00  0.00    +0.003 A 
ATOM     20  C   UNL     1      -0.013   1.076   0.008  0.00  0.00    +0.001 A 
ATOM     21  C   UNL     1       1.175   1.783   0.000  0.00  0.00    +0.004 A 
ATOM     22  C   UNL     1       1.157   3.165   0.008  0.00  0.00    -0.035 A 
ATOM     23  C   UNL     1      -0.050   3.840   0.022  0.00  0.00    +0.008 A 
ENDBRANCH   1  22
BRANCH  13  24
ATOM     24  C   UNL     1       4.904   2.160  -4.926  0.00  0.00    -0.044 A 
ATOM     25  C   UNL     1       5.907   3.019  -5.336  0.00  0.00    +0.004 A 
ATOM     26  C   UNL     1       6.610   2.756  -6.497  0.00  0.00    +0.000 A 
ATOM     27  C   UNL     1       6.303   1.640  -7.253  0.00  0.00    +0.000 A 
ATOM     28  C   UNL     1       5.297   0.784  -6.845  0.00  0.00    +0.000 A 
ATOM     29  C   UNL     1       4.597   1.044  -5.682  0.00  0.00    +0.004 A 
ENDBRANCH  13  24
TORSDOF 2
