REMARK  Name = ZINC09345430
REMARK  8 active torsions:
REMARK  status: ('A' for Active; 'I' for Inactive)
REMARK    1  A    between atoms: C_1  and  O_2
REMARK    2  A    between atoms: O_2  and  C_3
REMARK    3  A    between atoms: C_6  and  C_11
REMARK    4  A    between atoms: C_8  and  O_9
REMARK    5  A    between atoms: O_9  and  C_10
REMARK    6  A    between atoms: C_22  and  C_24
REMARK    7  A    between atoms: C_34  and  S_36
REMARK    8  A    between atoms: S_36  and  C_37
REMARK                            x       y       z     vdW  Elec       q    Type
REMARK                         _______ _______ _______ _____ _____    ______ ____
ROOT
ATOM      1  C   UNL     1      -4.987  -2.627   0.035  0.00  0.00    +0.159 C 
ATOM      2  C   UNL     1      -5.474  -2.695   1.465  0.00  0.00    +0.025 C 
ATOM      3  C   UNL     1      -6.662  -2.126   1.759  0.00  0.00    +0.058 C 
ATOM      4  C   UNL     1      -7.122  -2.192   3.170  0.00  0.00    +0.040 A 
ATOM      5  C   UNL     1      -8.441  -1.931   3.514  0.00  0.00    +0.013 A 
ATOM      6  C   UNL     1      -8.827  -2.005   4.839  0.00  0.00    +0.001 A 
ATOM      7  C   UNL     1      -7.905  -2.337   5.816  0.00  0.00    +0.004 A 
ATOM      8  C   UNL     1      -6.589  -2.597   5.481  0.00  0.00    +0.046 A 
ATOM      9  C   UNL     1      -6.188  -2.526   4.158  0.00  0.00    +0.131 A 
ATOM     10  O   UNL     1      -4.901  -2.769   3.801  0.00  0.00    -0.479 OA
ATOM     11  C   UNL     1      -4.671  -3.381   2.531  0.00  0.00    +0.234 C 
ATOM     12  N   UNL     1      -7.410  -1.514   0.809  0.00  0.00    -0.326 N 
ATOM     13  C   UNL     1      -7.062  -1.411  -0.457  0.00  0.00    +0.216 C 
ATOM     14  N   UNL     1      -5.872  -1.936  -0.911  0.00  0.00    -0.209 N 
ATOM     15  N   UNL     1      -5.803  -1.655  -2.278  0.00  0.00    -0.239 N 
ATOM     16  C   UNL     1      -6.951  -0.975  -2.589  0.00  0.00    +0.174 C 
ATOM     17  N   UNL     1      -7.679  -0.845  -1.509  0.00  0.00    -0.192 NA
ATOM     18  H   UNL     1      -8.258  -1.128   1.078  0.00  0.00    +0.169 HD
ATOM     19  H   UNL     1      -5.085  -1.893  -2.885  0.00  0.00    +0.172 HD
ENDROOT
BRANCH   1  23
ATOM     20  C   UNL     1      -1.201  -0.638   0.010  0.00  0.00    +0.162 A 
ATOM     21  C   UNL     1      -2.374   0.099   0.019  0.00  0.00    +0.050 A 
ATOM     22  C   UNL     1      -3.596  -0.546   0.027  0.00  0.00    +0.009 A 
ATOM     23  C   UNL     1      -3.652  -1.928   0.026  0.00  0.00    -0.017 A 
ATOM     24  C   UNL     1      -2.485  -2.669   0.017  0.00  0.00    +0.055 A 
ATOM     25  C   UNL     1      -1.257  -2.028   0.003  0.00  0.00    +0.162 A 
BRANCH  20  27
ATOM     26  C   UNL     1      -0.017   1.425   0.010  0.00  0.00    +0.277 C 
ATOM     27  O   UNL     1       0.002  -0.004   0.002  0.00  0.00    -0.491 OA
ENDBRANCH  20  27
BRANCH  25  28
ATOM     28  O   UNL     1      -0.108  -2.756  -0.012  0.00  0.00    -0.491 OA
ATOM     29  C   UNL     1      -0.242  -4.179  -0.018  0.00  0.00    +0.277 C 
ENDBRANCH  25  28
ENDBRANCH   1  23
BRANCH  11  30
ATOM     30  C   UNL     1      -5.070  -4.833   2.598  0.00  0.00    -0.003 A 
ATOM     31  C   UNL     1      -6.222  -5.204   3.266  0.00  0.00    +0.007 A 
ATOM     32  C   UNL     1      -6.587  -6.535   3.327  0.00  0.00    +0.000 A 
ATOM     33  C   UNL     1      -5.801  -7.496   2.720  0.00  0.00    +0.000 A 
ATOM     34  C   UNL     1      -4.649  -7.126   2.051  0.00  0.00    +0.000 A 
ATOM     35  C   UNL     1      -4.286  -5.794   1.986  0.00  0.00    +0.007 A 
ENDBRANCH  11  30
BRANCH  16  36
ATOM     36  S   UNL     1      -7.383  -0.376  -4.189  0.00  0.00    -0.092 S 
ATOM     37  C   UNL     1      -8.994   0.420  -3.941  0.00  0.00    +0.093 C 
ENDBRANCH  16  36
TORSDOF 5
