REMARK  Name = ZINC35777470
REMARK  13 active torsions:
REMARK  status: ('A' for Active; 'I' for Inactive)
REMARK    1  A    between atoms: C_1  and  C_2
REMARK    2  A    between atoms: C_2  and  C_3
REMARK    3  A    between atoms: C_4  and  C_22
REMARK    4  A    between atoms: C_5  and  O_14
REMARK    5  A    between atoms: N_6  and  C_8
REMARK    6  A    between atoms: O_14  and  C_15
REMARK    7  A    between atoms: C_22  and  N_23
REMARK    8  A    between atoms: N_23  and  C_24
REMARK    9  A    between atoms: N_23  and  C_35
REMARK   10  A    between atoms: C_24  and  C_25
REMARK   11  A    between atoms: C_25  and  C_27
REMARK   12  A    between atoms: C_25  and  O_34
REMARK   13  A    between atoms: C_27  and  C_28
REMARK                            x       y       z     vdW  Elec       q    Type
REMARK                         _______ _______ _______ _____ _____    ______ ____
ROOT
ATOM      1  C   UNL     1      -1.059  -2.037   0.434  0.00  0.00    +0.068 A 
ATOM      2  C   UNL     1      -1.963  -1.920   1.494  0.00  0.00    +0.021 A 
ATOM      3  C   UNL     1      -3.220  -1.944   0.976  0.00  0.00    +0.225 A 
ATOM      4  N   UNL     1      -3.103  -2.072  -0.373  0.00  0.00    -0.200 N 
ATOM      5  N   UNL     1      -1.738  -2.122  -0.682  0.00  0.00    -0.168 NA
ENDROOT
BRANCH   4   6
ATOM      6  C   UNL     1      -4.161  -2.136  -1.291  0.00  0.00    +0.069 A 
ATOM      7  C   UNL     1      -5.291  -2.888  -0.999  0.00  0.00    +0.028 A 
ATOM      8  C   UNL     1      -6.331  -2.950  -1.905  0.00  0.00    +0.002 A 
ATOM      9  C   UNL     1      -6.248  -2.264  -3.103  0.00  0.00    +0.000 A 
ATOM     10  C   UNL     1      -5.123  -1.515  -3.397  0.00  0.00    +0.002 A 
ATOM     11  C   UNL     1      -4.082  -1.444  -2.492  0.00  0.00    +0.028 A 
ENDBRANCH   4   6
BRANCH   1  13
ATOM     12  C   UNL     1       0.978  -0.624   0.468  0.00  0.00    +0.010 C 
ATOM     13  C   UNL     1       0.443  -2.054   0.554  0.00  0.00    +0.054 C 
ENDBRANCH   1  13
BRANCH   3  14
ATOM     14  O   UNL     1      -4.379  -1.857   1.677  0.00  0.00    -0.435 OA
BRANCH  14  15
ATOM     15  C   UNL     1      -4.898  -3.000   2.197  0.00  0.00    +0.165 A 
ATOM     16  C   UNL     1      -4.216  -4.200   2.056  0.00  0.00    +0.049 A 
ATOM     17  C   UNL     1      -4.745  -5.361   2.586  0.00  0.00    +0.004 A 
ATOM     18  C   UNL     1      -5.954  -5.329   3.257  0.00  0.00    +0.003 A 
ATOM     19  C   UNL     1      -6.637  -4.135   3.400  0.00  0.00    +0.042 A 
ATOM     20  C   UNL     1      -6.109  -2.968   2.877  0.00  0.00    +0.165 A 
ATOM     21  F   UNL     1      -6.774  -1.801   3.021  0.00  0.00    -0.202 F 
ENDBRANCH  14  15
ENDBRANCH   3  14
BRANCH   2  22
ATOM     22  C   UNL     1      -1.607  -1.792   2.953  0.00  0.00    -0.035 C 
BRANCH  22  23
ATOM     23  N   UNL     1      -1.464  -0.371   3.299  0.00  0.00    +0.386 N 
ATOM     24  H   UNL     1      -0.792   0.059   2.682  0.00  0.00    -0.081 HD
BRANCH  23  25
ATOM     25  C   UNL     1      -2.763   0.301   3.155  0.00  0.00    -0.068 C 
ATOM     26  C   UNL     1      -2.936   1.256   1.972  0.00  0.00    -0.017 C 
ATOM     27  C   UNL     1      -2.806   1.812   3.392  0.00  0.00    -0.017 C 
ENDBRANCH  23  25
BRANCH  23  28
ATOM     28  C   UNL     1      -1.001  -0.250   4.688  0.00  0.00    -0.046 C 
BRANCH  28  29
ATOM     29  C   UNL     1      -1.974  -0.981   5.615  0.00  0.00    +0.102 C 
BRANCH  29  30
ATOM     30  O   UNL     1      -3.232  -0.303   5.617  0.00  0.00    -0.393 OA
ATOM     31  H   UNL     1      -3.183   0.614   5.920  0.00  0.00    +0.210 HD
ENDBRANCH  29  30
BRANCH  29  32
ATOM     32  C   UNL     1      -1.405  -1.004   7.035  0.00  0.00    +0.064 C 
BRANCH  32  33
ATOM     33  C   UNL     1      -2.301  -1.829   7.923  0.00  0.00    -0.045 A 
ATOM     34  C   UNL     1      -3.349  -1.229   8.595  0.00  0.00    +0.004 A 
ATOM     35  C   UNL     1      -4.172  -1.986   9.409  0.00  0.00    +0.000 A 
ATOM     36  C   UNL     1      -3.946  -3.342   9.550  0.00  0.00    +0.000 A 
ATOM     37  C   UNL     1      -2.898  -3.942   8.877  0.00  0.00    +0.000 A 
ATOM     38  C   UNL     1      -2.079  -3.187   8.059  0.00  0.00    +0.004 A 
ENDBRANCH  32  33
ENDBRANCH  29  32
ENDBRANCH  28  29
ENDBRANCH  23  28
ENDBRANCH  22  23
ENDBRANCH   2  22
TORSDOF 12
