REMARK  Name = ZINC63531323
REMARK  12 active torsions:
REMARK  status: ('A' for Active; 'I' for Inactive)
REMARK    1  A    between atoms: C_1  and  C_2
REMARK    2  A    between atoms: C_2  and  C_3
REMARK    3  A    between atoms: C_3  and  O_4
REMARK    4  A    between atoms: O_4  and  C_5
REMARK    5  A    between atoms: C_8  and  C_11
REMARK    6  A    between atoms: C_11  and  N_12
REMARK    7  A    between atoms: C_13  and  C_15
REMARK    8  A    between atoms: C_17  and  S_27
REMARK    9  A    between atoms: C_21  and  O_25
REMARK   10  A    between atoms: O_25  and  C_26
REMARK   11  A    between atoms: S_27  and  C_28
REMARK   12  A    between atoms: C_31  and  C_34
REMARK                            x       y       z     vdW  Elec       q    Type
REMARK                         _______ _______ _______ _____ _____    ______ ____
ROOT
ATOM      1  C   UNL     1      -8.486  -5.601  -2.802  0.00  0.00    +0.204 C 
ATOM      2  C   UNL     1      -9.072  -4.411  -3.529  0.00  0.00    +0.030 C 
ATOM      3  C   UNL     1     -10.327  -4.817  -3.966  0.00  0.00    +0.010 A 
ATOM      4  C   UNL     1     -11.341  -4.154  -4.695  0.00  0.00    +0.014 A 
ATOM      5  C   UNL     1     -12.493  -4.806  -4.991  0.00  0.00    +0.046 A 
ATOM      6  C   UNL     1     -12.707  -6.132  -4.591  0.00  0.00    +0.122 A 
ATOM      7  C   UNL     1     -11.771  -6.828  -3.887  0.00  0.00    +0.071 A 
ATOM      8  C   UNL     1     -10.547  -6.209  -3.543  0.00  0.00    +0.048 A 
ATOM      9  N   UNL     1      -9.496  -6.661  -2.878  0.00  0.00    -0.369 N 
ATOM     10  H   UNL     1      -9.408  -7.551  -2.501  0.00  0.00    +0.161 HD
ENDROOT
BRANCH   1  12
ATOM     11  N   UNL     1      -7.093  -4.572  -1.036  0.00  0.00    -0.309 N 
ATOM     12  C   UNL     1      -8.213  -5.247  -1.363  0.00  0.00    +0.241 C 
ATOM     13  O   UNL     1      -9.001  -5.570  -0.499  0.00  0.00    -0.273 OA
ATOM     14  H   UNL     1      -6.463  -4.314  -1.727  0.00  0.00    +0.149 HD
BRANCH  11  15
ATOM     15  C   UNL     1      -6.827  -4.228   0.363  0.00  0.00    +0.139 C 
BRANCH  15  19
ATOM     16  C   UNL     1      -3.126  -2.109   0.631  0.00  0.00    +0.121 A 
ATOM     17  C   UNL     1      -4.312  -1.415   0.443  0.00  0.00    +0.046 A 
ATOM     18  C   UNL     1      -5.507  -2.102   0.356  0.00  0.00    +0.009 A 
ATOM     19  C   UNL     1      -5.522  -3.481   0.457  0.00  0.00    -0.030 A 
ATOM     20  C   UNL     1      -4.341  -4.175   0.645  0.00  0.00    +0.009 A 
ATOM     21  C   UNL     1      -3.143  -3.493   0.726  0.00  0.00    +0.046 A 
BRANCH  16  22
ATOM     22  O   UNL     1      -1.948  -1.436   0.716  0.00  0.00    -0.492 OA
BRANCH  22  23
ATOM     23  C   UNL     1      -2.007  -0.012   0.609  0.00  0.00    +0.229 C 
BRANCH  23  25
ATOM     24  C   UNL     1      -0.657   2.091   0.613  0.00  0.00    +0.007 C 
ATOM     25  C   UNL     1      -0.595   0.567   0.727  0.00  0.00    +0.038 C 
ENDBRANCH  23  25
ENDBRANCH  22  23
ENDBRANCH  16  22
ENDBRANCH  15  19
ENDBRANCH  11  15
ENDBRANCH   1  12
BRANCH   6  26
ATOM     26  O   UNL     1     -13.878  -6.738  -4.913  0.00  0.00    -0.495 OA
ATOM     27  C   UNL     1     -14.827  -5.965  -5.652  0.00  0.00    +0.277 C 
ENDBRANCH   6  26
BRANCH   2  28
ATOM     28  S   UNL     1      -8.364  -2.927  -3.755  0.00  0.00    -0.091 S 
BRANCH  28  29
ATOM     29  C   UNL     1      -7.024  -3.257  -4.850  0.00  0.00    +0.013 A 
ATOM     30  C   UNL     1      -6.875  -4.521  -5.407  0.00  0.00    +0.015 A 
ATOM     31  C   UNL     1      -5.824  -4.777  -6.265  0.00  0.00    +0.004 A 
ATOM     32  C   UNL     1      -4.919  -3.776  -6.571  0.00  0.00    -0.050 A 
ATOM     33  C   UNL     1      -5.064  -2.516  -6.018  0.00  0.00    +0.004 A 
ATOM     34  C   UNL     1      -6.117  -2.252  -5.164  0.00  0.00    +0.015 A 
ATOM     35  C   UNL     1      -3.773  -4.058  -7.507  0.00  0.00    +0.044 C 
ENDBRANCH  28  29
ENDBRANCH   2  28
TORSDOF 9
