REMARK  Name = ZINC36818761
REMARK  7 active torsions:
REMARK  status: ('A' for Active; 'I' for Inactive)
REMARK    1  A    between atoms: C_1  and  C_2
REMARK    2  A    between atoms: C_2  and  C_3
REMARK    3  A    between atoms: C_6  and  C_15
REMARK    4  A    between atoms: C_13  and  O_14
REMARK    5  A    between atoms: C_15  and  S_16
REMARK    6  A    between atoms: S_16  and  C_17
REMARK    7  A    between atoms: C_28  and  C_30
REMARK                            x       y       z     vdW  Elec       q    Type
REMARK                         _______ _______ _______ _____ _____    ______ ____
ROOT
ATOM      1  C   UNL     1       4.828  -1.777  -0.967  0.00  0.00    +0.113 C 
ENDROOT
BRANCH   1   5
ATOM      2  C   UNL     1       0.707  -0.490  -1.238  0.00  0.00    -0.005 A 
ATOM      3  C   UNL     1       2.008  -0.898  -1.162  0.00  0.00    +0.019 A 
ATOM      4  C   UNL     1       2.663  -1.349  -2.313  0.00  0.00    +0.022 A 
ATOM      5  C   UNL     1       4.057  -1.794  -2.262  0.00  0.00    -0.020 A 
ATOM      6  C   UNL     1       4.637  -2.221  -3.414  0.00  0.00    +0.097 A 
ATOM      7  C   UNL     1       3.895  -2.227  -4.613  0.00  0.00    +0.338 A 
ATOM      8  O   UNL     1       4.428  -2.613  -5.638  0.00  0.00    -0.245 OA
ATOM      9  O   UNL     1       2.617  -1.819  -4.653  0.00  0.00    -0.422 OA
ATOM     10  C   UNL     1       1.982  -1.382  -3.545  0.00  0.00    +0.143 A 
ATOM     11  C   UNL     1       0.661  -0.963  -3.604  0.00  0.00    +0.092 A 
ATOM     12  C   UNL     1       0.026  -0.525  -2.453  0.00  0.00    +0.124 A 
BRANCH   2  14
ATOM     13  C   UNL     1      -0.019   1.526   0.010  0.00  0.00    +0.009 C 
ATOM     14  C   UNL     1       0.002  -0.004   0.002  0.00  0.00    +0.035 C 
ENDBRANCH   2  14
BRANCH  12  15
ATOM     15  O   UNL     1      -1.268  -0.121  -2.510  0.00  0.00    -0.506 OA
ATOM     16  H   UNL     1      -1.379   0.820  -2.700  0.00  0.00    +0.292 HD
ENDBRANCH  12  15
ENDBRANCH   1   5
BRANCH   1  17
ATOM     17  S   UNL     1       5.284  -0.070  -0.557  0.00  0.00    -0.081 S 
BRANCH  17  18
ATOM     18  C   UNL     1       6.167  -0.217   0.960  0.00  0.00    +0.197 A 
ATOM     19  N   UNL     1       6.421  -1.332   1.610  0.00  0.00    -0.122 NA
ATOM     20  N   UNL     1       7.086  -1.080   2.681  0.00  0.00    -0.129 NA
ATOM     21  C   UNL     1       7.300   0.219   2.781  0.00  0.00    +0.162 A 
ATOM     22  N   UNL     1       6.720   0.803   1.677  0.00  0.00    -0.270 N 
ATOM     23  C   UNL     1       6.778   2.173   1.488  0.00  0.00    +0.058 A 
ATOM     24  C   UNL     1       6.191   2.766   0.377  0.00  0.00    +0.027 A 
ATOM     25  C   UNL     1       6.260   4.133   0.209  0.00  0.00    +0.002 A 
ATOM     26  C   UNL     1       6.913   4.928   1.141  0.00  0.00    +0.001 A 
ATOM     27  C   UNL     1       7.501   4.361   2.249  0.00  0.00    +0.010 A 
ATOM     28  C   UNL     1       7.439   2.976   2.433  0.00  0.00    +0.002 A 
ATOM     29  C   UNL     1       8.056   2.344   3.603  0.00  0.00    -0.038 A 
ATOM     30  C   UNL     1       7.969   1.003   3.751  0.00  0.00    +0.052 A 
ATOM     31  C   UNL     1       8.773   3.179   4.633  0.00  0.00    +0.044 C 
ENDBRANCH  17  18
ENDBRANCH   1  17
TORSDOF 5
