REMARK  Name = ZINC09408759
REMARK  5 active torsions:
REMARK  status: ('A' for Active; 'I' for Inactive)
REMARK    1  A    between atoms: C_5  and  N_7
REMARK    2  A    between atoms: N_10  and  C_13
REMARK    3  A    between atoms: C_19  and  N_21
REMARK    4  A    between atoms: N_21  and  S_22
REMARK    5  A    between atoms: S_22  and  C_25
REMARK                            x       y       z     vdW  Elec       q    Type
REMARK                         _______ _______ _______ _____ _____    ______ ____
ROOT
ATOM      1  C   UNL     1       3.092  -5.721  -0.037  0.00  0.00    -0.050 C 
ATOM      2  C   UNL     1       2.851  -6.653  -1.227  0.00  0.00    -0.014 C 
ATOM      3  C   UNL     1       4.007  -7.650  -1.335  0.00  0.00    -0.001 C 
ATOM      4  C   UNL     1       4.091  -8.475  -0.049  0.00  0.00    +0.001 C 
ATOM      5  C   UNL     1       4.331  -7.543   1.140  0.00  0.00    +0.019 C 
ATOM      6  C   UNL     1       3.176  -6.546   1.248  0.00  0.00    +0.063 C 
ENDROOT
BRANCH   1  10
ATOM      7  N   UNL     1      -0.381  -3.482  -0.697  0.00  0.00    -0.331 N 
ATOM      8  C   UNL     1       0.904  -2.810  -0.945  0.00  0.00    +0.086 C 
ATOM      9  C   UNL     1       1.989  -3.881  -1.107  0.00  0.00    -0.059 C 
ATOM     10  N   UNL     1       1.982  -4.764   0.066  0.00  0.00    +0.385 N 
ATOM     11  C   UNL     1       0.711  -5.496   0.134  0.00  0.00    -0.059 C 
ATOM     12  C   UNL     1      -0.438  -4.502   0.361  0.00  0.00    +0.086 C 
ATOM     13  H   UNL     1       2.095  -4.211   0.903  0.00  0.00    -0.081 HD
BRANCH   7  18
ATOM     14  C   UNL     1      -3.490  -1.827  -1.752  0.00  0.00    +0.002 A 
ATOM     15  C   UNL     1      -3.769  -2.512  -2.920  0.00  0.00    +0.003 A 
ATOM     16  C   UNL     1      -2.926  -3.519  -3.354  0.00  0.00    +0.040 A 
ATOM     17  C   UNL     1      -1.801  -3.844  -2.619  0.00  0.00    +0.144 A 
ATOM     18  C   UNL     1      -1.518  -3.156  -1.444  0.00  0.00    +0.065 A 
ATOM     19  C   UNL     1      -2.367  -2.146  -1.013  0.00  0.00    +0.026 A 
ATOM     20  F   UNL     1      -0.977  -4.828  -3.042  0.00  0.00    -0.204 F 
ENDBRANCH   7  18
ENDBRANCH   1  10
BRANCH   6  21
ATOM     21  N   UNL     1       3.406  -5.653   2.387  0.00  0.00    -0.188 NA
ATOM     22  H   UNL     1       3.975  -4.874   2.285  0.00  0.00    +0.148 HD
BRANCH  21  23
ATOM     23  S   UNL     1       2.696  -5.974   3.848  0.00  0.00    +0.059 S 
ATOM     24  O   UNL     1       3.127  -4.957   4.742  0.00  0.00    -0.153 OA
ATOM     25  O   UNL     1       1.322  -6.225   3.585  0.00  0.00    -0.153 OA
BRANCH  23  26
ATOM     26  C   UNL     1       3.379  -7.487   4.438  0.00  0.00    +0.105 A 
ATOM     27  C   UNL     1       2.783  -8.690   4.109  0.00  0.00    +0.030 A 
ATOM     28  C   UNL     1       3.318  -9.877   4.572  0.00  0.00    +0.022 A 
ATOM     29  C   UNL     1       4.452  -9.861   5.365  0.00  0.00    +0.041 A 
ATOM     30  C   UNL     1       5.049  -8.657   5.694  0.00  0.00    +0.022 A 
ATOM     31  C   UNL     1       4.515  -7.471   5.226  0.00  0.00    +0.030 A 
ATOM     32 CL   UNL     1       5.125 -11.352   5.947  0.00  0.00    -0.084 Cl
ENDBRANCH  23  26
ENDBRANCH  21  23
ENDBRANCH   6  21
TORSDOF 5
