REMARK  Name = ZINC04819581
REMARK  6 active torsions:
REMARK  status: ('A' for Active; 'I' for Inactive)
REMARK    1  A    between atoms: C_10  and  O_11
REMARK    2  A    between atoms: O_11  and  C_12
REMARK    3  A    between atoms: C_12  and  C_13
REMARK    4  A    between atoms: C_13  and  N_14
REMARK    5  A    between atoms: N_14  and  C_15
REMARK    6  A    between atoms: C_18  and  N_25
REMARK                            x       y       z     vdW  Elec       q    Type
REMARK                         _______ _______ _______ _____ _____    ______ ____
ROOT
ATOM      1  N   UNL     1      -4.979   4.571  -1.186  0.00  0.00    -0.339 N 
ATOM      2  H   UNL     1      -4.202   4.590  -1.766  0.00  0.00    +0.146 HD
ENDROOT
BRANCH   1   3
ATOM      3  C   UNL     1      -6.030   5.462  -1.398  0.00  0.00    +0.054 A 
ATOM      4  C   UNL     1      -7.136   5.439  -0.577  0.00  0.00    +0.027 A 
ATOM      5  C   UNL     1      -8.192   6.323  -0.778  0.00  0.00    +0.035 A 
ATOM      6  C   UNL     1      -8.160   7.234  -1.791  0.00  0.00    +0.135 A 
ATOM      7  C   UNL     1      -7.051   7.288  -2.650  0.00  0.00    +0.032 A 
ATOM      8  C   UNL     1      -5.967   6.398  -2.454  0.00  0.00    +0.094 A 
ATOM      9  N   UNL     1      -4.912   6.444  -3.272  0.00  0.00    -0.253 NA
ATOM     10  C   UNL     1      -4.849   7.307  -4.256  0.00  0.00    +0.111 A 
ATOM     11  C   UNL     1      -5.878   8.214  -4.501  0.00  0.00    +0.020 A 
ATOM     12  C   UNL     1      -6.988   8.217  -3.705  0.00  0.00    +0.014 A 
BRANCH   6  13
ATOM     13  N   UNL     1      -9.295   8.165  -1.986  0.00  0.00    +0.057 N 
ATOM     14  O   UNL     1      -9.870   8.634  -1.020  0.00  0.00    -0.126 OA
ATOM     15  O   UNL     1      -9.652   8.462  -3.112  0.00  0.00    -0.126 OA
ENDBRANCH   6  13
ENDBRANCH   1   3
BRANCH   1  16
ATOM     16  C   UNL     1      -5.048   3.606  -0.085  0.00  0.00    +0.142 C 
BRANCH  16  17
ATOM     17  C   UNL     1      -3.777   2.754  -0.074  0.00  0.00    +0.247 C 
BRANCH  17  18
ATOM     18  O   UNL     1      -2.650   3.583   0.220  0.00  0.00    -0.490 OA
BRANCH  18  28
ATOM     19  C   UNL     1       2.027   5.169   1.109  0.00  0.00    +0.001 A 
ATOM     20  C   UNL     1       0.790   5.808   1.063  0.00  0.00    +0.001 A 
ATOM     21  C   UNL     1      -0.348   5.113   0.792  0.00  0.00    +0.012 A 
ATOM     22  C   UNL     1      -0.279   3.731   0.553  0.00  0.00    +0.024 A 
ATOM     23  C   UNL     1       0.979   3.080   0.599  0.00  0.00    -0.014 A 
ATOM     24  C   UNL     1       2.133   3.831   0.882  0.00  0.00    +0.008 A 
ATOM     25  C   UNL     1       1.049   1.697   0.359  0.00  0.00    +0.009 A 
ATOM     26  C   UNL     1      -0.088   1.000   0.087  0.00  0.00    +0.004 A 
ATOM     27  C   UNL     1      -1.325   1.636   0.035  0.00  0.00    +0.046 A 
ATOM     28  C   UNL     1      -1.436   2.978   0.269  0.00  0.00    +0.128 A 
ENDBRANCH  18  28
ENDBRANCH  17  18
ENDBRANCH  16  17
ENDBRANCH   1  16
TORSDOF 6
