REMARK  Name = ZINC63622967
REMARK  9 active torsions:
REMARK  status: ('A' for Active; 'I' for Inactive)
REMARK    1  A    between atoms: C_7  and  C_10
REMARK    2  A    between atoms: C_10  and  C_11
REMARK    3  A    between atoms: C_11  and  C_13
REMARK    4  A    between atoms: C_11  and  N_26
REMARK    5  A    between atoms: C_13  and  O_15
REMARK    6  A    between atoms: O_15  and  C_16
REMARK    7  A    between atoms: C_16  and  C_17
REMARK    8  A    between atoms: C_17  and  C_19
REMARK    9  A    between atoms: C_27  and  C_29
REMARK                            x       y       z     vdW  Elec       q    Type
REMARK                         _______ _______ _______ _____ _____    ______ ____
ROOT
ATOM      1  C   UNL     1       0.457  -3.653  -1.462  0.00  0.00    +0.186 C 
ENDROOT
BRANCH   1   2
ATOM      2  N   UNL     1      -0.238  -2.603  -2.210  0.00  0.00    -0.302 N 
ATOM      3  C   UNL     1       0.465  -1.608  -2.785  0.00  0.00    +0.220 C 
ATOM      4  O   UNL     1       1.674  -1.582  -2.684  0.00  0.00    -0.275 OA
ATOM      5  H   UNL     1      -1.204  -2.624  -2.292  0.00  0.00    +0.150 HD
BRANCH   3   6
ATOM      6  C   UNL     1      -0.249  -0.527  -3.555  0.00  0.00    +0.048 C 
ATOM      7  C   UNL     1      -1.226   0.199  -2.628  0.00  0.00    +0.019 C 
ATOM      8  C   UNL     1      -1.951   1.296  -3.409  0.00  0.00    -0.009 C 
ATOM      9  C   UNL     1      -0.929   2.295  -3.956  0.00  0.00    +0.007 C 
ATOM     10  C   UNL     1       0.048   1.569  -4.883  0.00  0.00    -0.009 C 
ATOM     11  C   UNL     1       0.773   0.471  -4.101  0.00  0.00    +0.019 C 
ATOM     12  C   UNL     1      -0.724   0.941  -6.046  0.00  0.00    +0.007 C 
ATOM     13  C   UNL     1      -1.746  -0.057  -5.500  0.00  0.00    -0.009 C 
ATOM     14  C   UNL     1      -2.723   0.669  -4.572  0.00  0.00    +0.007 C 
ATOM     15  C   UNL     1      -1.021  -1.154  -4.718  0.00  0.00    +0.019 C 
ENDBRANCH   3   6
ENDBRANCH   1   2
BRANCH   1  16
ATOM     16  C   UNL     1      -0.385  -4.904  -1.452  0.00  0.00    +0.328 C 
ATOM     17  O   UNL     1      -1.455  -4.916  -2.014  0.00  0.00    -0.249 OA
BRANCH  16  18
ATOM     18  O   UNL     1       0.055  -6.004  -0.821  0.00  0.00    -0.455 OA
BRANCH  18  19
ATOM     19  C   UNL     1      -0.794  -7.153  -0.853  0.00  0.00    +0.311 C 
BRANCH  19  20
ATOM     20  C   UNL     1      -0.141  -8.281  -0.098  0.00  0.00    +0.200 C 
ATOM     21  O   UNL     1       0.945  -8.118   0.417  0.00  0.00    -0.288 OA
BRANCH  20  22
ATOM     22  C   UNL     1      -0.820  -9.581   0.015  0.00  0.00    +0.021 A 
ATOM     23  C   UNL     1      -2.070  -9.775  -0.582  0.00  0.00    +0.013 A 
ATOM     24  C   UNL     1      -2.700 -10.996  -0.472  0.00  0.00    +0.021 A 
ATOM     25  C   UNL     1      -2.098 -12.030   0.228  0.00  0.00    +0.041 A 
ATOM     26  C   UNL     1      -0.860 -11.845   0.822  0.00  0.00    +0.021 A 
ATOM     27  C   UNL     1      -0.216 -10.631   0.715  0.00  0.00    +0.013 A 
ATOM     28 CL   UNL     1      -2.900 -13.563   0.361  0.00  0.00    -0.084 Cl
ENDBRANCH  20  22
ENDBRANCH  19  20
ENDBRANCH  18  19
ENDBRANCH  16  18
ENDBRANCH   1  16
BRANCH   1  29
ATOM     29  C   UNL     1       0.691  -3.186  -0.024  0.00  0.00    +0.067 C 
BRANCH  29  36
ATOM     30  C   UNL     1      -0.016   1.348   0.009  0.00  0.00    +0.001 A 
ATOM     31  C   UNL     1       1.166   2.101   0.002  0.00  0.00    +0.002 A 
ATOM     32  C   UNL     1       2.391   1.535  -0.013  0.00  0.00    +0.026 A 
ATOM     33  C   UNL     1       2.529   0.120  -0.022  0.00  0.00    +0.043 A 
ATOM     34  N   UNL     1       3.587  -0.654  -0.037  0.00  0.00    -0.380 N 
ATOM     35  C   UNL     1       3.143  -2.053  -0.041  0.00  0.00    +0.144 C 
ATOM     36  C   UNL     1       1.631  -2.008  -0.025  0.00  0.00    -0.039 C 
ATOM     37  C   UNL     1       1.295  -0.698  -0.014  0.00  0.00    -0.001 A 
ATOM     38  C   UNL     1       0.002  -0.004   0.002  0.00  0.00    +0.010 A 
ATOM     39  H   UNL     1       4.509  -0.353  -0.045  0.00  0.00    +0.160 HD
ENDBRANCH  29  36
ENDBRANCH   1  29
TORSDOF 9
