REMARK  Name = ZINC01043215
REMARK  7 active torsions:
REMARK  status: ('A' for Active; 'I' for Inactive)
REMARK    1  A    between atoms: C_1  and  C_2
REMARK    2  A    between atoms: C_5  and  S_8
REMARK    3  A    between atoms: S_8  and  N_11
REMARK    4  A    between atoms: N_11  and  N_12
REMARK    5  A    between atoms: C_13  and  C_15
REMARK    6  A    between atoms: C_16  and  C_28
REMARK    7  A    between atoms: C_19  and  N_25
REMARK                            x       y       z     vdW  Elec       q    Type
REMARK                         _______ _______ _______ _____ _____    ______ ____
ROOT
ATOM      1  C   UNL     1       0.706   4.385   1.022  0.00  0.00    +0.112 A 
ATOM      2  C   UNL     1       1.171   3.566   0.009  0.00  0.00    +0.020 A 
ATOM      3  C   UNL     1       1.656   4.454  -1.054  0.00  0.00    +0.010 A 
ATOM      4  C   UNL     1       2.234   4.232  -2.306  0.00  0.00    +0.043 A 
ATOM      5  C   UNL     1       2.589   5.294  -3.088  0.00  0.00    +0.127 A 
ATOM      6  C   UNL     1       2.379   6.594  -2.648  0.00  0.00    +0.035 A 
ATOM      7  C   UNL     1       1.804   6.837  -1.421  0.00  0.00    +0.028 A 
ATOM      8  C   UNL     1       1.438   5.769  -0.604  0.00  0.00    +0.048 A 
ATOM      9  N   UNL     1       0.870   5.702   0.646  0.00  0.00    -0.350 N 
ATOM     10  H   UNL     1       0.620   6.468   1.185  0.00  0.00    +0.166 HD
ENDROOT
BRANCH   2  11
ATOM     11  C   UNL     1       1.184   2.087   0.002  0.00  0.00    -0.015 A 
ATOM     12  C   UNL     1      -0.017   1.375   0.010  0.00  0.00    +0.008 A 
ATOM     13  C   UNL     1       0.002  -0.004   0.002  0.00  0.00    +0.001 A 
ATOM     14  C   UNL     1       1.208  -0.682  -0.014  0.00  0.00    +0.000 A 
ATOM     15  C   UNL     1       2.402   0.017  -0.021  0.00  0.00    +0.001 A 
ATOM     16  C   UNL     1       2.397   1.396  -0.013  0.00  0.00    +0.008 A 
ENDBRANCH   2  11
BRANCH   1  18
ATOM     17  N   UNL     1      -0.289   4.825   3.204  0.00  0.00    -0.227 N 
ATOM     18  C   UNL     1       0.131   3.926   2.292  0.00  0.00    +0.276 C 
ATOM     19  O   UNL     1       0.034   2.735   2.521  0.00  0.00    -0.267 OA
ATOM     20  H   UNL     1      -0.212   5.774   3.022  0.00  0.00    +0.171 HD
BRANCH  17  21
ATOM     21  N   UNL     1      -0.838   4.387   4.417  0.00  0.00    -0.108 NA
ATOM     22  H   UNL     1      -1.590   3.774   4.415  0.00  0.00    +0.172 HD
BRANCH  21  23
ATOM     23  S   UNL     1      -0.204   4.916   5.852  0.00  0.00    +0.074 S 
ATOM     24  O   UNL     1      -1.052   4.420   6.878  0.00  0.00    -0.152 OA
ATOM     25  O   UNL     1       1.188   4.631   5.810  0.00  0.00    -0.152 OA
BRANCH  23  30
ATOM     26  C   UNL     1      -0.731  10.926   5.930  0.00  0.00    +0.044 C 
ATOM     27  C   UNL     1      -0.599   9.425   5.911  0.00  0.00    -0.050 A 
ATOM     28  C   UNL     1      -1.616   8.635   6.414  0.00  0.00    +0.005 A 
ATOM     29  C   UNL     1      -1.495   7.258   6.397  0.00  0.00    +0.029 A 
ATOM     30  C   UNL     1      -0.358   6.671   5.875  0.00  0.00    +0.107 A 
ATOM     31  C   UNL     1       0.661   7.461   5.375  0.00  0.00    +0.029 A 
ATOM     32  C   UNL     1       0.538   8.837   5.389  0.00  0.00    +0.005 A 
ENDBRANCH  23  30
ENDBRANCH  21  23
ENDBRANCH  17  21
ENDBRANCH   1  18
BRANCH   5  33
ATOM     33  N   UNL     1       3.202   5.057  -4.415  0.00  0.00    +0.056 N 
ATOM     34  O   UNL     1       3.388   3.918  -4.804  0.00  0.00    -0.126 OA
ATOM     35  O   UNL     1       3.519   6.000  -5.116  0.00  0.00    -0.126 OA
ENDBRANCH   5  33
TORSDOF 6
