REMARK  Name = ZINC59122941
REMARK  9 active torsions:
REMARK  status: ('A' for Active; 'I' for Inactive)
REMARK    1  A    between atoms: C_1  and  C_2
REMARK    2  A    between atoms: C_7  and  C_8
REMARK    3  A    between atoms: C_8  and  N_9
REMARK    4  A    between atoms: C_12  and  N_15
REMARK    5  A    between atoms: C_16  and  C_18
REMARK    6  A    between atoms: C_18  and  C_19
REMARK    7  A    between atoms: C_19  and  C_20
REMARK    8  A    between atoms: C_22  and  C_31
REMARK    9  A    between atoms: C_23  and  C_25
REMARK                            x       y       z     vdW  Elec       q    Type
REMARK                         _______ _______ _______ _____ _____    ______ ____
ROOT
ATOM      1  N   UNL     1      -5.514   0.767   4.396  0.00  0.00    -0.313 N 
ATOM      2  C   UNL     1      -5.819   1.094   5.667  0.00  0.00    +0.214 C 
ATOM      3  O   UNL     1      -5.040   0.842   6.562  0.00  0.00    -0.276 OA
ATOM      4  H   UNL     1      -6.137   0.968   3.680  0.00  0.00    +0.149 HD
ENDROOT
BRANCH   1   8
ATOM      5  N   UNL     1      -2.023  -0.254   2.267  0.00  0.00    +0.382 N 
ATOM      6  C   UNL     1      -3.021  -1.316   2.446  0.00  0.00    -0.077 C 
ATOM      7  C   UNL     1      -4.375  -0.695   2.797  0.00  0.00    +0.003 C 
ATOM      8  C   UNL     1      -4.241   0.107   4.095  0.00  0.00    +0.069 C 
ATOM      9  C   UNL     1      -3.146   1.163   3.921  0.00  0.00    +0.003 C 
ATOM     10  C   UNL     1      -1.838   0.473   3.528  0.00  0.00    -0.077 C 
ATOM     11  H   UNL     1      -2.340   0.386   1.554  0.00  0.00    -0.081 HD
BRANCH   5  12
ATOM     12  C   UNL     1      -0.745  -0.850   1.855  0.00  0.00    -0.043 C 
BRANCH  12  19
ATOM     13  C   UNL     1      -0.675   0.776  -0.533  0.00  0.00    +0.044 C 
ATOM     14  C   UNL     1      -0.871  -0.714  -0.642  0.00  0.00    -0.049 A 
ATOM     15  C   UNL     1      -1.011  -1.304  -1.884  0.00  0.00    +0.003 A 
ATOM     16  C   UNL     1      -1.190  -2.671  -1.984  0.00  0.00    +0.000 A 
ATOM     17  C   UNL     1      -1.229  -3.448  -0.841  0.00  0.00    +0.000 A 
ATOM     18  C   UNL     1      -1.088  -2.859   0.401  0.00  0.00    +0.002 A 
ATOM     19  C   UNL     1      -0.904  -1.492   0.500  0.00  0.00    -0.061 A 
ENDBRANCH  12  19
ENDBRANCH   5  12
ENDBRANCH   1   8
BRANCH   2  20
ATOM     20  C   UNL     1      -7.129   1.772   5.977  0.00  0.00    +0.105 C 
BRANCH  20  21
ATOM     21  C   UNL     1      -7.225   2.031   7.482  0.00  0.00    +0.105 C 
BRANCH  21  22
ATOM     22  C   UNL     1      -8.535   2.710   7.792  0.00  0.00    +0.197 A 
ATOM     23  N   UNL     1      -9.645   2.099   8.086  0.00  0.00    -0.213 NA
ATOM     24  C   UNL     1     -10.607   3.020   8.303  0.00  0.00    +0.117 A 
ATOM     25  C   UNL     1     -10.027   4.259   8.127  0.00  0.00    +0.163 A 
ATOM     26  O   UNL     1      -8.732   4.035   7.813  0.00  0.00    -0.439 OA
BRANCH  25  27
ATOM     27  C   UNL     1     -10.689   5.572   8.259  0.00  0.00    +0.019 A 
ATOM     28  C   UNL     1     -11.487   5.846   9.372  0.00  0.00    +0.011 A 
ATOM     29  C   UNL     1     -12.103   7.074   9.490  0.00  0.00    +0.001 A 
ATOM     30  C   UNL     1     -11.931   8.034   8.508  0.00  0.00    +0.000 A 
ATOM     31  C   UNL     1     -11.142   7.770   7.403  0.00  0.00    +0.001 A 
ATOM     32  C   UNL     1     -10.515   6.548   7.275  0.00  0.00    +0.011 A 
ENDBRANCH  25  27
BRANCH  24  33
ATOM     33  C   UNL     1     -12.019   2.752   8.663  0.00  0.00    +0.004 A 
ATOM     34  C   UNL     1     -13.046   3.479   8.061  0.00  0.00    +0.010 A 
ATOM     35  C   UNL     1     -14.359   3.224   8.400  0.00  0.00    +0.001 A 
ATOM     36  C   UNL     1     -14.658   2.250   9.335  0.00  0.00    +0.000 A 
ATOM     37  C   UNL     1     -13.644   1.525   9.936  0.00  0.00    +0.001 A 
ATOM     38  C   UNL     1     -12.328   1.767   9.601  0.00  0.00    +0.010 A 
ENDBRANCH  24  33
ENDBRANCH  21  22
ENDBRANCH  20  21
ENDBRANCH   2  20
TORSDOF 8
