REMARK  Name = ZINC40447158
REMARK  4 active torsions:
REMARK  status: ('A' for Active; 'I' for Inactive)
REMARK    1  A    between atoms: C_4  and  S_8
REMARK    2  A    between atoms: S_8  and  N_11
REMARK    3  A    between atoms: N_11  and  C_12
REMARK    4  A    between atoms: C_17  and  O_20
REMARK                            x       y       z     vdW  Elec       q    Type
REMARK                         _______ _______ _______ _____ _____    ______ ____
ROOT
ATOM      1  S   UNL     1       4.093  -0.878   0.013  0.00  0.00    +0.060 S 
ATOM      2  O   UNL     1       5.103  -0.379   0.879  0.00  0.00    -0.153 OA
ATOM      3  O   UNL     1       3.657  -2.230   0.051  0.00  0.00    -0.153 OA
ENDROOT
BRANCH   1   7
ATOM      4  C   UNL     1       0.421   1.683   0.695  0.00  0.00    +0.016 A 
ATOM      5  C   UNL     1       0.391   0.667  -0.242  0.00  0.00    +0.018 A 
ATOM      6  C   UNL     1       1.512  -0.115  -0.451  0.00  0.00    +0.044 A 
ATOM      7  C   UNL     1       2.665   0.119   0.278  0.00  0.00    +0.120 A 
ATOM      8  C   UNL     1       2.695   1.135   1.215  0.00  0.00    +0.045 A 
ATOM      9  C   UNL     1       1.573   1.917   1.424  0.00  0.00    +0.020 A 
ATOM     10 BR   UNL     1       1.615   3.307   2.705  0.00  0.00    -0.050 Br
ATOM     11 BR   UNL     1       1.471  -1.505  -1.733  0.00  0.00    -0.048 Br
ENDBRANCH   1   7
BRANCH   1  12
ATOM     12  N   UNL     1       4.610  -0.591  -1.533  0.00  0.00    -0.187 NA
ATOM     13  H   UNL     1       4.577  -1.300  -2.195  0.00  0.00    +0.148 HD
BRANCH  12  14
ATOM     14  C   UNL     1       5.119   0.732  -1.902  0.00  0.00    +0.079 C 
ATOM     15  C   UNL     1       4.001   1.543  -2.560  0.00  0.00    +0.020 C 
ATOM     16  C   UNL     1       3.515   0.816  -3.816  0.00  0.00    +0.004 C 
ATOM     17  C   UNL     1       4.678   0.660  -4.797  0.00  0.00    +0.031 C 
ATOM     18  C   UNL     1       5.796  -0.151  -4.139  0.00  0.00    +0.116 C 
ATOM     19  C   UNL     1       6.282   0.576  -2.884  0.00  0.00    +0.051 C 
BRANCH  18  20
ATOM     20  O   UNL     1       6.883  -0.296  -5.056  0.00  0.00    -0.392 OA
ATOM     21  H   UNL     1       6.646  -0.750  -5.876  0.00  0.00    +0.210 HD
ENDBRANCH  18  20
ENDBRANCH  12  14
ENDBRANCH   1  12
TORSDOF 4
