REMARK  Name = ZINC64439072
REMARK  6 active torsions:
REMARK  status: ('A' for Active; 'I' for Inactive)
REMARK    1  A    between atoms: C_1  and  C_2
REMARK    2  A    between atoms: C_7  and  C_8
REMARK    3  A    between atoms: C_14  and  C_18
REMARK    4  A    between atoms: N_20  and  C_21
REMARK    5  A    between atoms: C_21  and  C_22
REMARK    6  A    between atoms: C_22  and  C_23
REMARK                            x       y       z     vdW  Elec       q    Type
REMARK                         _______ _______ _______ _____ _____    ______ ____
ROOT
ATOM      1  C   UNL     1      -0.018   1.503   0.010  0.00  0.00    +0.044 C 
ATOM      2  C   UNL     1       0.002  -0.004   0.002  0.00  0.00    -0.046 A 
ATOM      3  C   UNL     1       0.006  -0.687  -1.199  0.00  0.00    +0.028 A 
ATOM      4  C   UNL     1       0.027  -2.076  -1.213  0.00  0.00    +0.051 A 
ATOM      5  C   UNL     1       0.021  -2.779  -0.008  0.00  0.00    +0.060 A 
ATOM      6  C   UNL     1       0.027  -2.082   1.194  0.00  0.00    +0.029 A 
ATOM      7  C   UNL     1       0.023  -0.700   1.196  0.00  0.00    -0.046 A 
ATOM      8  C   UNL     1       0.035   0.049   2.503  0.00  0.00    +0.044 C 
ATOM      9  N   UNL     1      -0.018  -4.151  -0.271  0.00  0.00    -0.238 N 
ATOM     10  C   UNL     1       0.235  -4.310  -1.715  0.00  0.00    +0.232 C 
ATOM     11  N   UNL     1       0.053  -2.977  -2.288  0.00  0.00    -0.315 N 
ATOM     12  S   UNL     1      -0.977  -5.502  -2.353  0.00  0.00    -0.078 S 
ATOM     13  C   UNL     1      -0.902  -6.793  -1.148  0.00  0.00    +0.078 C 
ATOM     14  C   UNL     1      -0.550  -6.507   0.129  0.00  0.00    +0.087 C 
ATOM     15  C   UNL     1      -0.255  -5.159   0.581  0.00  0.00    +0.247 C 
ATOM     16  O   UNL     1      -0.188  -4.946   1.778  0.00  0.00    -0.270 OA
ATOM     17  H   UNL     1      -0.033  -2.759  -3.229  0.00  0.00    +0.149 HD
ENDROOT
BRANCH  13  18
ATOM     18  C   UNL     1      -1.225  -8.188  -1.534  0.00  0.00    +0.251 C 
ATOM     19  O   UNL     1      -1.541  -8.444  -2.678  0.00  0.00    -0.270 OA
ATOM     20  N   UNL     1      -1.168  -9.172  -0.614  0.00  0.00    -0.311 N 
ATOM     21  H   UNL     1      -0.915  -8.968   0.300  0.00  0.00    +0.149 HD
BRANCH  20  22
ATOM     22  C   UNL     1      -1.486 -10.550  -0.996  0.00  0.00    +0.109 C 
BRANCH  22  23
ATOM     23  C   UNL     1      -1.345 -11.463   0.225  0.00  0.00    +0.052 C 
BRANCH  23  24
ATOM     24  C   UNL     1      -1.673 -12.880  -0.168  0.00  0.00    -0.040 C 
ATOM     25  C   UNL     1      -0.799 -13.846  -0.533  0.00  0.00    -0.001 A 
ATOM     26  C   UNL     1       0.662 -13.864  -0.670  0.00  0.00    +0.010 A 
ATOM     27  C   UNL     1       1.270 -15.006  -1.065  0.00  0.00    +0.001 A 
ATOM     28  C   UNL     1       0.540 -16.170  -1.346  0.00  0.00    +0.002 A 
ATOM     29  C   UNL     1      -0.804 -16.231  -1.242  0.00  0.00    +0.026 A 
ATOM     30  C   UNL     1      -1.546 -15.088  -0.835  0.00  0.00    +0.043 A 
ATOM     31  N   UNL     1      -2.832 -14.898  -0.663  0.00  0.00    -0.380 N 
ATOM     32  C   UNL     1      -3.045 -13.513  -0.226  0.00  0.00    +0.144 C 
ATOM     33  H   UNL     1      -3.525 -15.562  -0.798  0.00  0.00    +0.160 HD
ENDBRANCH  23  24
ENDBRANCH  22  23
ENDBRANCH  20  22
ENDBRANCH  13  18
TORSDOF 4
