REMARK  Name = ZINC16651756
REMARK  13 active torsions:
REMARK  status: ('A' for Active; 'I' for Inactive)
REMARK    1  A    between atoms: C_1  and  C_2
REMARK    2  A    between atoms: C_5  and  C_7
REMARK    3  A    between atoms: C_7  and  N_8
REMARK    4  A    between atoms: N_8  and  C_9
REMARK    5  A    between atoms: C_9  and  C_10
REMARK    6  A    between atoms: C_19  and  C_21
REMARK    7  A    between atoms: C_21  and  N_22
REMARK    8  A    between atoms: N_22  and  C_23
REMARK    9  A    between atoms: C_23  and  C_24
REMARK   10  A    between atoms: C_24  and  C_25
REMARK   11  A    between atoms: C_24  and  C_26
REMARK   12  A    between atoms: N_29  and  C_30
REMARK   13  A    between atoms: C_33  and  C_36
REMARK                            x       y       z     vdW  Elec       q    Type
REMARK                         _______ _______ _______ _____ _____    ______ ____
ROOT
ATOM      1  N   UNL     1      -3.120   1.033   1.933  0.00  0.00    -0.289 N 
ATOM      2  C   UNL     1      -2.652  -0.139   2.405  0.00  0.00    +0.234 C 
ATOM      3  O   UNL     1      -1.895  -0.805   1.731  0.00  0.00    -0.274 OA
ENDROOT
BRANCH   1   4
ATOM      4  C   UNL     1      -4.034   1.839   2.747  0.00  0.00    +0.182 C 
BRANCH   4   9
ATOM      5  C   UNL     1      -8.603   1.699   0.614  0.00  0.00    +0.086 C 
ATOM      6  C   UNL     1      -7.443   1.379   1.521  0.00  0.00    +0.102 A 
ATOM      7  C   UNL     1      -7.435   0.442   2.487  0.00  0.00    +0.045 A 
ATOM      8  C   UNL     1      -6.154   0.481   3.084  0.00  0.00    +0.046 A 
ATOM      9  C   UNL     1      -5.457   1.439   2.448  0.00  0.00    +0.122 A 
ATOM     10  O   UNL     1      -6.244   1.984   1.506  0.00  0.00    -0.463 OA
ENDBRANCH   4   9
ENDBRANCH   1   4
BRANCH   1  11
ATOM     11  C   UNL     1      -2.715   1.502   0.605  0.00  0.00    +0.143 C 
BRANCH  11  12
ATOM     12  C   UNL     1      -1.467   2.339   0.727  0.00  0.00    -0.026 A 
ATOM     13  C   UNL     1      -1.568   3.702   0.932  0.00  0.00    +0.009 A 
ATOM     14  C   UNL     1      -0.426   4.475   1.038  0.00  0.00    +0.050 A 
ATOM     15  C   UNL     1       0.823   3.882   0.946  0.00  0.00    +0.166 A 
ATOM     16  C   UNL     1       0.924   2.507   0.747  0.00  0.00    +0.167 A 
ATOM     17  C   UNL     1      -0.224   1.740   0.641  0.00  0.00    +0.054 A 
ATOM     18  O   UNL     1       2.246   2.171   0.693  0.00  0.00    -0.453 OA
ATOM     19  C   UNL     1       2.947   3.405   0.451  0.00  0.00    +0.466 C 
ATOM     20  O   UNL     1       2.081   4.407   1.016  0.00  0.00    -0.453 OA
ENDBRANCH  11  12
ENDBRANCH   1  11
BRANCH   2  21
ATOM     21  C   UNL     1      -3.069  -0.621   3.771  0.00  0.00    +0.205 C 
BRANCH  21  22
ATOM     22  N   UNL     1      -2.430  -1.909   4.050  0.00  0.00    -0.276 N 
ATOM     23  C   UNL     1      -1.225  -1.947   4.652  0.00  0.00    +0.307 C 
ATOM     24  O   UNL     1      -0.668  -0.912   4.964  0.00  0.00    -0.252 OA
ATOM     25  N   UNL     1      -0.636  -3.132   4.909  0.00  0.00    -0.269 N 
ATOM     26  H   UNL     1      -1.112  -3.959   4.732  0.00  0.00    +0.156 HD
BRANCH  25  27
ATOM     27  C   UNL     1       0.658  -3.171   5.430  0.00  0.00    +0.035 A 
ATOM     28  C   UNL     1       1.582  -2.197   5.064  0.00  0.00    +0.024 A 
ATOM     29  C   UNL     1       2.858  -2.229   5.580  0.00  0.00    +0.020 A 
ATOM     30  C   UNL     1       3.228  -3.247   6.464  0.00  0.00    +0.052 A 
ATOM     31  C   UNL     1       2.298  -4.226   6.824  0.00  0.00    +0.020 A 
ATOM     32  C   UNL     1       1.022  -4.186   6.309  0.00  0.00    +0.024 A 
BRANCH  30  33
ATOM     33  C   UNL     1       4.556  -3.286   6.998  0.00  0.00    +0.099 C 
ATOM     34  N   UNL     1       5.609  -3.317   7.423  0.00  0.00    -0.191 NA
ENDBRANCH  30  33
ENDBRANCH  25  27
BRANCH  22  35
ATOM     35  C   UNL     1      -3.100  -3.157   3.674  0.00  0.00    +0.113 C 
BRANCH  35  36
ATOM     36  C   UNL     1      -2.687  -3.550   2.254  0.00  0.00    +0.000 C 
ATOM     37  C   UNL     1      -1.192  -3.870   2.227  0.00  0.00    +0.009 C 
ATOM     38  C   UNL     1      -3.481  -4.782   1.815  0.00  0.00    +0.009 C 
ENDBRANCH  35  36
ENDBRANCH  22  35
ENDBRANCH  21  22
ENDBRANCH   2  21
TORSDOF 10
