REMARK  Name = ZINC08977235
REMARK  5 active torsions:
REMARK  status: ('A' for Active; 'I' for Inactive)
REMARK    1  A    between atoms: C_5  and  C_7
REMARK    2  A    between atoms: C_7  and  S_8
REMARK    3  A    between atoms: S_8  and  N_11
REMARK    4  A    between atoms: N_11  and  C_12
REMARK    5  A    between atoms: C_22  and  C_24
REMARK                            x       y       z     vdW  Elec       q    Type
REMARK                         _______ _______ _______ _____ _____    ______ ____
ROOT
ATOM      1  C   UNL     1      -0.753   1.438   1.131  0.00  0.00    +0.048 A 
ATOM      2  C   UNL     1       0.516   0.875   1.086  0.00  0.00    +0.025 A 
ATOM      3  C   UNL     1       1.610   1.674   0.834  0.00  0.00    +0.006 A 
ATOM      4  C   UNL     1       1.457   3.040   0.626  0.00  0.00    -0.041 A 
ATOM      5  C   UNL     1       0.199   3.600   0.669  0.00  0.00    -0.025 A 
ATOM      6  C   UNL     1      -0.905   2.800   0.928  0.00  0.00    +0.030 A 
ATOM      7  C   UNL     1      -0.038   5.071   0.436  0.00  0.00    +0.143 C 
ATOM      8  N   UNL     1       1.243   5.785   0.443  0.00  0.00    -0.290 N 
ATOM      9  C   UNL     1       2.359   5.178  -0.301  0.00  0.00    +0.113 C 
ATOM     10  C   UNL     1       2.702   3.849   0.370  0.00  0.00    +0.054 C 
ATOM     11  C   UNL     1       1.392   6.950   1.103  0.00  0.00    +0.282 C 
ATOM     12  O   UNL     1       2.492   7.464   1.190  0.00  0.00    -0.267 OA
ENDROOT
BRANCH  11  13
ATOM     13  C   UNL     1       0.229   7.599   1.718  0.00  0.00    +0.189 A 
ATOM     14  C   UNL     1       0.257   8.701   2.523  0.00  0.00    +0.054 A 
ATOM     15  C   UNL     1      -1.072   8.975   2.880  0.00  0.00    +0.042 A 
ATOM     16  C   UNL     1      -1.844   8.035   2.290  0.00  0.00    +0.196 A 
ATOM     17  O   UNL     1      -1.056   7.208   1.591  0.00  0.00    -0.458 OA
ENDBRANCH  11  13
BRANCH   1  18
ATOM     18  N   UNL     1      -1.869   0.636   1.385  0.00  0.00    -0.220 N 
ATOM     19  H   UNL     1      -2.672   0.739   0.850  0.00  0.00    +0.173 HD
BRANCH  18  20
ATOM     20  S   UNL     1      -1.821  -0.489   2.599  0.00  0.00    +0.047 S 
ATOM     21  O   UNL     1      -3.092  -1.123   2.556  0.00  0.00    -0.155 OA
ATOM     22  O   UNL     1      -0.633  -1.231   2.360  0.00  0.00    -0.155 OA
BRANCH  20  23
ATOM     23  C   UNL     1      -1.657   0.478   4.125  0.00  0.00    +0.225 C 
BRANCH  23  28
ATOM     24  C   UNL     1      -2.722  -1.684   7.031  0.00  0.00    +0.000 A 
ATOM     25  C   UNL     1      -1.506  -2.165   7.478  0.00  0.00    +0.001 A 
ATOM     26  C   UNL     1      -0.338  -1.791   6.841  0.00  0.00    +0.020 A 
ATOM     27  C   UNL     1      -0.386  -0.935   5.755  0.00  0.00    +0.046 A 
ATOM     28  C   UNL     1      -1.604  -0.454   5.308  0.00  0.00    -0.006 A 
ATOM     29  C   UNL     1      -2.771  -0.825   5.949  0.00  0.00    +0.007 A 
ATOM     30 CL   UNL     1       1.081  -0.463   4.955  0.00  0.00    -0.083 Cl
ENDBRANCH  23  28
ENDBRANCH  20  23
ENDBRANCH  18  20
ENDBRANCH   1  18
TORSDOF 5
