REMARK  Name = ZINC23989505
REMARK  9 active torsions:
REMARK  status: ('A' for Active; 'I' for Inactive)
REMARK    1  A    between atoms: C_1  and  N_2
REMARK    2  A    between atoms: N_2  and  C_3
REMARK    3  A    between atoms: N_2  and  P_4
REMARK    4  A    between atoms: P_4  and  N_20
REMARK    5  A    between atoms: C_6  and  C_16
REMARK    6  A    between atoms: C_8  and  C_10
REMARK    7  A    between atoms: N_20  and  N_21
REMARK    8  A    between atoms: N_21  and  C_22
REMARK    9  A    between atoms: N_21  and  C_28
REMARK                            x       y       z     vdW  Elec       q    Type
REMARK                         _______ _______ _______ _____ _____    ______ ____
ROOT
ATOM      1  P   UNL     1      -0.386  -0.272   0.005  0.00  0.00    +0.235 P 
ATOM      2  N   UNL     1      -0.516   1.286  -0.142  0.00  0.00    -0.197 NA
ATOM      3  C   UNL     1       0.594   1.935  -0.393  0.00  0.00    +0.163 C 
ATOM      4  N   UNL     1       1.771   1.361  -0.524  0.00  0.00    -0.324 N 
ATOM      5  C   UNL     1       2.074   0.070  -0.434  0.00  0.00    +0.143 C 
ATOM      6  N   UNL     1       1.155  -0.848  -0.185  0.00  0.00    -0.197 NA
ATOM      7  H   UNL     1       2.660   1.972  -0.736  0.00  0.00    +0.169 HD
ENDROOT
BRANCH   5   8
ATOM      8  C   UNL     1       3.484  -0.353  -0.619  0.00  0.00    +0.017 A 
ATOM      9  C   UNL     1       3.828  -1.700  -0.524  0.00  0.00    +0.011 A 
ATOM     10  C   UNL     1       5.140  -2.089  -0.702  0.00  0.00    +0.001 A 
ATOM     11  C   UNL     1       6.115  -1.143  -0.963  0.00  0.00    +0.000 A 
ATOM     12  C   UNL     1       5.780   0.196  -1.053  0.00  0.00    +0.001 A 
ATOM     13  C   UNL     1       4.470   0.596  -0.882  0.00  0.00    +0.011 A 
ENDBRANCH   5   8
BRANCH   3  14
ATOM     14  C   UNL     1       0.519   3.432  -0.542  0.00  0.00    +0.248 C 
ATOM     15 CL   UNL     1       2.164   4.087  -0.882  0.00  0.00    -0.075 Cl
ATOM     16 CL   UNL     1      -0.586   3.845  -1.907  0.00  0.00    -0.075 Cl
ATOM     17 CL   UNL     1      -0.113   4.157   0.983  0.00  0.00    -0.075 Cl
ENDBRANCH   3  14
BRANCH   1  19
ATOM     18  C   UNL     1      -0.979  -0.610  -2.504  0.00  0.00    +0.113 C 
ATOM     19  N   UNL     1      -1.375  -1.001  -1.145  0.00  0.00    -0.244 NA
ATOM     20  C   UNL     1      -1.367  -2.463  -0.995  0.00  0.00    +0.113 C 
ENDBRANCH   1  19
BRANCH   1  21
ATOM     21  N   UNL     1      -0.933  -0.712   1.534  0.00  0.00    -0.168 NA
ATOM     22  H   UNL     1      -0.926  -1.715   1.646  0.00  0.00    +0.154 HD
BRANCH  21  23
ATOM     23  N   UNL     1      -0.196  -0.106   2.511  0.00  0.00    -0.229 N 
BRANCH  23  24
ATOM     24  C   UNL     1      -0.584   1.141   3.007  0.00  0.00    +0.050 A 
ATOM     25  C   UNL     1      -1.915   1.380   3.326  0.00  0.00    +0.025 A 
ATOM     26  C   UNL     1      -2.294   2.613   3.820  0.00  0.00    +0.002 A 
ATOM     27  C   UNL     1      -1.353   3.612   3.987  0.00  0.00    +0.000 A 
ATOM     28  C   UNL     1      -0.029   3.379   3.666  0.00  0.00    +0.002 A 
ATOM     29  C   UNL     1       0.359   2.148   3.176  0.00  0.00    +0.025 A 
ENDBRANCH  23  24
BRANCH  23  30
ATOM     30  C   UNL     1       0.947  -0.733   3.015  0.00  0.00    +0.050 A 
ATOM     31  C   UNL     1       1.427  -1.891   2.416  0.00  0.00    +0.025 A 
ATOM     32  C   UNL     1       2.559  -2.505   2.913  0.00  0.00    +0.002 A 
ATOM     33  C   UNL     1       3.209  -1.975   4.013  0.00  0.00    +0.000 A 
ATOM     34  C   UNL     1       2.731  -0.826   4.615  0.00  0.00    +0.002 A 
ATOM     35  C   UNL     1       1.602  -0.203   4.120  0.00  0.00    +0.025 A 
ENDBRANCH  23  30
ENDBRANCH  21  23
ENDBRANCH   1  21
TORSDOF 7
