REMARK  Name = ZINC13776348
REMARK  10 active torsions:
REMARK  status: ('A' for Active; 'I' for Inactive)
REMARK    1  A    between atoms: C_1  and  C_2
REMARK    2  A    between atoms: C_2  and  C_3
REMARK    3  A    between atoms: C_3  and  O_4
REMARK    4  A    between atoms: O_4  and  C_5
REMARK    5  A    between atoms: C_8  and  C_14
REMARK    6  A    between atoms: C_10  and  O_11
REMARK    7  A    between atoms: O_11  and  C_12
REMARK    8  A    between atoms: C_12  and  C_13
REMARK    9  A    between atoms: N_22  and  C_25
REMARK   10  A    between atoms: N_33  and  C_34
REMARK                            x       y       z     vdW  Elec       q    Type
REMARK                         _______ _______ _______ _____ _____    ______ ____
ROOT
ATOM      1  C   UNL     1      -6.403  -4.585   0.038  0.00  0.00    +0.157 C 
ATOM      2  C   UNL     1      -7.083  -4.460  -1.319  0.00  0.00    +0.145 C 
ATOM      3  C   UNL     1      -7.821  -3.093  -1.048  0.00  0.00    +0.249 C 
ATOM      4  C   UNL     1      -8.134  -2.660  -2.395  0.00  0.00    +0.259 C 
ATOM      5  O   UNL     1      -9.104  -2.030  -2.758  0.00  0.00    -0.272 OA
ATOM      6  N   UNL     1      -7.099  -3.114  -3.171  0.00  0.00    -0.206 N 
ATOM      7  C   UNL     1      -6.305  -4.037  -2.526  0.00  0.00    +0.235 C 
ATOM      8  O   UNL     1      -5.204  -4.425  -2.856  0.00  0.00    -0.274 OA
ATOM      9  O   UNL     1      -8.414  -3.305   0.166  0.00  0.00    -0.257 OA
ATOM     10  N   UNL     1      -7.347  -3.902   0.970  0.00  0.00    -0.244 N 
ENDROOT
BRANCH   6  11
ATOM     11  C   UNL     1      -6.877  -2.695  -4.491  0.00  0.00    +0.062 A 
ATOM     12  C   UNL     1      -6.069  -1.596  -4.745  0.00  0.00    +0.025 A 
ATOM     13  C   UNL     1      -5.851  -1.185  -6.045  0.00  0.00    +0.002 A 
ATOM     14  C   UNL     1      -6.439  -1.867  -7.095  0.00  0.00    +0.002 A 
ATOM     15  C   UNL     1      -7.246  -2.962  -6.846  0.00  0.00    +0.022 A 
ATOM     16  C   UNL     1      -7.462  -3.382  -5.547  0.00  0.00    +0.063 A 
ATOM     17 CL   UNL     1      -8.468  -4.762  -5.235  0.00  0.00    -0.082 Cl
ENDBRANCH   6  11
BRANCH   1  21
ATOM     18  C   UNL     1      -2.617  -2.596   0.014  0.00  0.00    +0.162 A 
ATOM     19  C   UNL     1      -3.778  -1.879   0.251  0.00  0.00    +0.050 A 
ATOM     20  C   UNL     1      -5.001  -2.525   0.258  0.00  0.00    +0.009 A 
ATOM     21  C   UNL     1      -5.068  -3.886   0.029  0.00  0.00    -0.018 A 
ATOM     22  C   UNL     1      -3.913  -4.608  -0.208  0.00  0.00    +0.055 A 
ATOM     23  C   UNL     1      -2.685  -3.966  -0.222  0.00  0.00    +0.162 A 
BRANCH  18  24
ATOM     24  O   UNL     1      -1.414  -1.963   0.007  0.00  0.00    -0.488 OA
BRANCH  24  25
ATOM     25  C   UNL     1      -1.420  -0.556   0.257  0.00  0.00    +0.229 C 
BRANCH  25  27
ATOM     26  C   UNL     1       0.007   1.484   0.477  0.00  0.00    +0.007 C 
ATOM     27  C   UNL     1       0.013  -0.023   0.209  0.00  0.00    +0.038 C 
ENDBRANCH  25  27
ENDBRANCH  24  25
ENDBRANCH  18  24
BRANCH  23  28
ATOM     28  O   UNL     1      -1.549  -4.674  -0.461  0.00  0.00    -0.489 OA
BRANCH  28  29
ATOM     29  C   UNL     1      -1.695  -6.076  -0.695  0.00  0.00    +0.226 C 
ATOM     30  C   UNL     1      -0.319  -6.698  -0.942  0.00  0.00    +0.048 C 
ENDBRANCH  28  29
ENDBRANCH  23  28
ENDBRANCH   1  21
BRANCH  10  31
ATOM     31  C   UNL     1      -7.234  -3.852   2.361  0.00  0.00    +0.065 A 
ATOM     32  C   UNL     1      -6.165  -4.471   2.996  0.00  0.00    +0.028 A 
ATOM     33  C   UNL     1      -6.056  -4.419   4.372  0.00  0.00    +0.002 A 
ATOM     34  C   UNL     1      -7.011  -3.753   5.117  0.00  0.00    +0.000 A 
ATOM     35  C   UNL     1      -8.077  -3.136   4.489  0.00  0.00    +0.002 A 
ATOM     36  C   UNL     1      -8.189  -3.179   3.113  0.00  0.00    +0.028 A 
ENDBRANCH  10  31
TORSDOF 8
