REMARK  Name = ZINC14665193
REMARK  11 active torsions:
REMARK  status: ('A' for Active; 'I' for Inactive)
REMARK    1  A    between atoms: C_1  and  C_2
REMARK    2  A    between atoms: C_3  and  N_11
REMARK    3  A    between atoms: C_7  and  N_8
REMARK    4  A    between atoms: C_12  and  C_14
REMARK    5  A    between atoms: C_14  and  C_16
REMARK    6  A    between atoms: C_14  and  O_17
REMARK    7  A    between atoms: O_17  and  C_18
REMARK    8  A    between atoms: C_21  and  C_24
REMARK    9  A    between atoms: C_24  and  C_25
REMARK   10  A    between atoms: C_24  and  C_26
REMARK   11  A    between atoms: C_24  and  C_27
REMARK                            x       y       z     vdW  Elec       q    Type
REMARK                         _______ _______ _______ _____ _____    ______ ____
ROOT
ATOM      1  N   UNL     1      -1.052   2.803  -1.888  0.00  0.00    -0.282 N 
ATOM      2  C   UNL     1      -0.713   1.501  -1.809  0.00  0.00    +0.258 C 
ATOM      3  O   UNL     1      -1.101   0.721  -2.653  0.00  0.00    -0.271 OA
ATOM      4  H   UNL     1      -0.696   3.437  -1.245  0.00  0.00    +0.155 HD
ENDROOT
BRANCH   1   7
ATOM      5  C   UNL     1      -2.863   4.913  -1.282  0.00  0.00    +0.048 C 
ATOM      6  C   UNL     1      -2.817   4.268  -2.643  0.00  0.00    +0.001 A 
ATOM      7  C   UNL     1      -1.917   3.241  -2.896  0.00  0.00    +0.039 A 
ATOM      8  C   UNL     1      -1.882   2.645  -4.150  0.00  0.00    +0.024 A 
ATOM      9  C   UNL     1      -2.738   3.080  -5.144  0.00  0.00    +0.004 A 
ATOM     10  C   UNL     1      -3.628   4.106  -4.891  0.00  0.00    +0.033 A 
ATOM     11  C   UNL     1      -3.666   4.701  -3.643  0.00  0.00    +0.131 A 
BRANCH  11  12
ATOM     12  N   UNL     1      -4.622   5.800  -3.376  0.00  0.00    +0.057 N 
ATOM     13  O   UNL     1      -5.730   5.779  -3.880  0.00  0.00    -0.126 OA
ATOM     14  O   UNL     1      -4.299   6.726  -2.653  0.00  0.00    -0.126 OA
ENDBRANCH  11  12
ENDBRANCH   1   7
BRANCH   2  15
ATOM     15  C   UNL     1       0.148   1.014  -0.671  0.00  0.00    +0.256 C 
ATOM     16  C   UNL     1       1.492   1.744  -0.700  0.00  0.00    +0.062 C 
BRANCH  15  17
ATOM     17  O   UNL     1       0.367  -0.392  -0.808  0.00  0.00    -0.480 OA
BRANCH  17  18
ATOM     18  C   UNL     1       0.672  -1.081   0.323  0.00  0.00    +0.122 A 
ATOM     19  C   UNL     1       0.979  -2.432   0.251  0.00  0.00    +0.046 A 
ATOM     20  C   UNL     1       1.295  -3.129   1.401  0.00  0.00    +0.008 A 
ATOM     21  C   UNL     1       1.294  -2.484   2.624  0.00  0.00    -0.042 A 
ATOM     22  C   UNL     1       0.984  -1.139   2.699  0.00  0.00    +0.008 A 
ATOM     23  C   UNL     1       0.673  -0.436   1.551  0.00  0.00    +0.046 A 
BRANCH  21  24
ATOM     24  C   UNL     1       1.633  -3.249   3.878  0.00  0.00    -0.013 C 
ATOM     25  C   UNL     1       0.448  -3.195   4.844  0.00  0.00    +0.015 C 
ATOM     26  C   UNL     1       1.935  -4.706   3.521  0.00  0.00    +0.015 C 
ATOM     27  C   UNL     1       2.860  -2.622   4.542  0.00  0.00    +0.015 C 
ENDBRANCH  21  24
ENDBRANCH  17  18
ENDBRANCH  15  17
ENDBRANCH   2  15
TORSDOF 6
