REMARK  Name = ZINC02060545
REMARK  9 active torsions:
REMARK  status: ('A' for Active; 'I' for Inactive)
REMARK    1  A    between atoms: C_1  and  C_2
REMARK    2  A    between atoms: C_2  and  C_3
REMARK    3  A    between atoms: C_6  and  N_8
REMARK    4  A    between atoms: N_8  and  S_9
REMARK    5  A    between atoms: S_9  and  C_12
REMARK    6  A    between atoms: C_15  and  N_18
REMARK    7  A    between atoms: N_18  and  S_19
REMARK    8  A    between atoms: S_19  and  C_22
REMARK    9  A    between atoms: C_27  and  N_28
REMARK                            x       y       z     vdW  Elec       q    Type
REMARK                         _______ _______ _______ _____ _____    ______ ____
ROOT
ATOM      1  C   UNL     1       6.990   1.233   6.275  0.00  0.00    +0.111 A 
ATOM      2  C   UNL     1       6.331   0.036   6.486  0.00  0.00    +0.031 A 
ATOM      3  C   UNL     1       6.954  -0.984   7.178  0.00  0.00    +0.028 A 
ATOM      4  C   UNL     1       8.244  -0.807   7.662  0.00  0.00    +0.074 A 
ATOM      5  C   UNL     1       8.903   0.397   7.447  0.00  0.00    +0.028 A 
ATOM      6  C   UNL     1       8.277   1.411   6.750  0.00  0.00    +0.031 A 
ENDROOT
BRANCH   1   7
ATOM      7  S   UNL     1       6.192   2.532   5.391  0.00  0.00    +0.094 S 
ATOM      8  O   UNL     1       6.818   3.743   5.795  0.00  0.00    -0.148 OA
ATOM      9  O   UNL     1       4.794   2.316   5.526  0.00  0.00    -0.148 OA
BRANCH   7  10
ATOM     10  N   UNL     1       6.551   2.326   3.788  0.00  0.00    -0.068 NA
BRANCH  10  14
ATOM     11  C   UNL     1       5.270   4.711   0.787  0.00  0.00    +0.104 A 
ATOM     12  N   UNL     1       4.911   4.986   2.025  0.00  0.00    -0.145 NA
ATOM     13  N   UNL     1       5.278   4.280   3.004  0.00  0.00    -0.123 NA
ATOM     14  C   UNL     1       6.051   3.213   2.846  0.00  0.00    +0.224 A 
ATOM     15  S   UNL     1       6.257   3.243   1.068  0.00  0.00    -0.032 S 
BRANCH  11  17
ATOM     16  C   UNL     1       6.002   6.486  -0.782  0.00  0.00    +0.011 C 
ATOM     17  C   UNL     1       4.938   5.424  -0.498  0.00  0.00    +0.061 C 
ENDBRANCH  11  17
ENDBRANCH  10  14
ENDBRANCH   7  10
ENDBRANCH   1   7
BRANCH   4  18
ATOM     18  N   UNL     1       8.877  -1.836   8.362  0.00  0.00    -0.098 NA
BRANCH  18  19
ATOM     19  S   UNL     1      10.415  -1.623   8.938  0.00  0.00    +0.094 S 
ATOM     20  O   UNL     1      11.261  -1.504   7.802  0.00  0.00    -0.148 OA
ATOM     21  O   UNL     1      10.338  -0.617   9.939  0.00  0.00    -0.148 OA
BRANCH  19  22
ATOM     22  C   UNL     1      10.876  -3.114   9.756  0.00  0.00    +0.140 A 
ATOM     23  C   UNL     1      11.073  -3.119  11.124  0.00  0.00    +0.031 A 
ATOM     24  C   UNL     1      11.435  -4.288  11.766  0.00  0.00    +0.002 A 
ATOM     25  C   UNL     1      11.600  -5.453  11.039  0.00  0.00    +0.002 A 
ATOM     26  C   UNL     1      11.403  -5.448   9.671  0.00  0.00    +0.035 A 
ATOM     27  C   UNL     1      11.036  -4.279   9.030  0.00  0.00    +0.153 A 
BRANCH  27  28
ATOM     28  N   UNL     1      10.820  -4.275   7.566  0.00  0.00    +0.058 N 
ATOM     29  O   UNL     1      11.539  -4.928   6.847  0.00  0.00    -0.126 OA
ATOM     30  O   UNL     1       9.924  -3.618   7.089  0.00  0.00    -0.126 OA
ENDBRANCH  27  28
ENDBRANCH  19  22
ENDBRANCH  18  19
ENDBRANCH   4  18
TORSDOF 8
