REMARK  Name = ZINC36302100
REMARK  16 active torsions:
REMARK  status: ('A' for Active; 'I' for Inactive)
REMARK    1  A    between atoms: C_1  and  C_2
REMARK    2  A    between atoms: C_3  and  C_22
REMARK    3  A    between atoms: C_4  and  O_13
REMARK    4  A    between atoms: N_5  and  C_7
REMARK    5  A    between atoms: O_13  and  C_14
REMARK    6  A    between atoms: C_19  and  O_20
REMARK    7  A    between atoms: O_20  and  C_21
REMARK    8  A    between atoms: C_22  and  N_23
REMARK    9  A    between atoms: N_23  and  C_24
REMARK   10  A    between atoms: N_23  and  C_37
REMARK   11  A    between atoms: C_24  and  C_25
REMARK   12  A    between atoms: C_25  and  C_27
REMARK   13  A    between atoms: C_25  and  O_36
REMARK   14  A    between atoms: C_27  and  O_28
REMARK   15  A    between atoms: O_28  and  C_29
REMARK   16  A    between atoms: C_29  and  C_30
REMARK                            x       y       z     vdW  Elec       q    Type
REMARK                         _______ _______ _______ _____ _____    ______ ____
ROOT
ATOM      1  C   UNL     1      -2.084   1.183  -0.548  0.00  0.00    +0.068 C 
ATOM      2  C   UNL     1      -1.531  -0.214  -0.423  0.00  0.00    +0.065 A 
ATOM      3  C   UNL     1      -1.098  -1.019  -1.481  0.00  0.00    +0.021 A 
ATOM      4  C   UNL     1      -0.672  -2.201  -0.959  0.00  0.00    +0.225 A 
ATOM      5  N   UNL     1      -0.836  -2.134   0.389  0.00  0.00    -0.200 N 
ATOM      6  N   UNL     1      -1.371  -0.876   0.694  0.00  0.00    -0.168 NA
ENDROOT
BRANCH   5   7
ATOM      7  C   UNL     1      -0.522  -3.143   1.310  0.00  0.00    +0.069 A 
ATOM      8  C   UNL     1      -0.822  -4.468   1.020  0.00  0.00    +0.028 A 
ATOM      9  C   UNL     1      -0.510  -5.460   1.929  0.00  0.00    +0.002 A 
ATOM     10  C   UNL     1       0.099  -5.135   3.127  0.00  0.00    +0.000 A 
ATOM     11  C   UNL     1       0.399  -3.817   3.419  0.00  0.00    +0.002 A 
ATOM     12  C   UNL     1       0.095  -2.821   2.512  0.00  0.00    +0.028 A 
ENDBRANCH   5   7
BRANCH   4  13
ATOM     13  O   UNL     1      -0.175  -3.253  -1.657  0.00  0.00    -0.434 OA
BRANCH  13  14
ATOM     14  C   UNL     1      -1.057  -4.148  -2.177  0.00  0.00    +0.172 A 
ATOM     15  C   UNL     1      -2.421  -3.940  -2.039  0.00  0.00    +0.050 A 
ATOM     16  C   UNL     1      -3.316  -4.850  -2.569  0.00  0.00    +0.004 A 
ATOM     17  C   UNL     1      -2.855  -5.969  -3.238  0.00  0.00    +0.004 A 
ATOM     18  C   UNL     1      -1.496  -6.183  -3.379  0.00  0.00    +0.049 A 
ATOM     19  C   UNL     1      -0.593  -5.271  -2.855  0.00  0.00    +0.162 A 
BRANCH  19  20
ATOM     20  O   UNL     1       0.743  -5.477  -2.998  0.00  0.00    -0.491 OA
ATOM     21  C   UNL     1       1.147  -6.652  -3.705  0.00  0.00    +0.277 C 
ENDBRANCH  19  20
ENDBRANCH  13  14
ENDBRANCH   4  13
BRANCH   3  22
ATOM     22  C   UNL     1      -1.102  -0.644  -2.941  0.00  0.00    -0.035 C 
BRANCH  22  23
ATOM     23  N   UNL     1       0.174  -0.005  -3.286  0.00  0.00    +0.386 N 
ATOM     24  H   UNL     1       0.336   0.778  -2.670  0.00  0.00    -0.081 HD
BRANCH  23  25
ATOM     25  C   UNL     1       1.265  -0.978  -3.138  0.00  0.00    -0.068 C 
ATOM     26  C   UNL     1       2.217  -0.797  -1.954  0.00  0.00    -0.017 C 
ATOM     27  C   UNL     1       2.692  -0.480  -3.373  0.00  0.00    -0.017 C 
ENDBRANCH  23  25
BRANCH  23  28
ATOM     28  C   UNL     1       0.125   0.468  -4.676  0.00  0.00    -0.044 C 
BRANCH  28  29
ATOM     29  C   UNL     1      -0.209  -0.704  -5.601  0.00  0.00    +0.124 C 
BRANCH  29  30
ATOM     30  O   UNL     1       0.874  -1.636  -5.599  0.00  0.00    -0.391 OA
ATOM     31  H   UNL     1       1.714  -1.264  -5.902  0.00  0.00    +0.210 HD
ENDBRANCH  29  30
BRANCH  29  32
ATOM     32  C   UNL     1      -0.431  -0.183  -7.023  0.00  0.00    +0.189 C 
BRANCH  32  33
ATOM     33  O   UNL     1      -0.857  -1.258  -7.862  0.00  0.00    -0.373 OA
BRANCH  33  34
ATOM     34  C   UNL     1      -1.094  -0.877  -9.219  0.00  0.00    +0.195 C 
BRANCH  34  35
ATOM     35  C   UNL     1      -1.535  -2.082 -10.009  0.00  0.00    -0.022 A 
ATOM     36  C   UNL     1      -0.596  -2.881 -10.635  0.00  0.00    +0.006 A 
ATOM     37  C   UNL     1      -1.001  -3.986 -11.360  0.00  0.00    +0.000 A 
ATOM     38  C   UNL     1      -2.346  -4.293 -11.459  0.00  0.00    +0.000 A 
ATOM     39  C   UNL     1      -3.285  -3.494 -10.833  0.00  0.00    +0.000 A 
ATOM     40  C   UNL     1      -2.879  -2.392 -10.104  0.00  0.00    +0.006 A 
ENDBRANCH  34  35
ENDBRANCH  33  34
ENDBRANCH  32  33
ENDBRANCH  29  32
ENDBRANCH  28  29
ENDBRANCH  23  28
ENDBRANCH  22  23
ENDBRANCH   3  22
TORSDOF 14
