REMARK  Name = ZINC63280203
REMARK  12 active torsions:
REMARK  status: ('A' for Active; 'I' for Inactive)
REMARK    1  A    between atoms: C_1  and  C_2
REMARK    2  A    between atoms: C_3  and  C_17
REMARK    3  A    between atoms: C_5  and  C_7
REMARK    4  A    between atoms: C_10  and  O_15
REMARK    5  A    between atoms: C_11  and  O_13
REMARK    6  A    between atoms: O_13  and  C_14
REMARK    7  A    between atoms: O_15  and  C_16
REMARK    8  A    between atoms: N_19  and  C_20
REMARK    9  A    between atoms: C_20  and  C_21
REMARK   10  A    between atoms: C_21  and  C_22
REMARK   11  A    between atoms: C_25  and  O_31
REMARK   12  A    between atoms: O_31  and  C_32
REMARK                            x       y       z     vdW  Elec       q    Type
REMARK                         _______ _______ _______ _____ _____    ______ ____
ROOT
ATOM      1  C   UNL     1      -0.008  -0.258  -2.570  0.00  0.00    +0.253 C 
ATOM      2  O   UNL     1      -0.026   0.936  -2.806  0.00  0.00    -0.270 OA
ATOM      3  N   UNL     1      -0.001  -1.145  -3.584  0.00  0.00    -0.311 N 
ATOM      4  H   UNL     1       0.014  -2.096  -3.396  0.00  0.00    +0.149 HD
ENDROOT
BRANCH   1   7
ATOM      5  C   UNL     1      -0.018   1.503   0.010  0.00  0.00    +0.067 C 
ATOM      6  C   UNL     1       0.002  -0.004   0.002  0.00  0.00    +0.058 A 
ATOM      7  C   UNL     1       0.006  -0.730  -1.183  0.00  0.00    +0.097 A 
ATOM      8  S   UNL     1       0.032  -2.398  -0.546  0.00  0.00    -0.062 S 
ATOM      9  C   UNL     1       0.035  -2.022   1.094  0.00  0.00    +0.109 A 
ATOM     10  N   UNL     1       0.022  -0.699   1.109  0.00  0.00    -0.243 NA
BRANCH   9  11
ATOM     11  C   UNL     1       0.053  -2.948   2.244  0.00  0.00    +0.011 A 
ATOM     12  C   UNL     1       0.076  -4.328   2.031  0.00  0.00    +0.014 A 
ATOM     13  C   UNL     1       0.093  -5.192   3.106  0.00  0.00    +0.050 A 
ATOM     14  C   UNL     1       0.088  -4.693   4.401  0.00  0.00    +0.162 A 
ATOM     15  C   UNL     1       0.065  -3.317   4.620  0.00  0.00    +0.162 A 
ATOM     16  C   UNL     1       0.053  -2.446   3.547  0.00  0.00    +0.060 A 
BRANCH  15  17
ATOM     17  O   UNL     1       0.058  -2.832   5.891  0.00  0.00    -0.491 OA
ATOM     18  C   UNL     1       0.034  -1.411   6.042  0.00  0.00    +0.277 C 
ENDBRANCH  15  17
BRANCH  14  19
ATOM     19  O   UNL     1       0.105  -5.548   5.457  0.00  0.00    -0.491 OA
ATOM     20  C   UNL     1       0.128  -6.946   5.159  0.00  0.00    +0.277 C 
ENDBRANCH  14  19
ENDBRANCH   9  11
ENDBRANCH   1   7
BRANCH   3  21
ATOM     21  C   UNL     1      -0.015  -0.673  -4.971  0.00  0.00    +0.109 C 
BRANCH  21  22
ATOM     22  C   UNL     1      -0.003  -1.874  -5.919  0.00  0.00    +0.052 C 
BRANCH  22  23
ATOM     23  C   UNL     1      -0.017  -1.388  -7.345  0.00  0.00    -0.040 C 
ATOM     24  C   UNL     1       1.052  -1.205  -8.152  0.00  0.00    +0.002 A 
ATOM     25  C   UNL     1       2.493  -1.395  -7.954  0.00  0.00    +0.055 A 
ATOM     26  C   UNL     1       3.348  -1.122  -8.969  0.00  0.00    +0.121 A 
ATOM     27  C   UNL     1       2.904  -0.659 -10.220  0.00  0.00    +0.047 A 
ATOM     28  C   UNL     1       1.599  -0.454 -10.498  0.00  0.00    +0.029 A 
ATOM     29  C   UNL     1       0.586  -0.717  -9.471  0.00  0.00    +0.043 A 
ATOM     30  N   UNL     1      -0.719  -0.603  -9.478  0.00  0.00    -0.380 N 
ATOM     31  C   UNL     1      -1.231  -1.012  -8.165  0.00  0.00    +0.144 C 
ATOM     32  H   UNL     1      -1.257  -0.303 -10.227  0.00  0.00    +0.160 HD
BRANCH  26  33
ATOM     33  O   UNL     1       4.681  -1.302  -8.771  0.00  0.00    -0.495 OA
ATOM     34  C   UNL     1       5.546  -1.003  -9.867  0.00  0.00    +0.277 C 
ENDBRANCH  26  33
ENDBRANCH  22  23
ENDBRANCH  21  22
ENDBRANCH   3  21
TORSDOF 8
