REMARK  Name = ZINC09505549
REMARK  11 active torsions:
REMARK  status: ('A' for Active; 'I' for Inactive)
REMARK    1  A    between atoms: C_1  and  C_2
REMARK    2  A    between atoms: C_2  and  O_3
REMARK    3  A    between atoms: O_3  and  C_4
REMARK    4  A    between atoms: N_13  and  C_14
REMARK    5  A    between atoms: C_14  and  C_15
REMARK    6  A    between atoms: C_15  and  N_61
REMARK    7  A    between atoms: C_16  and  N_61
REMARK    8  A    between atoms: C_17  and  N_61
REMARK    9  A    between atoms: C_18  and  C_20
REMARK   10  A    between atoms: N_25  and  S_26
REMARK   11  A    between atoms: S_26  and  C_29
REMARK                            x       y       z     vdW  Elec       q    Type
REMARK                         _______ _______ _______ _____ _____    ______ ____
ROOT
ATOM      1  C   UNL     1      -9.655   4.353  -0.970  0.00  0.00    +0.147 A 
ATOM      2  C   UNL     1     -10.966   4.154  -1.337  0.00  0.00    +0.048 A 
ATOM      3  C   UNL     1     -11.810   3.343  -0.592  0.00  0.00    +0.005 A 
ATOM      4  C   UNL     1     -11.325   2.722   0.545  0.00  0.00    +0.017 A 
ATOM      5  C   UNL     1     -10.018   2.915   0.920  0.00  0.00    +0.044 A 
ATOM      6  C   UNL     1      -9.127   3.731   0.190  0.00  0.00    +0.122 A 
ATOM      7  N   UNL     1      -7.875   3.826   0.690  0.00  0.00    -0.221 NA
ATOM      8  C   UNL     1      -7.500   3.194   1.777  0.00  0.00    +0.168 A 
ATOM      9  S   UNL     1      -8.996   2.341   2.256  0.00  0.00    -0.052 S 
ATOM     10  N   UNL     1      -6.261   3.192   2.398  0.00  0.00    -0.251 N 
ATOM     11  C   UNL     1      -5.245   3.908   1.877  0.00  0.00    +0.240 C 
ATOM     12  O   UNL     1      -5.438   4.626   0.920  0.00  0.00    -0.273 OA
ENDROOT
BRANCH  11  13
ATOM     13  C   UNL     1      -3.869   3.814   2.484  0.00  0.00    +0.166 C 
ATOM     14  C   UNL     1      -3.753   4.781   3.682  0.00  0.00    +0.031 C 
ATOM     15  C   UNL     1      -2.310   5.335   3.546  0.00  0.00    +0.019 C 
ATOM     16  C   UNL     1      -2.148   5.407   2.007  0.00  0.00    +0.110 C 
ATOM     17  N   UNL     1      -2.858   4.219   1.497  0.00  0.00    -0.164 NA
BRANCH  17  18
ATOM     18  S   UNL     1      -2.569   3.471   0.048  0.00  0.00    +0.068 S 
ATOM     19  O   UNL     1      -1.976   4.444  -0.801  0.00  0.00    -0.152 OA
ATOM     20  O   UNL     1      -3.764   2.783  -0.299  0.00  0.00    -0.152 OA
BRANCH  18  21
ATOM     21  C   UNL     1      -1.344   2.237   0.334  0.00  0.00    +0.143 A 
ATOM     22  C   UNL     1      -1.506   0.937   0.679  0.00  0.00    +0.036 A 
ATOM     23  C   UNL     1      -0.387   0.146   0.857  0.00  0.00    +0.010 A 
ATOM     24  C   UNL     1       0.840   0.691   0.670  0.00  0.00    +0.047 A 
ATOM     25  S   UNL     1       0.433   2.375   0.237  0.00  0.00    -0.077 S 
ENDBRANCH  18  21
ENDBRANCH  17  18
ENDBRANCH  11  13
BRANCH   1  26
ATOM     26  O   UNL     1      -8.859   5.155  -1.726  0.00  0.00    -0.490 OA
BRANCH  26  28
ATOM     27  C   UNL     1      -8.410   6.614  -3.599  0.00  0.00    +0.048 C 
ATOM     28  C   UNL     1      -9.451   5.753  -2.881  0.00  0.00    +0.226 C 
ENDBRANCH  26  28
ENDBRANCH   1  26
BRANCH  10  29
ATOM     29  C   UNL     1      -6.057   2.413   3.622  0.00  0.00    +0.097 C 
BRANCH  29  30
ATOM     30  C   UNL     1      -6.477   3.247   4.834  0.00  0.00    -0.060 C 
BRANCH  30  33
ATOM     31  C   UNL     1      -4.983   2.074   6.336  0.00  0.00    -0.097 C 
ATOM     32  C   UNL     1      -6.995   3.110   7.195  0.00  0.00    -0.097 C 
ATOM     33  N   UNL     1      -6.394   2.403   6.045  0.00  0.00    +0.377 N 
ATOM     34  H   UNL     1      -6.912   1.532   5.881  0.00  0.00    -0.083 HD
ENDBRANCH  30  33
ENDBRANCH  29  30
ENDBRANCH  10  29
TORSDOF 8
