REMARK  Name = ZINC59280900
REMARK  7 active torsions:
REMARK  status: ('A' for Active; 'I' for Inactive)
REMARK    1  A    between atoms: C_1  and  C_2
REMARK    2  A    between atoms: C_5  and  C_8
REMARK    3  A    between atoms: C_8  and  C_33
REMARK    4  A    between atoms: N_11  and  C_15
REMARK    5  A    between atoms: C_15  and  C_16
REMARK    6  A    between atoms: N_18  and  C_19
REMARK    7  A    between atoms: C_24  and  C_25
REMARK                            x       y       z     vdW  Elec       q    Type
REMARK                         _______ _______ _______ _____ _____    ______ ____
ROOT
ATOM      1  C   UNL     1      -3.934  -5.333   1.607  0.00  0.00    +0.235 C 
ATOM      2  O   UNL     1      -3.936  -4.201   1.174  0.00  0.00    -0.274 OA
ATOM      3  N   UNL     1      -4.985  -5.784   2.321  0.00  0.00    -0.283 N 
ATOM      4  H   UNL     1      -5.022  -6.714   2.595  0.00  0.00    +0.155 HD
ENDROOT
BRANCH   3   5
ATOM      5  C   UNL     1      -6.017  -4.914   2.665  0.00  0.00    +0.047 A 
ATOM      6  C   UNL     1      -5.779  -3.550   2.753  0.00  0.00    +0.044 A 
ATOM      7  C   UNL     1      -6.805  -2.689   3.094  0.00  0.00    +0.043 A 
ATOM      8  C   UNL     1      -8.077  -3.180   3.351  0.00  0.00    +0.021 A 
ATOM      9  C   UNL     1      -8.330  -4.532   3.268  0.00  0.00    +0.016 A 
ATOM     10  C   UNL     1      -7.304  -5.413   2.919  0.00  0.00    +0.058 A 
ATOM     11 CL   UNL     1      -6.501  -0.984   3.202  0.00  0.00    -0.083 Cl
BRANCH  10  12
ATOM     12  C   UNL     1      -7.570  -6.861   2.823  0.00  0.00    +0.248 C 
ATOM     13  O   UNL     1      -7.293  -7.463   1.804  0.00  0.00    -0.270 OA
ATOM     14  N   UNL     1      -8.120  -7.515   3.865  0.00  0.00    -0.297 N 
ATOM     15  C   UNL     1      -8.411  -6.935   5.184  0.00  0.00    +0.108 C 
ATOM     16  C   UNL     1      -9.008  -8.058   6.058  0.00  0.00    +0.020 C 
ATOM     17  C   UNL     1      -8.497  -9.348   5.362  0.00  0.00    +0.020 C 
ATOM     18  C   UNL     1      -8.535  -8.929   3.869  0.00  0.00    +0.108 C 
ENDBRANCH  10  12
ENDBRANCH   3   5
BRANCH   1  19
ATOM     19  C   UNL     1      -2.757  -6.237   1.347  0.00  0.00    +0.214 C 
BRANCH  19  23
ATOM     20  C   UNL     1       0.021  -4.239  -0.096  0.00  0.00    +0.135 C 
ATOM     21  C   UNL     1      -0.754  -4.788   1.085  0.00  0.00    +0.251 C 
ATOM     22  O   UNL     1      -0.522  -4.607   2.261  0.00  0.00    -0.272 OA
ATOM     23  N   UNL     1      -1.755  -5.519   0.556  0.00  0.00    -0.215 N 
ATOM     24  C   UNL     1      -1.720  -5.508  -0.782  0.00  0.00    +0.310 C 
ATOM     25  O   UNL     1      -2.520  -6.095  -1.483  0.00  0.00    -0.252 OA
ATOM     26  N   UNL     1      -0.701  -4.774  -1.263  0.00  0.00    -0.281 N 
ATOM     27  C   UNL     1       1.466  -4.744  -0.078  0.00  0.00    +0.047 C 
ATOM     28  H   UNL     1      -0.483  -4.626  -2.197  0.00  0.00    +0.152 HD
BRANCH  20  33
ATOM     29  C   UNL     1      -0.108   1.538  -0.101  0.00  0.00    +0.044 C 
ATOM     30  C   UNL     1      -0.074   0.032  -0.100  0.00  0.00    -0.050 A 
ATOM     31  C   UNL     1      -0.072  -0.661  -1.296  0.00  0.00    +0.004 A 
ATOM     32  C   UNL     1      -0.041  -2.043  -1.295  0.00  0.00    +0.006 A 
ATOM     33  C   UNL     1      -0.011  -2.732  -0.098  0.00  0.00    -0.015 A 
ATOM     34  C   UNL     1      -0.013  -2.040   1.099  0.00  0.00    +0.006 A 
ATOM     35  C   UNL     1      -0.040  -0.658   1.098  0.00  0.00    +0.004 A 
ENDBRANCH  20  33
ENDBRANCH  19  23
ENDBRANCH   1  19
TORSDOF 5
