REMARK  Name = ZINC12926214
REMARK  8 active torsions:
REMARK  status: ('A' for Active; 'I' for Inactive)
REMARK    1  A    between atoms: C_1  and  N_52
REMARK    2  A    between atoms: C_2  and  C_3
REMARK    3  A    between atoms: C_2  and  N_52
REMARK    4  A    between atoms: C_9  and  C_14
REMARK    5  A    between atoms: C_21  and  C_22
REMARK    6  A    between atoms: C_21  and  N_52
REMARK    7  A    between atoms: N_24  and  C_25
REMARK    8  A    between atoms: C_30  and  C_31
REMARK                            x       y       z     vdW  Elec       q    Type
REMARK                         _______ _______ _______ _____ _____    ______ ____
ROOT
ATOM      1  C   UNL     1       2.450   4.016   0.031  0.00  0.00    -0.003 C 
ENDROOT
BRANCH   1   2
ATOM      2  C   UNL     1       1.138   3.275   0.044  0.00  0.00    +0.094 A 
ATOM      3  N   UNL     1       1.138   1.918   0.047  0.00  0.00    -0.312 N 
ATOM      4  H   UNL     1       1.984   1.442   0.042  0.00  0.00    +0.170 HD
ATOM      5  C   UNL     1      -0.011   1.218   0.058  0.00  0.00    +0.260 A 
ATOM      6  O   UNL     1       0.006  -0.001   0.060  0.00  0.00    -0.267 OA
ATOM      7  C   UNL     1      -1.255   1.927   0.061  0.00  0.00    +0.080 A 
ATOM      8  C   UNL     1      -2.615   1.404   0.080  0.00  0.00    +0.004 A 
ATOM      9  C   UNL     1      -3.650   2.279   0.087  0.00  0.00    +0.056 A 
ATOM     10  S   UNL     1      -2.846   3.869   0.077  0.00  0.00    -0.076 S 
ATOM     11  C   UNL     1      -1.156   3.328   0.063  0.00  0.00    +0.116 A 
ATOM     12  N   UNL     1       0.020   3.950   0.052  0.00  0.00    -0.229 NA
BRANCH   8  13
ATOM     13  C   UNL     1      -2.862  -0.058   0.084  0.00  0.00    -0.016 A 
ATOM     14  C   UNL     1      -2.227  -0.877  -0.848  0.00  0.00    +0.011 A 
ATOM     15  C   UNL     1      -2.457  -2.238  -0.837  0.00  0.00    +0.039 A 
ATOM     16  C   UNL     1      -3.325  -2.788   0.092  0.00  0.00    +0.123 A 
ATOM     17  C   UNL     1      -3.962  -1.978   1.017  0.00  0.00    +0.039 A 
ATOM     18  C   UNL     1      -3.735  -0.617   1.017  0.00  0.00    +0.011 A 
ATOM     19  F   UNL     1      -3.550  -4.120   0.096  0.00  0.00    -0.205 F 
ENDBRANCH   8  13
ENDBRANCH   1   2
BRANCH   1  21
ATOM     20  C   UNL     1       1.567   5.888   1.288  0.00  0.00    -0.095 C 
ATOM     21  N   UNL     1       2.178   5.469   0.009  0.00  0.00    +0.388 N 
ATOM     22  H   UNL     1       1.524   5.673  -0.756  0.00  0.00    -0.081 HD
BRANCH  21  23
ATOM     23  C   UNL     1       3.433   6.215  -0.220  0.00  0.00    +0.019 C 
BRANCH  23  24
ATOM     24  C   UNL     1       3.100   7.665  -0.458  0.00  0.00    +0.201 C 
ATOM     25  O   UNL     1       1.946   8.036  -0.423  0.00  0.00    -0.278 OA
ATOM     26  N   UNL     1       4.085   8.550  -0.710  0.00  0.00    -0.287 N 
ATOM     27  H   UNL     1       5.012   8.267  -0.674  0.00  0.00    +0.155 HD
BRANCH  26  28
ATOM     28  C   UNL     1       3.770   9.877  -1.024  0.00  0.00    +0.045 A 
ATOM     29  C   UNL     1       2.675  10.491  -0.430  0.00  0.00    +0.024 A 
ATOM     30  C   UNL     1       2.369  11.802  -0.739  0.00  0.00    +0.002 A 
ATOM     31  C   UNL     1       3.146  12.500  -1.645  0.00  0.00    +0.001 A 
ATOM     32  C   UNL     1       4.234  11.889  -2.242  0.00  0.00    +0.014 A 
ATOM     33  C   UNL     1       4.548  10.580  -1.934  0.00  0.00    +0.076 A 
BRANCH  33  34
ATOM     34  C   UNL     1       5.732   9.915  -2.586  0.00  0.00    +0.419 C 
ATOM     35  F   UNL     1       6.353  10.817  -3.456  0.00  0.00    -0.166 F 
ATOM     36  F   UNL     1       6.643   9.515  -1.601  0.00  0.00    -0.166 F 
ATOM     37  F   UNL     1       5.302   8.795  -3.305  0.00  0.00    -0.166 F 
ENDBRANCH  33  34
ENDBRANCH  26  28
ENDBRANCH  23  24
ENDBRANCH  21  23
ENDBRANCH   1  21
TORSDOF 7
