REMARK  Name = ZINC40732408
REMARK  7 active torsions:
REMARK  status: ('A' for Active; 'I' for Inactive)
REMARK    1  A    between atoms: C_1  and  C_2
REMARK    2  A    between atoms: C_4  and  O_10
REMARK    3  A    between atoms: C_6  and  C_9
REMARK    4  A    between atoms: O_10  and  C_11
REMARK    5  A    between atoms: C_12  and  N_25
REMARK    6  A    between atoms: C_13  and  N_17
REMARK    7  A    between atoms: C_22  and  C_24
REMARK                            x       y       z     vdW  Elec       q    Type
REMARK                         _______ _______ _______ _____ _____    ______ ____
ROOT
ATOM      1  C   UNL     1       0.092  -4.065  -2.390  0.00  0.00    +0.246 A 
ATOM      2  C   UNL     1       0.219  -4.811  -3.561  0.00  0.00    +0.128 A 
ATOM      3  C   UNL     1       0.392  -6.193  -3.448  0.00  0.00    +0.149 A 
ATOM      4  N   UNL     1       0.427  -6.740  -2.236  0.00  0.00    -0.219 NA
ATOM      5  C   UNL     1       0.302  -5.997  -1.154  0.00  0.00    +0.227 A 
ATOM      6  N   UNL     1       0.143  -4.691  -1.219  0.00  0.00    -0.199 NA
ENDROOT
BRANCH   3   7
ATOM      7  N   UNL     1       0.523  -6.983  -4.583  0.00  0.00    -0.311 N 
ATOM      8  C   UNL     1       1.840  -7.192  -5.201  0.00  0.00    +0.107 C 
ATOM      9  C   UNL     1       2.087  -8.697  -5.338  0.00  0.00    +0.019 C 
ATOM     10  C   UNL     1       0.925  -9.334  -6.104  0.00  0.00    +0.003 C 
ATOM     11  C   UNL     1      -0.376  -9.127  -5.325  0.00  0.00    +0.022 C 
ATOM     12  C   UNL     1      -0.650  -7.631  -5.184  0.00  0.00    +0.072 C 
ATOM     13  C   UNL     1      -1.870  -7.418  -4.286  0.00  0.00    +0.028 C 
ENDBRANCH   3   7
BRANCH   2  14
ATOM     14  N   UNL     1       0.176  -4.191  -4.820  0.00  0.00    -0.351 N 
ATOM     15  H   UNL     1       0.132  -3.224  -4.883  0.00  0.00    +0.143 HD
ATOM     16  H   UNL     1       0.189  -4.729  -5.627  0.00  0.00    +0.143 HD
ENDBRANCH   2  14
BRANCH   1  17
ATOM     17  O   UNL     1      -0.077  -2.720  -2.446  0.00  0.00    -0.436 OA
BRANCH  17  21
ATOM     18  C   UNL     1       2.349  -0.790   1.324  0.00  0.00    +0.045 C 
ATOM     19  C   UNL     1       1.063  -1.071   0.590  0.00  0.00    -0.028 A 
ATOM     20  C   UNL     1       1.087  -1.772  -0.600  0.00  0.00    +0.051 A 
ATOM     21  C   UNL     1      -0.098  -2.031  -1.275  0.00  0.00    +0.131 A 
ATOM     22  C   UNL     1      -1.303  -1.584  -0.753  0.00  0.00    +0.051 A 
ATOM     23  C   UNL     1      -1.322  -0.883   0.437  0.00  0.00    -0.028 A 
ATOM     24  C   UNL     1      -0.140  -0.632   1.112  0.00  0.00    +0.047 A 
ATOM     25 CL   UNL     1      -0.168   0.243   2.611  0.00  0.00    -0.083 Cl
ATOM     26  C   UNL     1      -2.631  -0.398   1.004  0.00  0.00    +0.045 C 
ENDBRANCH  17  21
ENDBRANCH   1  17
TORSDOF 4
