REMARK  Name = ZINC04213653
REMARK  7 active torsions:
REMARK  status: ('A' for Active; 'I' for Inactive)
REMARK    1  A    between atoms: C_3  and  O_25
REMARK    2  A    between atoms: C_4  and  O_24
REMARK    3  A    between atoms: C_6  and  C_7
REMARK    4  A    between atoms: C_9  and  O_23
REMARK    5  A    between atoms: C_11  and  O_22
REMARK    6  A    between atoms: C_14  and  O_21
REMARK    7  A    between atoms: C_16  and  O_20
REMARK                            x       y       z     vdW  Elec       q    Type
REMARK                         _______ _______ _______ _____ _____    ______ ____
ROOT
ATOM      1  C   UNL     1       3.541   1.778  -0.380  0.00  0.00    +0.235 C 
ATOM      2  C   UNL     1       3.612   3.087   0.416  0.00  0.00    +0.193 C 
ATOM      3  C   UNL     1       2.439   3.973  -0.011  0.00  0.00    +0.184 C 
ATOM      4  C   UNL     1       1.164   3.168   0.004  0.00  0.00    +0.067 A 
ATOM      5  C   UNL     1      -0.052   3.843   0.020  0.00  0.00    +0.130 A 
ATOM      6  C   UNL     1      -1.243   3.136   0.029  0.00  0.00    +0.091 A 
ATOM      7  C   UNL     1      -1.223   1.749   0.017  0.00  0.00    +0.124 A 
ATOM      8  C   UNL     1      -0.013   1.076   0.008  0.00  0.00    +0.091 A 
ATOM      9  C   UNL     1       1.184   1.785   0.000  0.00  0.00    +0.134 A 
ATOM     10  O   UNL     1       2.350   1.086  -0.004  0.00  0.00    -0.481 OA
ENDROOT
BRANCH   1  16
ATOM     11  C   UNL     1       4.733   0.102   1.046  0.00  0.00    +0.011 A 
ATOM     12  C   UNL     1       5.832  -0.685   1.337  0.00  0.00    +0.049 A 
ATOM     13  C   UNL     1       6.951  -0.641   0.522  0.00  0.00    +0.158 A 
ATOM     14  C   UNL     1       6.964   0.193  -0.592  0.00  0.00    +0.159 A 
ATOM     15  C   UNL     1       5.858   0.975  -0.881  0.00  0.00    +0.056 A 
ATOM     16  C   UNL     1       4.744   0.926  -0.064  0.00  0.00    -0.001 A 
BRANCH  14  17
ATOM     17  O   UNL     1       8.061   0.241  -1.395  0.00  0.00    -0.503 OA
ATOM     18  H   UNL     1       8.711   0.907  -1.134  0.00  0.00    +0.292 HD
ENDBRANCH  14  17
BRANCH  13  19
ATOM     19  O   UNL     1       8.035  -1.411   0.810  0.00  0.00    -0.503 OA
ATOM     20  H   UNL     1       8.681  -0.980   1.386  0.00  0.00    +0.292 HD
ENDBRANCH  13  19
ENDBRANCH   1  16
BRANCH   7  21
ATOM     21  O   UNL     1      -2.389   1.051   0.019  0.00  0.00    -0.507 OA
ATOM     22  H   UNL     1      -2.723   0.845   0.903  0.00  0.00    +0.292 HD
ENDBRANCH   7  21
BRANCH   5  23
ATOM     23  O   UNL     1      -0.071   5.201   0.027  0.00  0.00    -0.506 OA
ATOM     24  H   UNL     1      -0.087   5.599  -0.855  0.00  0.00    +0.292 HD
ENDBRANCH   5  23
BRANCH   3  25
ATOM     25  O   UNL     1       2.673   4.468  -1.331  0.00  0.00    -0.384 OA
ATOM     26  H   UNL     1       1.969   5.041  -1.666  0.00  0.00    +0.210 HD
ENDBRANCH   3  25
BRANCH   2  27
ATOM     27  O   UNL     1       4.845   3.755   0.138  0.00  0.00    -0.385 OA
ATOM     28  H   UNL     1       4.947   4.600   0.596  0.00  0.00    +0.210 HD
ENDBRANCH   2  27
TORSDOF 7
