REMARK  Name = ZINC35702223
REMARK  10 active torsions:
REMARK  status: ('A' for Active; 'I' for Inactive)
REMARK    1  A    between atoms: C_1  and  C_2
REMARK    2  A    between atoms: C_3  and  C_32
REMARK    3  A    between atoms: C_4  and  C_25
REMARK    4  A    between atoms: C_7  and  C_12
REMARK    5  A    between atoms: C_13  and  N_15
REMARK    6  A    between atoms: N_15  and  C_16
REMARK    7  A    between atoms: C_16  and  C_18
REMARK    8  A    between atoms: C_16  and  C_19
REMARK    9  A    between atoms: N_34  and  C_35
REMARK   10  A    between atoms: N_34  and  C_36
REMARK                            x       y       z     vdW  Elec       q    Type
REMARK                         _______ _______ _______ _____ _____    ______ ____
ROOT
ATOM      1  C   UNL     1      -0.246   1.182   0.305  0.00  0.00    +0.066 C 
ATOM      2  C   UNL     1      -0.173  -0.322   0.249  0.00  0.00    +0.051 C 
ATOM      3  C   UNL     1      -1.334  -1.061   0.143  0.00  0.00    +0.060 C 
ATOM      4  C   UNL     1      -1.209  -2.567   0.089  0.00  0.00    +0.148 C 
ATOM      5  N   UNL     1       0.163  -3.135   0.156  0.00  0.00    -0.267 N 
ATOM      6  C   UNL     1       0.513  -4.471   0.124  0.00  0.00    +0.048 C 
ATOM      7  C   UNL     1       1.827  -4.777   0.198  0.00  0.00    +0.072 C 
ATOM      8  S   UNL     1       2.575  -3.164   0.313  0.00  0.00    -0.060 S 
ATOM      9  C   UNL     1       1.182  -2.230   0.260  0.00  0.00    +0.166 C 
ATOM     10  N   UNL     1       1.004  -0.926   0.296  0.00  0.00    -0.230 NA
ENDROOT
BRANCH   4  11
ATOM     11  C   UNL     1      -2.004  -3.139   1.235  0.00  0.00    -0.022 A 
ATOM     12  C   UNL     1      -1.512  -3.058   2.525  0.00  0.00    +0.008 A 
ATOM     13  C   UNL     1      -2.240  -3.582   3.576  0.00  0.00    +0.038 A 
ATOM     14  C   UNL     1      -3.462  -4.188   3.338  0.00  0.00    +0.123 A 
ATOM     15  C   UNL     1      -3.953  -4.268   2.046  0.00  0.00    +0.038 A 
ATOM     16  C   UNL     1      -3.226  -3.739   0.997  0.00  0.00    +0.008 A 
ATOM     17  F   UNL     1      -4.174  -4.700   4.365  0.00  0.00    -0.205 F 
ENDBRANCH   4  11
BRANCH   3  18
ATOM     18  C   UNL     1      -2.588  -0.435   0.086  0.00  0.00    +0.246 C 
ATOM     19  O   UNL     1      -3.309  -0.425   1.069  0.00  0.00    -0.270 OA
ATOM     20  N   UNL     1      -2.996   0.155  -1.055  0.00  0.00    -0.304 N 
ATOM     21  C   UNL     1      -4.247   0.918  -1.078  0.00  0.00    +0.132 C 
ATOM     22  C   UNL     1      -2.189   0.035  -2.271  0.00  0.00    +0.132 C 
ENDBRANCH   3  18
BRANCH   6  23
ATOM     23  C   UNL     1      -0.509  -5.523   0.015  0.00  0.00    +0.091 C 
ATOM     24  C   UNL     1      -0.154  -6.818   0.110  0.00  0.00    +0.239 C 
ATOM     25  O   UNL     1       1.155  -7.158   0.197  0.00  0.00    -0.271 OA
BRANCH  24  26
ATOM     26  N   UNL     1      -1.127  -7.804   0.118  0.00  0.00    -0.305 N 
ATOM     27  H   UNL     1      -2.058  -7.567  -0.017  0.00  0.00    +0.150 HD
BRANCH  26  28
ATOM     28  C   UNL     1      -0.750  -9.203   0.331  0.00  0.00    +0.100 C 
ATOM     29  C   UNL     1      -0.232  -9.797  -0.981  0.00  0.00    +0.033 C 
BRANCH  28  30
ATOM     30  C   UNL     1      -1.954  -9.983   0.793  0.00  0.00    -0.027 A 
ATOM     31  C   UNL     1      -3.192  -9.742   0.228  0.00  0.00    +0.005 A 
ATOM     32  C   UNL     1      -4.297 -10.457   0.653  0.00  0.00    +0.000 A 
ATOM     33  C   UNL     1      -4.163 -11.414   1.641  0.00  0.00    +0.000 A 
ATOM     34  C   UNL     1      -2.924 -11.655   2.206  0.00  0.00    +0.000 A 
ATOM     35  C   UNL     1      -1.819 -10.943   1.778  0.00  0.00    +0.005 A 
ENDBRANCH  28  30
ENDBRANCH  26  28
ENDBRANCH  24  26
ENDBRANCH   6  23
TORSDOF 6
