REMARK  Name = ZINC33759328
REMARK  9 active torsions:
REMARK  status: ('A' for Active; 'I' for Inactive)
REMARK    1  A    between atoms: C_1  and  C_2
REMARK    2  A    between atoms: C_2  and  N_3
REMARK    3  A    between atoms: C_8  and  C_22
REMARK    4  A    between atoms: C_11  and  C_16
REMARK    5  A    between atoms: C_11  and  C_19
REMARK    6  A    between atoms: C_16  and  C_17
REMARK    7  A    between atoms: C_16  and  C_18
REMARK    8  A    between atoms: C_26  and  O_28
REMARK    9  A    between atoms: O_28  and  C_29
REMARK                            x       y       z     vdW  Elec       q    Type
REMARK                         _______ _______ _______ _____ _____    ______ ____
ROOT
ATOM      1  N   UNL     1       0.304  -3.951  -0.373  0.00  0.00    -0.242 N 
ATOM      2  C   UNL     1       1.642  -3.767  -0.161  0.00  0.00    +0.224 C 
ATOM      3  O   UNL     1       2.495  -4.625  -0.078  0.00  0.00    -0.275 OA
ATOM      4  C   UNL     1       1.835  -2.279  -0.053  0.00  0.00    +0.077 C 
ATOM      5  C   UNL     1       3.014  -1.620  -0.780  0.00  0.00    -0.027 C 
ATOM      6  N   UNL     1       2.448  -0.288  -1.185  0.00  0.00    +0.396 N 
ATOM      7  C   UNL     1       0.963  -0.457  -1.323  0.00  0.00    +0.050 C 
ATOM      8  C   UNL     1       0.739  -1.898  -1.129  0.00  0.00    +0.086 C 
ATOM      9  C   UNL     1      -0.332  -2.803  -0.773  0.00  0.00    +0.225 C 
ATOM     10  O   UNL     1      -1.525  -2.594  -0.819  0.00  0.00    -0.275 OA
ATOM     11  H   UNL     1       2.681   0.459  -0.412  0.00  0.00    -0.083 HD
ATOM     12  H   UNL     1       2.891   0.023  -2.142  0.00  0.00    -0.083 HD
ENDROOT
BRANCH   5  13
ATOM     13  C   UNL     1       4.185  -1.442   0.151  0.00  0.00    -0.057 A 
ATOM     14  C   UNL     1       4.172  -0.429   1.092  0.00  0.00    +0.002 A 
ATOM     15  C   UNL     1       5.242  -0.267   1.952  0.00  0.00    +0.004 A 
ATOM     16  C   UNL     1       6.333  -1.110   1.865  0.00  0.00    +0.046 A 
ATOM     17  C   UNL     1       6.351  -2.124   0.918  0.00  0.00    +0.130 A 
ATOM     18  C   UNL     1       5.273  -2.288   0.060  0.00  0.00    +0.048 A 
BRANCH  17  19
ATOM     19  O   UNL     1       7.423  -2.955   0.831  0.00  0.00    -0.406 OA
BRANCH  19  20
ATOM     20  C   UNL     1       8.497  -2.727   1.746  0.00  0.00    +0.575 C 
ATOM     21  F   UNL     1       8.027  -2.856   3.057  0.00  0.00    -0.133 F 
ATOM     22  F   UNL     1       9.510  -3.665   1.519  0.00  0.00    -0.133 F 
ATOM     23  F   UNL     1       9.005  -1.438   1.556  0.00  0.00    -0.133 F 
ENDBRANCH  19  20
ENDBRANCH  17  19
ENDBRANCH   5  13
BRANCH   7  24
ATOM     24  C   UNL     1       0.231   0.349  -0.248  0.00  0.00    -0.017 C 
ATOM     25  C   UNL     1      -1.278   0.143  -0.396  0.00  0.00    +0.006 C 
ATOM     26  C   UNL     1       0.561   1.834  -0.410  0.00  0.00    +0.006 C 
ENDBRANCH   7  24
BRANCH   7  27
ATOM     27  C   UNL     1       0.510  -0.034  -2.697  0.00  0.00    +0.346 C 
ATOM     28  O   UNL     1      -0.358  -0.653  -3.264  0.00  0.00    -0.248 OA
ATOM     29  O   UNL     1       1.073   1.031  -3.291  0.00  0.00    -0.248 OA
ENDBRANCH   7  27
BRANCH   1  31
ATOM     30  C   UNL     1      -0.878  -5.349   1.249  0.00  0.00    +0.025 C 
ATOM     31  C   UNL     1      -0.376  -5.236  -0.192  0.00  0.00    +0.113 C 
ENDBRANCH   1  31
TORSDOF 6
