REMARK  Name = ZINC02298358
REMARK  6 active torsions:
REMARK  status: ('A' for Active; 'I' for Inactive)
REMARK    1  A    between atoms: C_4  and  C_7
REMARK    2  A    between atoms: C_10  and  C_32
REMARK    3  A    between atoms: N_11  and  C_12
REMARK    4  A    between atoms: C_15  and  C_18
REMARK    5  A    between atoms: N_20  and  N_21
REMARK    6  A    between atoms: C_22  and  C_23
REMARK                            x       y       z     vdW  Elec       q    Type
REMARK                         _______ _______ _______ _____ _____    ______ ____
ROOT
ATOM      1  C   UNL     1       3.178   4.745   0.630  0.00  0.00    +0.047 A 
ATOM      2  C   UNL     1       2.152   5.152  -0.215  0.00  0.00    +0.027 A 
ATOM      3  C   UNL     1       1.348   6.214   0.137  0.00  0.00    +0.015 A 
ATOM      4  C   UNL     1       1.573   6.889   1.340  0.00  0.00    +0.038 A 
ATOM      5  C   UNL     1       2.609   6.480   2.184  0.00  0.00    +0.015 A 
ATOM      6  C   UNL     1       3.405   5.414   1.828  0.00  0.00    +0.027 A 
ENDROOT
BRANCH   1  11
ATOM      7  C   UNL     1       4.908   3.652  -0.748  0.00  0.00    +0.054 A 
ATOM      8  C   UNL     1       5.497   2.421  -0.773  0.00  0.00    +0.029 A 
ATOM      9  C   UNL     1       4.924   1.654   0.247  0.00  0.00    +0.029 A 
ATOM     10  C   UNL     1       3.996   2.431   0.878  0.00  0.00    +0.054 A 
ATOM     11  N   UNL     1       3.987   3.664   0.272  0.00  0.00    -0.309 N 
BRANCH   7  15
ATOM     12  C   UNL     1       5.784   6.889  -3.353  0.00  0.00    +0.000 A 
ATOM     13  C   UNL     1       5.180   7.132  -2.132  0.00  0.00    +0.001 A 
ATOM     14  C   UNL     1       4.893   6.085  -1.281  0.00  0.00    +0.010 A 
ATOM     15  C   UNL     1       5.212   4.778  -1.654  0.00  0.00    -0.001 A 
ATOM     16  C   UNL     1       5.821   4.540  -2.888  0.00  0.00    +0.010 A 
ATOM     17  C   UNL     1       6.103   5.596  -3.730  0.00  0.00    +0.001 A 
ENDBRANCH   7  15
BRANCH  10  18
ATOM     18  C   UNL     1       3.152   2.019   2.019  0.00  0.00    -0.001 A 
ATOM     19  C   UNL     1       1.975   2.714   2.307  0.00  0.00    +0.010 A 
ATOM     20  C   UNL     1       1.188   2.320   3.369  0.00  0.00    +0.001 A 
ATOM     21  C   UNL     1       1.569   1.248   4.157  0.00  0.00    +0.000 A 
ATOM     22  C   UNL     1       2.737   0.559   3.880  0.00  0.00    +0.001 A 
ATOM     23  C   UNL     1       3.530   0.938   2.817  0.00  0.00    +0.010 A 
ENDBRANCH  10  18
ENDBRANCH   1  11
BRANCH   4  24
ATOM     24  C   UNL     1       0.718   8.031   1.718  0.00  0.00    +0.263 C 
ATOM     25  O   UNL     1       0.915   8.618   2.765  0.00  0.00    -0.268 OA
ATOM     26  N   UNL     1      -0.280   8.424   0.903  0.00  0.00    -0.203 N 
ATOM     27  H   UNL     1      -0.437   7.957   0.068  0.00  0.00    +0.178 HD
BRANCH  26  28
ATOM     28  N   UNL     1      -1.092   9.509   1.261  0.00  0.00    -0.187 NA
ATOM     29  C   UNL     1      -2.054   9.887   0.476  0.00  0.00    +0.138 C 
BRANCH  29  30
ATOM     30  C   UNL     1      -2.907  11.028   0.854  0.00  0.00    -0.002 A 
ATOM     31  C   UNL     1      -2.686  11.700   2.059  0.00  0.00    +0.013 A 
ATOM     32  C   UNL     1      -3.483  12.770   2.408  0.00  0.00    +0.050 A 
ATOM     33  C   UNL     1      -4.512  13.177   1.570  0.00  0.00    +0.166 A 
ATOM     34  C   UNL     1      -4.741  12.508   0.368  0.00  0.00    +0.167 A 
ATOM     35  C   UNL     1      -3.943  11.438   0.010  0.00  0.00    +0.059 A 
ATOM     36  O   UNL     1      -5.798  13.097  -0.264  0.00  0.00    -0.453 OA
ATOM     37  C   UNL     1      -5.953  14.383   0.363  0.00  0.00    +0.466 C 
ATOM     38  O   UNL     1      -5.426  14.184   1.688  0.00  0.00    -0.453 OA
ENDBRANCH  29  30
ENDBRANCH  26  28
ENDBRANCH   4  24
TORSDOF 6
