REMARK  Name = ZINC11340487
REMARK  5 active torsions:
REMARK  status: ('A' for Active; 'I' for Inactive)
REMARK    1  A    between atoms: C_5  and  C_7
REMARK    2  A    between atoms: C_7  and  S_8
REMARK    3  A    between atoms: S_8  and  C_9
REMARK    4  A    between atoms: C_16  and  C_26
REMARK    5  A    between atoms: C_30  and  O_32
REMARK                            x       y       z     vdW  Elec       q    Type
REMARK                         _______ _______ _______ _____ _____    ______ ____
ROOT
ATOM      1  C   UNL     1       1.275  -4.553   1.506  0.00  0.00    +0.194 A 
ATOM      2  N   UNL     1       1.290  -5.313   2.594  0.00  0.00    -0.206 NA
ATOM      3  C   UNL     1       1.306  -6.638   2.491  0.00  0.00    +0.135 A 
ATOM      4  C   UNL     1       1.301  -7.223   1.231  0.00  0.00    +0.071 A 
ATOM      5  C   UNL     1       1.288  -6.396   0.114  0.00  0.00    +0.280 A 
ATOM      6  N   UNL     1       1.270  -5.078   0.289  0.00  0.00    -0.183 NA
ATOM      7  O   UNL     1       1.288  -6.925  -1.134  0.00  0.00    -0.265 OA
ATOM      8  C   UNL     1       1.306  -8.714   1.080  0.00  0.00    +0.093 C 
ATOM      9  C   UNL     1       1.746  -9.394   2.352  0.00  0.00    +0.024 C 
ATOM     10  C   UNL     1       2.165 -10.733   2.267  0.00  0.00    +0.162 C 
ATOM     11  C   UNL     1       2.597 -11.497   3.488  0.00  0.00    +0.080 C 
ATOM     12  C   UNL     1       1.874 -10.926   4.713  0.00  0.00    +0.014 C 
ATOM     13  C   UNL     1       2.184  -9.430   4.803  0.00  0.00    +0.051 C 
ATOM     14  C   UNL     1       1.739  -8.743   3.535  0.00  0.00    +0.017 C 
ATOM     15  N   UNL     1       1.331  -7.439   3.619  0.00  0.00    -0.302 N 
ATOM     16  O   UNL     1       2.177 -11.285   1.184  0.00  0.00    -0.292 OA
ATOM     17  H   UNL     1       1.059  -7.074   4.476  0.00  0.00    +0.153 HD
ENDROOT
BRANCH   8  18
ATOM     18  C   UNL     1      -0.084  -9.179   0.729  0.00  0.00    -0.032 A 
ATOM     19  C   UNL     1      -1.135  -8.924   1.590  0.00  0.00    +0.005 A 
ATOM     20  C   UNL     1      -2.411  -9.349   1.271  0.00  0.00    +0.004 A 
ATOM     21  C   UNL     1      -2.639 -10.031   0.091  0.00  0.00    +0.045 A 
ATOM     22  C   UNL     1      -1.586 -10.288  -0.774  0.00  0.00    +0.117 A 
ATOM     23  C   UNL     1      -0.307  -9.855  -0.455  0.00  0.00    +0.050 A 
BRANCH  22  24
ATOM     24  O   UNL     1      -1.808 -10.958  -1.935  0.00  0.00    -0.507 OA
ATOM     25  H   UNL     1      -2.024 -10.386  -2.684  0.00  0.00    +0.292 HD
ENDBRANCH  22  24
ENDBRANCH   8  18
BRANCH   1  26
ATOM     26  S   UNL     1       1.253  -2.800   1.685  0.00  0.00    -0.081 S 
BRANCH  26  27
ATOM     27  C   UNL     1       1.228  -2.186  -0.022  0.00  0.00    +0.115 C 
BRANCH  27  32
ATOM     28  C   UNL     1      -0.017   1.378   0.010  0.00  0.00    +0.000 A 
ATOM     29  C   UNL     1       1.171   2.087   0.002  0.00  0.00    +0.003 A 
ATOM     30  C   UNL     1       2.377   1.414  -0.013  0.00  0.00    +0.038 A 
ATOM     31  C   UNL     1       2.397   0.029  -0.021  0.00  0.00    +0.127 A 
ATOM     32  C   UNL     1       1.208  -0.679  -0.013  0.00  0.00    -0.002 A 
ATOM     33  C   UNL     1       0.002  -0.004   0.002  0.00  0.00    +0.007 A 
ATOM     34  F   UNL     1       3.577  -0.630  -0.036  0.00  0.00    -0.205 F 
ENDBRANCH  27  32
ENDBRANCH  26  27
ENDBRANCH   1  26
TORSDOF 5
