REMARK  Name = ZINC11423175
REMARK  9 active torsions:
REMARK  status: ('A' for Active; 'I' for Inactive)
REMARK    1  A    between atoms: C_1  and  C_2
REMARK    2  A    between atoms: N_6  and  C_14
REMARK    3  A    between atoms: C_14  and  C_15
REMARK    4  A    between atoms: C_15  and  C_16
REMARK    5  A    between atoms: N_18  and  C_19
REMARK    6  A    between atoms: C_21  and  C_26
REMARK    7  A    between atoms: C_21  and  C_27
REMARK    8  A    between atoms: C_22  and  C_24
REMARK    9  A    between atoms: C_22  and  C_25
REMARK                            x       y       z     vdW  Elec       q    Type
REMARK                         _______ _______ _______ _____ _____    ______ ____
ROOT
ATOM      1  C   UNL     1       5.917   1.796  -0.578  0.00  0.00    +0.215 C 
ATOM      2  O   UNL     1       6.283   2.493   0.344  0.00  0.00    -0.276 OA
ATOM      3  N   UNL     1       6.773   1.493  -1.575  0.00  0.00    -0.313 N 
ATOM      4  H   UNL     1       6.480   0.935  -2.313  0.00  0.00    +0.149 HD
ENDROOT
BRANCH   3   5
ATOM      5  C   UNL     1       8.148   2.006  -1.543  0.00  0.00    +0.070 C 
ATOM      6  C   UNL     1       8.177   3.406  -2.158  0.00  0.00    +0.009 C 
ATOM      7  C   UNL     1       9.601   3.957  -2.159  0.00  0.00    -0.072 C 
ATOM      8  C   UNL     1      10.481   1.615  -2.377  0.00  0.00    -0.072 C 
ATOM      9  C   UNL     1       9.046   1.092  -2.375  0.00  0.00    +0.009 C 
ATOM     10  C   UNL     1      11.138   1.314  -1.025  0.00  0.00    -0.010 C 
ATOM     11  C   UNL     1      11.262   0.825  -3.451  0.00  0.00    -0.010 C 
ATOM     12  C   UNL     1       9.983   4.392  -0.740  0.00  0.00    -0.010 C 
ATOM     13  C   UNL     1       9.608   5.224  -3.043  0.00  0.00    -0.010 C 
ATOM     14  N   UNL     1      10.624   3.049  -2.745  0.00  0.00    +0.386 N 
ATOM     15  H   UNL     1      11.548   3.367  -2.430  0.00  0.00    -0.084 HD
ATOM     16  H   UNL     1      10.566   3.122  -3.767  0.00  0.00    -0.084 HD
ENDBRANCH   3   5
BRANCH   1  17
ATOM     17  C   UNL     1       4.506   1.268  -0.611  0.00  0.00    +0.115 C 
BRANCH  17  18
ATOM     18  C   UNL     1       3.751   1.756   0.627  0.00  0.00    +0.123 C 
BRANCH  18  23
ATOM     19  C   UNL     1      -0.758   1.932  -1.229  0.00  0.00    +0.062 C 
ATOM     20  C   UNL     1      -0.017   1.426   0.010  0.00  0.00    +0.256 C 
ATOM     21  C   UNL     1       1.395   1.952  -0.001  0.00  0.00    +0.260 C 
ATOM     22  O   UNL     1       1.648   3.007  -0.542  0.00  0.00    -0.271 OA
ATOM     23  N   UNL     1       2.379   1.243   0.596  0.00  0.00    -0.265 N 
ATOM     24  C   UNL     1       2.066   0.009   1.184  0.00  0.00    +0.078 A 
ATOM     25  C   UNL     1       2.944  -0.596   2.068  0.00  0.00    +0.027 A 
ATOM     26  C   UNL     1       2.617  -1.814   2.635  0.00  0.00    +0.002 A 
ATOM     27  C   UNL     1       1.417  -2.428   2.323  0.00  0.00    +0.004 A 
ATOM     28  C   UNL     1       0.536  -1.827   1.442  0.00  0.00    +0.047 A 
ATOM     29  C   UNL     1       0.857  -0.609   0.870  0.00  0.00    +0.143 A 
ATOM     30  O   UNL     1       0.002  -0.004   0.002  0.00  0.00    -0.478 OA
ENDBRANCH  18  23
ENDBRANCH  17  18
ENDBRANCH   1  17
TORSDOF 4
