REMARK  Name = ZINC28056038
REMARK  5 active torsions:
REMARK  status: ('A' for Active; 'I' for Inactive)
REMARK    1  A    between atoms: C_1  and  C_2
REMARK    2  A    between atoms: C_10  and  C_18
REMARK    3  A    between atoms: C_21  and  O_24
REMARK    4  A    between atoms: O_24  and  C_25
REMARK    5  A    between atoms: C_26  and  C_29
REMARK                            x       y       z     vdW  Elec       q    Type
REMARK                         _______ _______ _______ _____ _____    ______ ____
ROOT
ATOM      1  C   UNL     1       1.119   6.333  -0.488  0.00  0.00    +0.044 C 
ATOM      2  C   UNL     1       0.196   5.146  -0.392  0.00  0.00    -0.050 A 
ATOM      3  C   UNL     1       0.719   3.864  -0.403  0.00  0.00    +0.007 A 
ATOM      4  C   UNL     1      -0.116   2.764  -0.317  0.00  0.00    +0.046 A 
ATOM      5  C   UNL     1      -1.483   2.946  -0.226  0.00  0.00    +0.131 A 
ATOM      6  C   UNL     1      -2.013   4.243  -0.205  0.00  0.00    +0.038 A 
ATOM      7  C   UNL     1      -1.168   5.342  -0.293  0.00  0.00    +0.016 A 
ATOM      8  C   UNL     1      -3.482   4.400  -0.089  0.00  0.00    +0.050 C 
ATOM      9  C   UNL     1      -4.256   3.346  -0.372  0.00  0.00    +0.025 C 
ATOM     10  C   UNL     1      -5.761   3.405  -0.285  0.00  0.00    +0.174 C 
ATOM     11  N   UNL     1      -6.173   4.619   0.430  0.00  0.00    -0.201 N 
ATOM     12  C   UNL     1      -5.343   5.665   0.683  0.00  0.00    +0.240 A 
ATOM     13  N   UNL     1      -6.040   6.574   1.300  0.00  0.00    -0.092 NA
ATOM     14  N   UNL     1      -7.255   6.172   1.461  0.00  0.00    -0.021 NA
ATOM     15  N   UNL     1      -7.409   4.990   0.958  0.00  0.00    -0.042 NA
ATOM     16  N   UNL     1      -4.011   5.636   0.301  0.00  0.00    -0.282 N 
ATOM     17  C   UNL     1      -3.608   2.044  -0.785  0.00  0.00    +0.235 C 
ATOM     18  O   UNL     1      -2.337   1.894  -0.152  0.00  0.00    -0.479 OA
ATOM     19  H   UNL     1      -3.375   6.534   0.296  0.00  0.00    +0.155 HD
ENDROOT
BRANCH  17  20
ATOM     20  C   UNL     1      -3.422   2.035  -2.281  0.00  0.00    +0.015 A 
ATOM     21  C   UNL     1      -2.426   2.800  -2.859  0.00  0.00    +0.010 A 
ATOM     22  C   UNL     1      -2.252   2.787  -4.229  0.00  0.00    +0.020 A 
ATOM     23  C   UNL     1      -3.082   2.018  -5.026  0.00  0.00    +0.042 A 
ATOM     24  C   UNL     1      -4.082   1.256  -4.449  0.00  0.00    +0.040 A 
ATOM     25  C   UNL     1      -4.253   1.265  -3.076  0.00  0.00    +0.049 A 
ATOM     26 CL   UNL     1      -5.508   0.310  -2.351  0.00  0.00    -0.083 Cl
ATOM     27 CL   UNL     1      -2.867   2.007  -6.748  0.00  0.00    -0.083 Cl
ENDBRANCH  17  20
BRANCH  10  28
ATOM     28  C   UNL     1      -6.343   3.398  -1.676  0.00  0.00    -0.018 A 
ATOM     29  C   UNL     1      -5.883   4.297  -2.621  0.00  0.00    +0.009 A 
ATOM     30  C   UNL     1      -6.410   4.289  -3.897  0.00  0.00    +0.046 A 
ATOM     31  C   UNL     1      -7.410   3.386  -4.228  0.00  0.00    +0.120 A 
ATOM     32  C   UNL     1      -7.874   2.489  -3.276  0.00  0.00    +0.046 A 
ATOM     33  C   UNL     1      -7.339   2.497  -2.003  0.00  0.00    +0.009 A 
BRANCH  31  34
ATOM     34  O   UNL     1      -7.934   3.379  -5.482  0.00  0.00    -0.495 OA
ATOM     35  C   UNL     1      -7.409   4.330  -6.410  0.00  0.00    +0.277 C 
ENDBRANCH  31  34
ENDBRANCH  10  28
TORSDOF 3
