REMARK  Name = ZINC57486474
REMARK  7 active torsions:
REMARK  status: ('A' for Active; 'I' for Inactive)
REMARK    1  A    between atoms: C_1  and  C_2
REMARK    2  A    between atoms: C_7  and  N_8
REMARK    3  A    between atoms: N_15  and  C_18
REMARK    4  A    between atoms: C_18  and  C_19
REMARK    5  A    between atoms: N_21  and  C_22
REMARK    6  A    between atoms: C_22  and  C_23
REMARK    7  A    between atoms: C_22  and  C_24
REMARK                            x       y       z     vdW  Elec       q    Type
REMARK                         _______ _______ _______ _____ _____    ______ ____
ROOT
ATOM      1  N   UNL     1       0.169   0.117   2.335  0.00  0.00    -0.214 N 
ATOM      2  C   UNL     1       0.380  -0.373   3.587  0.00  0.00    +0.170 A 
ATOM      3  C   UNL     1       0.380   0.731   4.454  0.00  0.00    +0.103 A 
ATOM      4  C   UNL     1       0.163   1.879   3.669  0.00  0.00    +0.150 A 
ATOM      5  N   UNL     1       0.045   1.509   2.423  0.00  0.00    -0.172 NA
ATOM      6  C   UNL     1       0.589   0.487   5.881  0.00  0.00    +0.265 A 
ATOM      7  O   UNL     1       0.600   1.403   6.684  0.00  0.00    -0.267 OA
ATOM      8  N   UNL     1       0.770  -0.795   6.276  0.00  0.00    -0.290 N 
ATOM      9  C   UNL     1       0.754  -1.800   5.364  0.00  0.00    +0.204 A 
ATOM     10  N   UNL     1       0.569  -1.602   4.092  0.00  0.00    -0.217 NA
ENDROOT
BRANCH   1  17
ATOM     11  C   UNL     1      -1.979   0.629   0.539  0.00  0.00    +0.046 C 
ATOM     12  C   UNL     1      -0.937  -0.422   0.255  0.00  0.00    -0.025 A 
ATOM     13  C   UNL     1      -1.005  -1.167  -0.907  0.00  0.00    +0.007 A 
ATOM     14  C   UNL     1      -0.051  -2.132  -1.168  0.00  0.00    +0.020 A 
ATOM     15  C   UNL     1       0.976  -2.356  -0.267  0.00  0.00    +0.043 A 
ATOM     16  C   UNL     1       1.048  -1.615   0.897  0.00  0.00    +0.048 A 
ATOM     17  C   UNL     1       0.094  -0.640   1.159  0.00  0.00    +0.072 A 
ATOM     18 CL   UNL     1       2.172  -3.569  -0.599  0.00  0.00    -0.083 Cl
ENDBRANCH   1  17
BRANCH   8  19
ATOM     19  C   UNL     1       0.984  -1.099   7.693  0.00  0.00    +0.221 C 
BRANCH  19  20
ATOM     20  C   UNL     1      -0.344  -1.345   8.360  0.00  0.00    +0.233 C 
ATOM     21  O   UNL     1      -1.369  -1.273   7.716  0.00  0.00    -0.274 OA
ATOM     22  N   UNL     1      -0.393  -1.644   9.674  0.00  0.00    -0.312 N 
ATOM     23  H   UNL     1       0.427  -1.701  10.189  0.00  0.00    +0.149 HD
BRANCH  22  24
ATOM     24  C   UNL     1      -1.685  -1.883  10.323  0.00  0.00    +0.067 C 
ATOM     25  C   UNL     1      -2.092  -3.344  10.124  0.00  0.00    +0.027 C 
ATOM     26  C   UNL     1      -1.566  -1.585  11.819  0.00  0.00    +0.027 C 
ENDBRANCH  22  24
ENDBRANCH  19  20
ENDBRANCH   8  19
TORSDOF 4
