REMARK  Name = ZINC65371672
REMARK  3 active torsions:
REMARK  status: ('A' for Active; 'I' for Inactive)
REMARK    1  A    between atoms: C_4  and  C_7
REMARK    2  A    between atoms: C_17  and  C_19
REMARK    3  A    between atoms: C_19  and  N_20
REMARK                            x       y       z     vdW  Elec       q    Type
REMARK                         _______ _______ _______ _____ _____    ______ ____
ROOT
ATOM      1  C   UNL     1       3.471  -0.577  -0.105  0.00  0.00    +0.071 A 
ATOM      2  C   UNL     1       3.871  -1.706  -0.736  0.00  0.00    +0.025 A 
ATOM      3  C   UNL     1       5.203  -1.970  -0.352  0.00  0.00    +0.151 A 
ATOM      4  N   UNL     1       5.584  -1.043   0.478  0.00  0.00    -0.158 NA
ATOM      5  N   UNL     1       4.522  -0.141   0.652  0.00  0.00    -0.275 N 
ATOM      6  H   UNL     1       4.531   0.650   1.213  0.00  0.00    +0.189 HD
ATOM      7  N   UNL     1       5.901  -3.077  -0.862  0.00  0.00    -0.269 N 
ATOM      8  C   UNL     1       5.334  -3.769  -1.873  0.00  0.00    +0.219 C 
ATOM      9  O   UNL     1       5.814  -4.838  -2.187  0.00  0.00    -0.275 OA
ATOM     10  C   UNL     1       4.134  -3.268  -2.622  0.00  0.00    +0.106 C 
ATOM     11  C   UNL     1       3.120  -2.602  -1.687  0.00  0.00    +0.053 C 
ATOM     12  H   UNL     1       6.762  -3.335  -0.500  0.00  0.00    +0.156 HD
ENDROOT
BRANCH   1  16
ATOM     13  C   UNL     1      -0.338   1.276  -0.435  0.00  0.00    +0.000 A 
ATOM     14  C   UNL     1       0.325   0.857  -1.575  0.00  0.00    +0.001 A 
ATOM     15  C   UNL     1       1.562   0.254  -1.474  0.00  0.00    +0.010 A 
ATOM     16  C   UNL     1       2.144   0.069  -0.221  0.00  0.00    +0.000 A 
ATOM     17  C   UNL     1       1.471   0.494   0.925  0.00  0.00    +0.010 A 
ATOM     18  C   UNL     1       0.234   1.096   0.811  0.00  0.00    +0.001 A 
ENDBRANCH   1  16
BRANCH  11  19
ATOM     19  C   UNL     1       2.365  -3.674  -0.899  0.00  0.00    +0.137 C 
BRANCH  19  20
ATOM     20  N   UNL     1       1.525  -4.452  -1.813  0.00  0.00    -0.274 N 
ATOM     21  C   UNL     1       0.206  -4.167  -2.166  0.00  0.00    +0.090 A 
ATOM     22  C   UNL     1      -0.676  -3.158  -1.813  0.00  0.00    +0.030 A 
ATOM     23  C   UNL     1      -1.952  -3.145  -2.342  0.00  0.00    +0.002 A 
ATOM     24  C   UNL     1      -2.351  -4.136  -3.223  0.00  0.00    +0.004 A 
ATOM     25  C   UNL     1      -1.477  -5.144  -3.579  0.00  0.00    +0.048 A 
ATOM     26  C   UNL     1      -0.194  -5.166  -3.053  0.00  0.00    +0.157 A 
ATOM     27  O   UNL     1       0.857  -6.007  -3.213  0.00  0.00    -0.407 OA
ATOM     28  C   UNL     1       1.887  -5.571  -2.471  0.00  0.00    +0.421 A 
ATOM     29  O   UNL     1       2.978  -6.104  -2.402  0.00  0.00    -0.223 OA
ENDBRANCH  19  20
ENDBRANCH  11  19
TORSDOF 3
