REMARK  Name = ZINC08781380
REMARK  5 active torsions:
REMARK  status: ('A' for Active; 'I' for Inactive)
REMARK    1  A    between atoms: C_2  and  C_13
REMARK    2  A    between atoms: C_8  and  C_10
REMARK    3  A    between atoms: C_14  and  N_31
REMARK    4  A    between atoms: C_15  and  C_19
REMARK    5  A    between atoms: C_24  and  C_28
REMARK                            x       y       z     vdW  Elec       q    Type
REMARK                         _______ _______ _______ _____ _____    ______ ____
ROOT
ATOM      1  C   UNL     1       1.081   1.783   0.001  0.00  0.00    +0.099 A 
ATOM      2  C   UNL     1       0.631   3.071   0.013  0.00  0.00    +0.179 A 
ATOM      3  C   UNL     1      -0.774   3.034   0.026  0.00  0.00    +0.126 A 
ATOM      4  N   UNL     1      -1.155   1.774   0.017  0.00  0.00    -0.171 NA
ATOM      5  N   UNL     1      -0.011   0.966   0.007  0.00  0.00    -0.274 N 
ATOM      6  H   UNL     1       0.003  -0.034   0.006  0.00  0.00    +0.189 HD
ENDROOT
BRANCH   1   8
ATOM      7  C   UNL     1       3.425   1.972  -0.882  0.00  0.00    +0.124 A 
ATOM      8  C   UNL     1       2.496   1.351  -0.015  0.00  0.00    +0.038 A 
ATOM      9  C   UNL     1       2.924   0.350   0.814  0.00  0.00    +0.126 A 
ATOM     10  N   UNL     1       4.235  -0.029   0.772  0.00  0.00    -0.219 N 
ATOM     11  C   UNL     1       5.103   0.602  -0.086  0.00  0.00    +0.175 A 
ATOM     12  N   UNL     1       4.676   1.586  -0.892  0.00  0.00    -0.234 NA
ATOM     13  C   UNL     1       6.349   0.020   0.092  0.00  0.00    +0.119 A 
ATOM     14  C   UNL     1       6.217  -0.971   1.072  0.00  0.00    +0.194 A 
ATOM     15  N   UNL     1       4.955  -1.000   1.477  0.00  0.00    -0.157 NA
ATOM     16 CL   UNL     1       7.808   0.445  -0.746  0.00  0.00    -0.077 Cl
BRANCH  14  17
ATOM     17  C   UNL     1       7.302  -1.839   1.571  0.00  0.00    +0.408 C 
ATOM     18  O   UNL     1       8.426  -1.724   1.125  0.00  0.00    -0.239 OA
ATOM     19  O   UNL     1       7.045  -2.760   2.521  0.00  0.00    -0.239 OA
ENDBRANCH  14  17
ENDBRANCH   1   8
BRANCH   3  20
ATOM     20  C   UNL     1      -1.674   4.215   0.040  0.00  0.00    +0.041 A 
ATOM     21  C   UNL     1      -1.309   5.383   0.746  0.00  0.00    +0.124 A 
ATOM     22  N   UNL     1      -2.104   6.424   0.751  0.00  0.00    -0.234 NA
ATOM     23  C   UNL     1      -3.278   6.401   0.102  0.00  0.00    +0.175 A 
ATOM     24  C   UNL     1      -4.282   7.347  -0.041  0.00  0.00    +0.119 A 
ATOM     25  C   UNL     1      -5.288   6.780  -0.832  0.00  0.00    +0.194 A 
ATOM     26  N   UNL     1      -4.924   5.550  -1.161  0.00  0.00    -0.157 NA
ATOM     27  N   UNL     1      -3.673   5.284  -0.592  0.00  0.00    -0.219 N 
ATOM     28  C   UNL     1      -2.866   4.182  -0.624  0.00  0.00    +0.126 A 
ATOM     29 CL   UNL     1      -4.289   8.944   0.639  0.00  0.00    -0.077 Cl
BRANCH  25  30
ATOM     30  C   UNL     1      -6.545   7.444  -1.233  0.00  0.00    +0.408 C 
ATOM     31  O   UNL     1      -6.774   8.580  -0.871  0.00  0.00    -0.239 OA
ATOM     32  O   UNL     1      -7.437   6.788  -2.001  0.00  0.00    -0.239 OA
ENDBRANCH  25  30
ENDBRANCH   3  20
BRANCH   2  33
ATOM     33  N   UNL     1       1.472   4.289   0.011  0.00  0.00    +0.061 N 
ATOM     34  O   UNL     1       1.808   4.795  -1.044  0.00  0.00    -0.126 OA
ATOM     35  O   UNL     1       1.828   4.784   1.065  0.00  0.00    -0.126 OA
ENDBRANCH   2  33
TORSDOF 5
