REMARK  Name = ZINC02921079
REMARK  7 active torsions:
REMARK  status: ('A' for Active; 'I' for Inactive)
REMARK    1  A    between atoms: C_1  and  C_2
REMARK    2  A    between atoms: C_7  and  N_8
REMARK    3  A    between atoms: C_9  and  C_11
REMARK    4  A    between atoms: C_12  and  C_32
REMARK    5  A    between atoms: N_18  and  C_21
REMARK    6  A    between atoms: C_21  and  C_22
REMARK    7  A    between atoms: C_28  and  C_31
REMARK                            x       y       z     vdW  Elec       q    Type
REMARK                         _______ _______ _______ _____ _____    ______ ____
ROOT
ATOM      1  C   UNL     1      -3.675  -1.042  -0.199  0.00  0.00    +0.080 A 
ATOM      2  C   UNL     1      -3.866  -2.387  -0.316  0.00  0.00    -0.017 A 
ATOM      3  C   UNL     1      -5.162  -2.900  -0.407  0.00  0.00    +0.076 A 
ATOM      4  C   UNL     1      -6.205  -1.947  -0.369  0.00  0.00    +0.116 A 
ATOM      5  S   UNL     1      -5.343  -0.405  -0.202  0.00  0.00    -0.064 S 
ATOM      6  N   UNL     1      -7.481  -2.303  -0.447  0.00  0.00    -0.230 NA
ATOM      7  C   UNL     1      -7.838  -3.553  -0.562  0.00  0.00    +0.203 A 
ATOM      8  N   UNL     1      -6.927  -4.556  -0.609  0.00  0.00    -0.290 N 
ATOM      9  C   UNL     1      -5.605  -4.307  -0.538  0.00  0.00    +0.263 A 
ATOM     10  O   UNL     1      -4.794  -5.216  -0.581  0.00  0.00    -0.267 OA
ATOM     11  C   UNL     1      -2.682  -3.318  -0.347  0.00  0.00    +0.046 C 
ENDROOT
BRANCH   1  13
ATOM     12  N   UNL     1      -2.427   1.041   0.019  0.00  0.00    -0.281 N 
ATOM     13  C   UNL     1      -2.414  -0.302  -0.090  0.00  0.00    +0.255 C 
ATOM     14  O   UNL     1      -1.355  -0.902  -0.099  0.00  0.00    -0.269 OA
ATOM     15  H   UNL     1      -3.271   1.512   0.106  0.00  0.00    +0.155 HD
BRANCH  12  22
ATOM     16  C   UNL     1      -2.364   3.585   1.292  0.00  0.00    +0.046 C 
ATOM     17  C   UNL     1      -1.150   3.001   0.616  0.00  0.00    -0.028 A 
ATOM     18  C   UNL     1       0.037   3.707   0.597  0.00  0.00    +0.020 A 
ATOM     19  C   UNL     1       1.152   3.172  -0.024  0.00  0.00    +0.018 A 
ATOM     20  C   UNL     1       1.081   1.928  -0.626  0.00  0.00    +0.017 A 
ATOM     21  C   UNL     1      -0.102   1.218  -0.611  0.00  0.00    +0.024 A 
ATOM     22  C   UNL     1      -1.225   1.756   0.006  0.00  0.00    +0.037 A 
ATOM     23 BR   UNL     1       2.775   4.142  -0.048  0.00  0.00    -0.050 Br
ENDBRANCH  12  22
ENDBRANCH   1  13
BRANCH   8  24
ATOM     24  C   UNL     1      -7.390  -5.940  -0.739  0.00  0.00    +0.222 C 
BRANCH  24  25
ATOM     25  C   UNL     1      -7.603  -6.530   0.631  0.00  0.00    +0.235 C 
ATOM     26  O   UNL     1      -7.388  -5.860   1.619  0.00  0.00    -0.274 OA
ATOM     27  N   UNL     1      -8.031  -7.801   0.759  0.00  0.00    -0.300 N 
ATOM     28  C   UNL     1      -8.295  -8.625  -0.429  0.00  0.00    +0.108 C 
ATOM     29  C   UNL     1      -9.716  -9.188  -0.333  0.00  0.00    +0.019 C 
ATOM     30  C   UNL     1      -9.877  -9.931   0.996  0.00  0.00    +0.006 C 
ATOM     31  C   UNL     1      -9.664  -8.956   2.156  0.00  0.00    +0.003 C 
ATOM     32  C   UNL     1      -8.237  -8.392   2.088  0.00  0.00    +0.111 C 
ATOM     33  C   UNL     1      -9.858  -9.692   3.483  0.00  0.00    +0.009 C 
ENDBRANCH  24  25
ENDBRANCH   8  24
TORSDOF 4
