REMARK  Name = ZINC09242880
REMARK  7 active torsions:
REMARK  status: ('A' for Active; 'I' for Inactive)
REMARK    1  A    between atoms: C_1  and  C_2
REMARK    2  A    between atoms: C_2  and  O_3
REMARK    3  A    between atoms: O_3  and  C_4
REMARK    4  A    between atoms: C_9  and  C_10
REMARK    5  A    between atoms: C_10  and  C_12
REMARK    6  A    between atoms: C_33  and  C_40
REMARK    7  A    between atoms: C_34  and  C_39
REMARK                            x       y       z     vdW  Elec       q    Type
REMARK                         _______ _______ _______ _____ _____    ______ ____
ROOT
ATOM      1  C   UNL     1      -2.698   2.925  -4.745  0.00  0.00    +0.066 C 
ATOM      2  C   UNL     1      -3.740   1.885  -5.221  0.00  0.00    -0.055 C 
ATOM      3  C   UNL     1      -3.305   0.485  -4.756  0.00  0.00    -0.016 C 
ATOM      4  C   UNL     1      -3.947   0.291  -3.369  0.00  0.00    -0.020 C 
ATOM      5  C   UNL     1      -4.695   1.608  -3.084  0.00  0.00    -0.076 C 
ATOM      6  C   UNL     1      -4.979   3.676  -4.298  0.00  0.00    +0.060 C 
ATOM      7  C   UNL     1      -3.550   4.181  -4.491  0.00  0.00    +0.085 C 
ATOM      8  C   UNL     1      -3.050   4.942  -3.296  0.00  0.00    -0.011 A 
ATOM      9  C   UNL     1      -2.899   4.624  -1.964  0.00  0.00    +0.006 A 
ATOM     10  C   UNL     1      -2.399   5.563  -1.080  0.00  0.00    +0.000 A 
ATOM     11  C   UNL     1      -2.052   6.822  -1.536  0.00  0.00    +0.002 A 
ATOM     12  C   UNL     1      -2.201   7.145  -2.869  0.00  0.00    +0.023 A 
ATOM     13  C   UNL     1      -2.705   6.206  -3.766  0.00  0.00    +0.038 A 
ATOM     14  N   UNL     1      -2.946   6.293  -5.138  0.00  0.00    -0.285 N 
ATOM     15  C   UNL     1      -3.443   5.147  -5.641  0.00  0.00    +0.228 C 
ATOM     16  O   UNL     1      -3.746   4.934  -6.796  0.00  0.00    -0.275 OA
ATOM     17  C   UNL     1      -5.917   4.280  -5.310  0.00  0.00    -0.026 A 
ATOM     18  C   UNL     1      -5.958   4.262  -6.686  0.00  0.00    +0.005 A 
ATOM     19  C   UNL     1      -6.969   4.928  -7.356  0.00  0.00    +0.004 A 
ATOM     20  C   UNL     1      -7.936   5.611  -6.640  0.00  0.00    -0.046 A 
ATOM     21  C   UNL     1      -7.897   5.631  -5.262  0.00  0.00    -0.026 A 
ATOM     22  C   UNL     1      -6.883   4.963  -4.579  0.00  0.00    +0.039 A 
ATOM     23  N   UNL     1      -6.632   4.838  -3.212  0.00  0.00    -0.286 N 
ATOM     24  C   UNL     1      -5.535   4.099  -2.962  0.00  0.00    +0.212 C 
ATOM     25  O   UNL     1      -5.080   3.826  -1.871  0.00  0.00    -0.277 OA
ATOM     26  C   UNL     1      -8.956   6.378  -4.492  0.00  0.00    +0.046 C 
ATOM     27  C   UNL     1      -9.037   6.336  -7.370  0.00  0.00    +0.044 C 
ATOM     28  H   UNL     1      -2.775   7.087  -5.669  0.00  0.00    +0.155 HD
ATOM     29  H   UNL     1      -7.184   5.237  -2.521  0.00  0.00    +0.155 HD
ATOM     30  N   UNL     1      -4.901   2.207  -4.410  0.00  0.00    +0.395 N 
ATOM     31  H   UNL     1      -5.758   1.838  -4.838  0.00  0.00    -0.079 HD
ENDROOT
BRANCH   1  32
ATOM     32  C   UNL     1      -2.030   2.468  -3.474  0.00  0.00    +0.169 C 
ATOM     33  O   UNL     1      -2.592   1.681  -2.743  0.00  0.00    -0.292 OA
BRANCH  32  39
ATOM     34  C   UNL     1      -0.072   2.552  -1.938  0.00  0.00    +0.131 A 
ATOM     35  C   UNL     1       1.184   3.044  -1.613  0.00  0.00    +0.046 A 
ATOM     36  C   UNL     1       1.817   3.936  -2.454  0.00  0.00    +0.004 A 
ATOM     37  C   UNL     1       1.203   4.357  -3.623  0.00  0.00    +0.001 A 
ATOM     38  C   UNL     1      -0.045   3.885  -3.962  0.00  0.00    +0.015 A 
ATOM     39  C   UNL     1      -0.699   2.975  -3.121  0.00  0.00    +0.059 A 
BRANCH  34  40
ATOM     40  O   UNL     1      -0.693   1.672  -1.115  0.00  0.00    -0.492 OA
BRANCH  40  42
ATOM     41  C   UNL     1      -0.846   0.297   0.867  0.00  0.00    +0.048 C 
ATOM     42  C   UNL     1       0.006   1.288   0.071  0.00  0.00    +0.226 C 
ENDBRANCH  40  42
ENDBRANCH  34  40
ENDBRANCH  32  39
ENDBRANCH   1  32
TORSDOF 4
