REMARK  Name = ZINC35886290
REMARK  7 active torsions:
REMARK  status: ('A' for Active; 'I' for Inactive)
REMARK    1  A    between atoms: C_4  and  C_7
REMARK    2  A    between atoms: C_7  and  C_8
REMARK    3  A    between atoms: N_11  and  C_14
REMARK    4  A    between atoms: C_14  and  C_15
REMARK    5  A    between atoms: C_20  and  C_22
REMARK    6  A    between atoms: C_29  and  C_31
REMARK    7  A    between atoms: C_34  and  N_37
REMARK                            x       y       z     vdW  Elec       q    Type
REMARK                         _______ _______ _______ _____ _____    ______ ____
ROOT
ATOM      1  C   UNL     1       7.918  -1.779   4.721  0.00  0.00    -0.001 C 
ATOM      2  C   UNL     1       7.681  -3.186   4.132  0.00  0.00    +0.110 C 
ATOM      3  N   UNL     1       8.599  -4.068   4.890  0.00  0.00    -0.297 N 
ATOM      4  C   UNL     1       8.524  -3.565   6.282  0.00  0.00    +0.116 C 
ATOM      5  C   UNL     1       8.475  -2.026   6.138  0.00  0.00    +0.039 C 
ATOM      6  C   UNL     1       9.335  -5.094   4.421  0.00  0.00    +0.247 C 
ATOM      7  O   UNL     1       9.372  -5.320   3.227  0.00  0.00    -0.270 OA
ENDROOT
BRANCH   5   8
ATOM      8  C   UNL     1       9.858  -1.441   6.267  0.00  0.00    -0.040 A 
ATOM      9  C   UNL     1      10.873  -1.879   5.437  0.00  0.00    +0.004 A 
ATOM     10  C   UNL     1      12.142  -1.344   5.554  0.00  0.00    +0.003 A 
ATOM     11  C   UNL     1      12.398  -0.370   6.501  0.00  0.00    +0.038 A 
ATOM     12  C   UNL     1      11.382   0.069   7.333  0.00  0.00    +0.124 A 
ATOM     13  C   UNL     1      10.109  -0.464   7.211  0.00  0.00    +0.042 A 
ATOM     14  F   UNL     1      11.631   1.020   8.259  0.00  0.00    -0.205 F 
ENDBRANCH   5   8
BRANCH   6  15
ATOM     15  C   UNL     1      10.097  -5.947   5.358  0.00  0.00    +0.037 A 
ATOM     16  C   UNL     1       9.731  -6.011   6.704  0.00  0.00    +0.015 A 
ATOM     17  C   UNL     1      10.446  -6.809   7.573  0.00  0.00    +0.033 A 
ATOM     18  C   UNL     1      11.524  -7.544   7.114  0.00  0.00    +0.126 A 
ATOM     19  C   UNL     1      11.893  -7.484   5.781  0.00  0.00    +0.033 A 
ATOM     20  C   UNL     1      11.182  -6.696   4.900  0.00  0.00    +0.015 A 
BRANCH  18  21
ATOM     21  N   UNL     1      12.287  -8.397   8.052  0.00  0.00    +0.056 N 
ATOM     22  O   UNL     1      11.968  -8.451   9.217  0.00  0.00    -0.126 OA
ATOM     23  O   UNL     1      13.230  -9.041   7.654  0.00  0.00    -0.126 OA
ENDBRANCH  18  21
ENDBRANCH   6  15
BRANCH   1  24
ATOM     24  C   UNL     1       6.600  -1.005   4.795  0.00  0.00    -0.073 C 
BRANCH  24  28
ATOM     25  C   UNL     1       5.209   1.072   1.344  0.00  0.00    -0.010 C 
ATOM     26  C   UNL     1       6.618   0.472   1.345  0.00  0.00    -0.015 C 
ATOM     27  C   UNL     1       7.060   0.224   2.789  0.00  0.00    -0.079 C 
ATOM     28  N   UNL     1       6.129  -0.709   3.435  0.00  0.00    +0.380 N 
ATOM     29  C   UNL     1       4.790  -0.110   3.502  0.00  0.00    -0.079 C 
ATOM     30  C   UNL     1       4.261   0.125   2.086  0.00  0.00    -0.015 C 
ATOM     31  H   UNL     1       6.087  -1.565   2.902  0.00  0.00    -0.082 HD
BRANCH  25  32
ATOM     32  C   UNL     1       4.729   1.250  -0.098  0.00  0.00    +0.038 C 
BRANCH  32  36
ATOM     33  C   UNL     1       7.167   4.155  -2.064  0.00  0.00    +0.000 A 
ATOM     34  C   UNL     1       7.519   2.819  -2.100  0.00  0.00    +0.000 A 
ATOM     35  C   UNL     1       6.731   1.879  -1.464  0.00  0.00    +0.003 A 
ATOM     36  C   UNL     1       5.590   2.275  -0.791  0.00  0.00    -0.047 A 
ATOM     37  C   UNL     1       5.237   3.611  -0.754  0.00  0.00    +0.003 A 
ATOM     38  C   UNL     1       6.025   4.551  -1.392  0.00  0.00    +0.000 A 
ENDBRANCH  32  36
ENDBRANCH  25  32
ENDBRANCH  24  28
ENDBRANCH   1  24
TORSDOF 7
