REMARK  Name = ZINC63531157
REMARK  13 active torsions:
REMARK  status: ('A' for Active; 'I' for Inactive)
REMARK    1  A    between atoms: C_1  and  C_2
REMARK    2  A    between atoms: C_5  and  S_8
REMARK    3  A    between atoms: S_8  and  C_9
REMARK    4  A    between atoms: C_13  and  O_34
REMARK    5  A    between atoms: C_17  and  C_19
REMARK    6  A    between atoms: N_21  and  C_22
REMARK    7  A    between atoms: C_22  and  C_23
REMARK    8  A    between atoms: C_23  and  C_24
REMARK    9  A    between atoms: C_27  and  O_32
REMARK   10  A    between atoms: C_28  and  O_30
REMARK   11  A    between atoms: O_30  and  C_31
REMARK   12  A    between atoms: O_32  and  C_33
REMARK   13  A    between atoms: O_34  and  C_35
REMARK                            x       y       z     vdW  Elec       q    Type
REMARK                         _______ _______ _______ _____ _____    ______ ____
ROOT
ATOM      1  C   UNL     1       0.017  -4.819   1.612  0.00  0.00    +0.030 C 
ATOM      2  C   UNL     1      -0.098  -3.876   2.625  0.00  0.00    +0.010 A 
ATOM      3  C   UNL     1      -0.204  -2.466   2.605  0.00  0.00    +0.014 A 
ATOM      4  C   UNL     1      -0.305  -1.782   3.771  0.00  0.00    +0.046 A 
ATOM      5  C   UNL     1      -0.306  -2.440   5.009  0.00  0.00    +0.122 A 
ATOM      6  C   UNL     1      -0.206  -3.797   5.098  0.00  0.00    +0.071 A 
ATOM      7  C   UNL     1      -0.098  -4.573   3.921  0.00  0.00    +0.048 A 
ATOM      8  N   UNL     1       0.009  -5.878   3.742  0.00  0.00    -0.369 N 
ATOM      9  C   UNL     1       0.084  -6.161   2.306  0.00  0.00    +0.204 C 
ATOM     10  H   UNL     1       0.031  -6.542   4.449  0.00  0.00    +0.161 HD
ENDROOT
BRANCH   9  11
ATOM     11  C   UNL     1       1.386  -6.848   1.982  0.00  0.00    +0.240 C 
ATOM     12  O   UNL     1       2.301  -6.819   2.778  0.00  0.00    -0.273 OA
ATOM     13  N   UNL     1       1.534  -7.494   0.809  0.00  0.00    -0.313 N 
ATOM     14  H   UNL     1       0.802  -7.517   0.173  0.00  0.00    +0.149 HD
BRANCH  13  15
ATOM     15  C   UNL     1       2.800  -8.162   0.495  0.00  0.00    +0.109 C 
BRANCH  15  16
ATOM     16  C   UNL     1       2.704  -8.813  -0.886  0.00  0.00    +0.054 C 
BRANCH  16  17
ATOM     17  C   UNL     1       4.005  -9.500  -1.209  0.00  0.00    -0.042 A 
ATOM     18  C   UNL     1       5.010  -8.805  -1.856  0.00  0.00    +0.007 A 
ATOM     19  C   UNL     1       6.206  -9.430  -2.155  0.00  0.00    +0.049 A 
ATOM     20  C   UNL     1       6.401 -10.757  -1.805  0.00  0.00    +0.161 A 
ATOM     21  C   UNL     1       5.390 -11.457  -1.153  0.00  0.00    +0.162 A 
ATOM     22  C   UNL     1       4.195 -10.822  -0.853  0.00  0.00    +0.053 A 
BRANCH  21  23
ATOM     23  O   UNL     1       5.575 -12.759  -0.808  0.00  0.00    -0.491 OA
ATOM     24  C   UNL     1       4.495 -13.414  -0.142  0.00  0.00    +0.277 C 
ENDBRANCH  21  23
BRANCH  20  25
ATOM     25  O   UNL     1       7.577 -11.373  -2.098  0.00  0.00    -0.491 OA
ATOM     26  C   UNL     1       8.569 -10.594  -2.769  0.00  0.00    +0.277 C 
ENDBRANCH  20  25
ENDBRANCH  16  17
ENDBRANCH  15  16
ENDBRANCH  13  15
ENDBRANCH   9  11
BRANCH   5  27
ATOM     27  O   UNL     1      -0.408  -1.708   6.147  0.00  0.00    -0.495 OA
ATOM     28  C   UNL     1      -0.510  -0.291   6.000  0.00  0.00    +0.277 C 
ENDBRANCH   5  27
BRANCH   1  29
ATOM     29  S   UNL     1       0.063  -4.533  -0.023  0.00  0.00    -0.091 S 
BRANCH  29  34
ATOM     30  C   UNL     1      -5.130  -6.840  -2.057  0.00  0.00    +0.044 C 
ATOM     31  C   UNL     1      -3.833  -6.264  -1.549  0.00  0.00    -0.050 A 
ATOM     32  C   UNL     1      -2.891  -5.791  -2.444  0.00  0.00    +0.004 A 
ATOM     33  C   UNL     1      -1.702  -5.263  -1.982  0.00  0.00    +0.015 A 
ATOM     34  C   UNL     1      -1.453  -5.206  -0.617  0.00  0.00    +0.013 A 
ATOM     35  C   UNL     1      -2.402  -5.681   0.280  0.00  0.00    +0.015 A 
ATOM     36  C   UNL     1      -3.591  -6.204  -0.189  0.00  0.00    +0.004 A 
ENDBRANCH  29  34
ENDBRANCH   1  29
TORSDOF 9
