REMARK  Name = ZINC09404619
REMARK  11 active torsions:
REMARK  status: ('A' for Active; 'I' for Inactive)
REMARK    1  A    between atoms: C_1  and  C_2
REMARK    2  A    between atoms: C_2  and  O_3
REMARK    3  A    between atoms: O_3  and  C_4
REMARK    4  A    between atoms: N_12  and  C_13
REMARK    5  A    between atoms: C_13  and  N_15
REMARK    6  A    between atoms: C_16  and  C_18
REMARK    7  A    between atoms: C_21  and  S_24
REMARK    8  A    between atoms: S_24  and  N_27
REMARK    9  A    between atoms: N_27  and  C_28
REMARK   10  A    between atoms: N_27  and  C_29
REMARK   11  A    between atoms: N_30  and  C_31
REMARK                            x       y       z     vdW  Elec       q    Type
REMARK                         _______ _______ _______ _____ _____    ______ ____
ROOT
ATOM      1  C   UNL     1       1.677  -8.411  -3.133  0.00  0.00    +0.163 C 
ATOM      2  S   UNL     1       0.726  -8.373  -1.711  0.00  0.00    -0.016 S 
ENDROOT
BRANCH   1  11
ATOM      3  C   UNL     1       6.299  -3.834  -0.496  0.00  0.00    +0.122 A 
ATOM      4  C   UNL     1       6.205  -5.026   0.212  0.00  0.00    +0.048 A 
ATOM      5  C   UNL     1       5.367  -6.034  -0.200  0.00  0.00    +0.030 A 
ATOM      6  C   UNL     1       4.578  -5.892  -1.354  0.00  0.00    +0.058 A 
ATOM      7  C   UNL     1       4.694  -4.679  -2.049  0.00  0.00    +0.042 A 
ATOM      8  C   UNL     1       5.527  -3.666  -1.637  0.00  0.00    +0.062 A 
ATOM      9  S   UNL     1       3.571  -4.876  -3.411  0.00  0.00    -0.052 S 
ATOM     10  C   UNL     1       2.997  -6.521  -3.023  0.00  0.00    +0.165 A 
ATOM     11  N   UNL     1       2.115  -7.270  -3.675  0.00  0.00    -0.168 NA
ATOM     12  N   UNL     1       3.693  -6.814  -1.888  0.00  0.00    -0.324 N 
ATOM     13  C   UNL     1       3.505  -8.111  -1.232  0.00  0.00    +0.151 C 
BRANCH   3  14
ATOM     14  O   UNL     1       7.133  -2.846  -0.075  0.00  0.00    -0.492 OA
BRANCH  14  16
ATOM     15  C   UNL     1       8.766  -1.882   1.423  0.00  0.00    +0.048 C 
ATOM     16  C   UNL     1       7.893  -3.099   1.107  0.00  0.00    +0.225 C 
ENDBRANCH  14  16
ENDBRANCH   3  14
ENDBRANCH   1  11
BRANCH   1  17
ATOM     17  N   UNL     1       1.985  -9.591  -3.707  0.00  0.00    -0.262 N 
ATOM     18  C   UNL     1       1.543 -10.741  -3.162  0.00  0.00    +0.250 C 
ATOM     19  O   UNL     1       0.868 -10.715  -2.152  0.00  0.00    -0.270 OA
ATOM     20  H   UNL     1       2.524  -9.612  -4.513  0.00  0.00    +0.157 HD
BRANCH  18  21
ATOM     21  C   UNL     1       1.881 -12.035  -3.791  0.00  0.00    +0.037 A 
ATOM     22  C   UNL     1       2.661 -12.070  -4.948  0.00  0.00    +0.015 A 
ATOM     23  C   UNL     1       2.972 -13.281  -5.530  0.00  0.00    +0.029 A 
ATOM     24  C   UNL     1       2.512 -14.460  -4.971  0.00  0.00    +0.105 A 
ATOM     25  C   UNL     1       1.738 -14.433  -3.824  0.00  0.00    +0.029 A 
ATOM     26  C   UNL     1       1.425 -13.229  -3.228  0.00  0.00    +0.015 A 
BRANCH  24  27
ATOM     27  S   UNL     1       2.914 -16.002  -5.721  0.00  0.00    +0.060 S 
ATOM     28  O   UNL     1       1.911 -16.924  -5.317  0.00  0.00    -0.153 OA
ATOM     29  O   UNL     1       3.191 -15.729  -7.088  0.00  0.00    -0.153 OA
BRANCH  27  30
ATOM     30  N   UNL     1       4.334 -16.521  -5.045  0.00  0.00    -0.183 NA
ATOM     31  C   UNL     1       4.310 -17.359  -3.844  0.00  0.00    +0.131 C 
ATOM     32  C   UNL     1       5.614 -16.142  -5.648  0.00  0.00    +0.131 C 
ENDBRANCH  27  30
ENDBRANCH  24  27
ENDBRANCH  18  21
ENDBRANCH   1  17
TORSDOF 7
