REMARK  Name = ZINC20332096
REMARK  8 active torsions:
REMARK  status: ('A' for Active; 'I' for Inactive)
REMARK    1  A    between atoms: C_1  and  C_2
REMARK    2  A    between atoms: C_2  and  S_3
REMARK    3  A    between atoms: S_3  and  C_4
REMARK    4  A    between atoms: C_12  and  C_13
REMARK    5  A    between atoms: C_16  and  O_19
REMARK    6  A    between atoms: O_19  and  C_20
REMARK    7  A    between atoms: C_20  and  C_21
REMARK    8  A    between atoms: C_29  and  C_31
REMARK                            x       y       z     vdW  Elec       q    Type
REMARK                         _______ _______ _______ _____ _____    ______ ____
ROOT
ATOM      1  C   UNL     1      -7.052  -4.530  -1.424  0.00  0.00    -0.024 A 
ATOM      2  C   UNL     1      -6.787  -5.891  -1.211  0.00  0.00    +0.011 A 
ATOM      3  C   UNL     1      -7.701  -6.834  -1.604  0.00  0.00    +0.046 A 
ATOM      4  C   UNL     1      -8.890  -6.444  -2.212  0.00  0.00    +0.121 A 
ATOM      5  C   UNL     1      -9.158  -5.096  -2.426  0.00  0.00    +0.046 A 
ATOM      6  C   UNL     1      -8.255  -4.143  -2.033  0.00  0.00    +0.011 A 
ENDROOT
BRANCH   1  15
ATOM      7  C   UNL     1      -5.271   1.228  -1.186  0.00  0.00    +0.175 C 
ATOM      8  N   UNL     1      -5.716   2.291  -1.799  0.00  0.00    -0.185 NA
ATOM      9  S   UNL     1      -6.520   1.688  -3.140  0.00  0.00    +0.048 S 
ATOM     10  C   UNL     1      -6.319   0.056  -2.870  0.00  0.00    +0.183 C 
ATOM     11  N   UNL     1      -6.769  -0.977  -3.548  0.00  0.00    -0.152 NA
ATOM     12  C   UNL     1      -6.529  -2.222  -3.097  0.00  0.00    +0.273 C 
ATOM     13  O   UNL     1      -6.819  -3.197  -3.771  0.00  0.00    -0.268 OA
ATOM     14  C   UNL     1      -5.904  -2.380  -1.761  0.00  0.00    +0.079 C 
ATOM     15  C   UNL     1      -6.080  -3.518  -1.006  0.00  0.00    +0.024 C 
ATOM     16  C   UNL     1      -5.073  -1.238  -1.281  0.00  0.00    +0.137 C 
ATOM     17  N   UNL     1      -4.023  -1.383  -0.520  0.00  0.00    -0.284 NA
ATOM     18  N   UNL     1      -5.532   0.015  -1.736  0.00  0.00    -0.211 N 
ATOM     19  H   UNL     1      -3.747  -2.269  -0.238  0.00  0.00    +0.188 HD
BRANCH   7  20
ATOM     20  S   UNL     1      -4.352   1.364   0.311  0.00  0.00    -0.089 S 
BRANCH  20  22
ATOM     21  C   UNL     1      -3.497   3.413   1.908  0.00  0.00    +0.016 C 
ATOM     22  C   UNL     1      -4.279   3.150   0.620  0.00  0.00    +0.074 C 
ENDBRANCH  20  22
ENDBRANCH   7  20
ENDBRANCH   1  15
BRANCH   4  23
ATOM     23  O   UNL     1      -9.790  -7.382  -2.600  0.00  0.00    -0.486 OA
BRANCH  23  24
ATOM     24  C   UNL     1     -10.990  -6.913  -3.219  0.00  0.00    +0.284 C 
BRANCH  24  25
ATOM     25  C   UNL     1     -11.862  -8.088  -3.578  0.00  0.00    +0.087 A 
ATOM     26  C   UNL     1     -13.090  -8.261  -2.974  0.00  0.00    +0.099 A 
ATOM     27  C   UNL     1     -13.883  -9.356  -3.319  0.00  0.00    +0.275 A 
ATOM     28  O   UNL     1     -14.971  -9.515  -2.788  0.00  0.00    -0.266 OA
ATOM     29  N   UNL     1     -13.441 -10.249  -4.253  0.00  0.00    -0.171 N 
ATOM     30  C   UNL     1     -12.213 -10.001  -4.802  0.00  0.00    +0.199 A 
ATOM     31  N   UNL     1     -11.464  -8.974  -4.487  0.00  0.00    -0.223 NA
ATOM     32  S   UNL     1     -12.017 -11.359  -5.936  0.00  0.00    -0.033 S 
ATOM     33  C   UNL     1     -13.577 -12.164  -5.606  0.00  0.00    +0.099 A 
ATOM     34  N   UNL     1     -14.101 -11.385  -4.709  0.00  0.00    -0.159 NA
ATOM     35  C   UNL     1     -14.139 -13.423  -6.214  0.00  0.00    +0.075 C 
ENDBRANCH  24  25
ENDBRANCH  23  24
ENDBRANCH   4  23
TORSDOF 6
