REMARK  Name = ZINC03770167
REMARK  8 active torsions:
REMARK  status: ('A' for Active; 'I' for Inactive)
REMARK    1  A    between atoms: C_1  and  C_2
REMARK    2  A    between atoms: C_5  and  C_32
REMARK    3  A    between atoms: C_6  and  N_8
REMARK    4  A    between atoms: N_10  and  C_24
REMARK    5  A    between atoms: C_14  and  C_15
REMARK    6  A    between atoms: C_18  and  O_22
REMARK    7  A    between atoms: C_26  and  C_31
REMARK    8  A    between atoms: C_29  and  C_30
REMARK                            x       y       z     vdW  Elec       q    Type
REMARK                         _______ _______ _______ _____ _____    ______ ____
ROOT
ATOM      1  N   UNL     1      -1.236  -2.841   2.725  0.00  0.00    -0.225 NA
ATOM      2  C   UNL     1      -0.818  -2.181   3.782  0.00  0.00    +0.173 C 
ATOM      3  N   UNL     1      -0.478  -2.677   5.024  0.00  0.00    -0.214 N 
ATOM      4  C   UNL     1      -0.072  -1.864   5.985  0.00  0.00    +0.263 C 
ATOM      5  O   UNL     1       0.232  -2.284   7.086  0.00  0.00    -0.269 OA
ATOM      6  C   UNL     1      -0.004  -0.427   5.661  0.00  0.00    +0.078 C 
ATOM      7  C   UNL     1       0.374   0.615   6.445  0.00  0.00    +0.028 C 
ATOM      8  S   UNL     1      -0.543  -0.426   3.958  0.00  0.00    -0.048 S 
ENDROOT
BRANCH   1  14
ATOM      9  C   UNL     1      -3.765   0.836   0.711  0.00  0.00    +0.044 C 
ATOM     10  C   UNL     1      -2.864  -0.366   0.589  0.00  0.00    -0.048 A 
ATOM     11  C   UNL     1      -2.435  -0.783  -0.659  0.00  0.00    +0.004 A 
ATOM     12  C   UNL     1      -1.608  -1.885  -0.780  0.00  0.00    +0.006 A 
ATOM     13  C   UNL     1      -1.204  -2.576   0.344  0.00  0.00    -0.025 A 
ATOM     14  C   UNL     1      -1.632  -2.160   1.606  0.00  0.00    +0.070 A 
ATOM     15  C   UNL     1      -2.463  -1.043   1.722  0.00  0.00    +0.031 A 
ATOM     16  C   UNL     1      -0.303  -3.777   0.209  0.00  0.00    +0.046 C 
ENDBRANCH   1  14
BRANCH   3  17
ATOM     17  C   UNL     1      -0.565  -4.053   5.270  0.00  0.00    +0.047 A 
ATOM     18  C   UNL     1       0.530  -4.873   5.032  0.00  0.00    +0.027 A 
ATOM     19  C   UNL     1       0.442  -6.229   5.275  0.00  0.00    -0.049 A 
ATOM     20  C   UNL     1      -0.737  -6.772   5.755  0.00  0.00    +0.004 A 
ATOM     21  C   UNL     1      -1.829  -5.958   5.993  0.00  0.00    +0.005 A 
ATOM     22  C   UNL     1      -1.745  -4.600   5.757  0.00  0.00    -0.029 A 
ATOM     23  C   UNL     1      -2.934  -3.713   6.022  0.00  0.00    +0.045 C 
ATOM     24  C   UNL     1       1.630  -7.120   5.017  0.00  0.00    +0.044 C 
ENDBRANCH   3  17
BRANCH   7  25
ATOM     25  C   UNL     1       0.193   1.993   5.972  0.00  0.00    -0.023 A 
ATOM     26  C   UNL     1      -0.541   2.246   4.807  0.00  0.00    +0.011 A 
ATOM     27  C   UNL     1      -0.708   3.540   4.368  0.00  0.00    +0.047 A 
ATOM     28  C   UNL     1      -0.150   4.595   5.079  0.00  0.00    +0.131 A 
ATOM     29  C   UNL     1       0.581   4.351   6.236  0.00  0.00    +0.060 A 
ATOM     30  C   UNL     1       0.749   3.061   6.688  0.00  0.00    +0.027 A 
ATOM     31 BR   UNL     1       1.338   5.794   7.196  0.00  0.00    -0.047 Br
BRANCH  28  32
ATOM     32  O   UNL     1      -0.318   5.870   4.641  0.00  0.00    -0.506 OA
ATOM     33  H   UNL     1      -1.105   6.306   4.994  0.00  0.00    +0.292 HD
ENDBRANCH  28  32
ENDBRANCH   7  25
TORSDOF 4
