REMARK  Name = ZINC33058774
REMARK  14 active torsions:
REMARK  status: ('A' for Active; 'I' for Inactive)
REMARK    1  A    between atoms: C_1  and  C_2
REMARK    2  A    between atoms: C_2  and  N_3
REMARK    3  A    between atoms: N_3  and  C_4
REMARK    4  A    between atoms: C_4  and  C_5
REMARK    5  A    between atoms: C_5  and  N_6
REMARK    6  A    between atoms: N_6  and  C_7
REMARK    7  A    between atoms: N_6  and  C_8
REMARK    8  A    between atoms: C_9  and  C_11
REMARK    9  A    between atoms: N_14  and  S_17
REMARK   10  A    between atoms: S_17  and  C_20
REMARK   11  A    between atoms: C_21  and  C_34
REMARK   12  A    between atoms: C_24  and  C_25
REMARK   13  A    between atoms: C_26  and  C_27
REMARK   14  A    between atoms: C_30  and  C_33
REMARK                            x       y       z     vdW  Elec       q    Type
REMARK                         _______ _______ _______ _____ _____    ______ ____
ROOT
ATOM      1  S   UNL     1       0.735  -2.544  -0.908  0.00  0.00    +0.066 S 
ATOM      2  O   UNL     1       1.707  -3.114  -1.773  0.00  0.00    -0.153 OA
ATOM      3  O   UNL     1       0.158  -3.266   0.172  0.00  0.00    -0.153 OA
ENDROOT
BRANCH   1   7
ATOM      4  C   UNL     1       1.790   1.573   0.255  0.00  0.00    +0.078 C 
ATOM      5  C   UNL     1       0.585   0.831   0.839  0.00  0.00    +0.030 C 
ATOM      6  C   UNL     1       0.943  -0.647   1.026  0.00  0.00    +0.110 C 
ATOM      7  N   UNL     1       1.420  -1.184  -0.256  0.00  0.00    -0.176 NA
ATOM      8  C   UNL     1       2.515  -0.492  -0.948  0.00  0.00    +0.110 C 
ATOM      9  C   UNL     1       2.140   0.984  -1.113  0.00  0.00    +0.030 C 
BRANCH   4  11
ATOM     10  N   UNL     1       2.436   3.955   0.094  0.00  0.00    -0.303 N 
ATOM     11  C   UNL     1       1.453   3.034   0.102  0.00  0.00    +0.219 C 
ATOM     12  O   UNL     1       0.296   3.380  -0.015  0.00  0.00    -0.275 OA
BRANCH  10  14
ATOM     13  C   UNL     1       4.380   3.539  -1.331  0.00  0.00    +0.024 C 
ATOM     14  C   UNL     1       3.838   3.530   0.100  0.00  0.00    +0.104 C 
ENDBRANCH  10  14
BRANCH  10  15
ATOM     15  C   UNL     1       2.104   5.382   0.079  0.00  0.00    +0.089 C 
BRANCH  15  16
ATOM     16  C   UNL     1       1.986   5.892   1.517  0.00  0.00    -0.060 C 
BRANCH  16  17
ATOM     17  N   UNL     1       1.652   7.323   1.502  0.00  0.00    +0.377 N 
ATOM     18  C   UNL     1       0.313   7.546   0.941  0.00  0.00    -0.097 C 
ATOM     19  C   UNL     1       1.763   7.903   2.847  0.00  0.00    -0.097 C 
ATOM     20  H   UNL     1       2.380   7.833   0.853  0.00  0.00    -0.083 HD
ENDBRANCH  16  17
ENDBRANCH  15  16
ENDBRANCH  10  15
ENDBRANCH   4  11
ENDBRANCH   1   7
BRANCH   1  21
ATOM     21  C   UNL     1      -0.600  -2.015  -1.930  0.00  0.00    +0.174 A 
ATOM     22  C   UNL     1      -1.948  -1.829  -1.570  0.00  0.00    +0.107 A 
ATOM     23  N   UNL     1      -2.571  -1.431  -2.644  0.00  0.00    -0.081 NA
ATOM     24  O   UNL     1      -1.829  -1.352  -3.595  0.00  0.00    -0.353 OA
ATOM     25  C   UNL     1      -0.569  -1.695  -3.266  0.00  0.00    +0.187 A 
ATOM     26  C   UNL     1      -2.554  -2.044  -0.206  0.00  0.00    +0.071 C 
BRANCH  25  27
ATOM     27  C   UNL     1       0.598  -1.722  -4.152  0.00  0.00    +0.051 C 
ATOM     28  C   UNL     1       0.467  -1.378  -5.448  0.00  0.00    +0.011 C 
BRANCH  28  29
ATOM     29  C   UNL     1       1.640  -1.405  -6.338  0.00  0.00    -0.025 A 
ATOM     30  C   UNL     1       2.891  -1.782  -5.841  0.00  0.00    +0.008 A 
ATOM     31  C   UNL     1       3.983  -1.810  -6.683  0.00  0.00    +0.004 A 
ATOM     32  C   UNL     1       3.845  -1.456  -8.014  0.00  0.00    -0.050 A 
ATOM     33  C   UNL     1       2.611  -1.077  -8.511  0.00  0.00    +0.004 A 
ATOM     34  C   UNL     1       1.508  -1.049  -7.684  0.00  0.00    +0.008 A 
ATOM     35  C   UNL     1       5.045  -1.484  -8.925  0.00  0.00    +0.044 C 
ENDBRANCH  28  29
ENDBRANCH  25  27
ENDBRANCH   1  21
TORSDOF 9
