REMARK  Name = ZINC40900548
REMARK  7 active torsions:
REMARK  status: ('A' for Active; 'I' for Inactive)
REMARK    1  A    between atoms: C_3  and  C_6
REMARK    2  A    between atoms: C_6  and  C_7
REMARK    3  A    between atoms: C_7  and  N_8
REMARK    4  A    between atoms: C_9  and  C_11
REMARK    5  A    between atoms: N_16  and  C_18
REMARK    6  A    between atoms: C_21  and  C_25
REMARK    7  A    between atoms: C_27  and  C_30
REMARK                            x       y       z     vdW  Elec       q    Type
REMARK                         _______ _______ _______ _____ _____    ______ ____
ROOT
ATOM      1  C   UNL     1      10.067   4.906   4.643  0.00  0.00    +0.065 A 
ATOM      2  C   UNL     1      10.093   6.136   3.997  0.00  0.00    +0.027 A 
ATOM      3  C   UNL     1      10.539   7.257   4.663  0.00  0.00    +0.013 A 
ATOM      4  C   UNL     1      10.965   7.158   5.987  0.00  0.00    +0.025 A 
ATOM      5  C   UNL     1      10.938   5.923   6.635  0.00  0.00    +0.052 A 
ATOM      6  C   UNL     1      10.486   4.804   5.967  0.00  0.00    +0.145 A 
ATOM      7  F   UNL     1      10.455   3.609   6.595  0.00  0.00    -0.204 F 
ENDROOT
BRANCH   1  12
ATOM      8  C   UNL     1       7.697   3.238   2.554  0.00  0.00    +0.092 C 
ATOM      9  C   UNL     1       8.594   2.237   1.821  0.00  0.00    +0.016 C 
ATOM     10  C   UNL     1      10.028   2.770   1.780  0.00  0.00    +0.020 C 
ATOM     11  C   UNL     1      10.550   2.928   3.211  0.00  0.00    +0.105 C 
ATOM     12  N   UNL     1       9.614   3.772   3.966  0.00  0.00    -0.327 N 
ATOM     13  C   UNL     1       8.193   3.402   3.994  0.00  0.00    +0.118 C 
BRANCH   8  15
ATOM     14  N   UNL     1       5.633   2.506   1.403  0.00  0.00    -0.315 N 
ATOM     15  C   UNL     1       6.279   2.728   2.565  0.00  0.00    +0.218 C 
ATOM     16  O   UNL     1       5.718   2.518   3.620  0.00  0.00    -0.275 OA
ATOM     17  H   UNL     1       6.082   2.674   0.560  0.00  0.00    +0.149 HD
BRANCH  14  18
ATOM     18  C   UNL     1       4.255   2.011   1.414  0.00  0.00    +0.109 C 
BRANCH  18  19
ATOM     19  C   UNL     1       3.761   1.845  -0.024  0.00  0.00    +0.061 C 
BRANCH  19  22
ATOM     20  C   UNL     1      -0.016   1.351   0.009  0.00  0.00    +0.008 A 
ATOM     21  C   UNL     1       1.183   2.038   0.002  0.00  0.00    +0.011 A 
ATOM     22  C   UNL     1       2.343   1.336  -0.013  0.00  0.00    -0.009 A 
ATOM     23  S   UNL     1       1.754  -0.349  -0.017  0.00  0.00    -0.102 S 
ATOM     24  C   UNL     1       0.002  -0.004   0.002  0.00  0.00    +0.045 A 
ENDBRANCH  19  22
ENDBRANCH  18  19
ENDBRANCH  14  18
ENDBRANCH   8  15
ENDBRANCH   1  12
BRANCH   4  25
ATOM     25  C   UNL     1      11.445   8.363   6.705  0.00  0.00    +0.202 A 
ATOM     26  N   UNL     1      11.884   8.394   7.974  0.00  0.00    -0.187 NA
ATOM     27  C   UNL     1      12.233   9.618   8.297  0.00  0.00    +0.259 A 
ATOM     28  O   UNL     1      12.025  10.411   7.231  0.00  0.00    -0.332 OA
ATOM     29  N   UNL     1      11.517   9.573   6.203  0.00  0.00    -0.056 NA
BRANCH  27  30
ATOM     30  C   UNL     1      12.764  10.050   9.606  0.00  0.00    +0.043 A 
ATOM     31  C   UNL     1      12.938   9.119  10.632  0.00  0.00    +0.017 A 
ATOM     32  C   UNL     1      13.433   9.523  11.853  0.00  0.00    +0.050 A 
ATOM     33  C   UNL     1      13.760  10.855  12.068  0.00  0.00    +0.166 A 
ATOM     34  C   UNL     1      13.589  11.790  11.046  0.00  0.00    +0.167 A 
ATOM     35  C   UNL     1      13.098  11.389   9.819  0.00  0.00    +0.062 A 
ATOM     36  O   UNL     1      13.980  13.014  11.507  0.00  0.00    -0.453 OA
ATOM     37  C   UNL     1      14.005  12.895  12.941  0.00  0.00    +0.466 C 
ATOM     38  O   UNL     1      14.258  11.495  13.165  0.00  0.00    -0.453 OA
ENDBRANCH  27  30
ENDBRANCH   4  25
TORSDOF 7
