REMARK  Name = ZINC09154279
REMARK  10 active torsions:
REMARK  status: ('A' for Active; 'I' for Inactive)
REMARK    1  A    between atoms: C_1  and  C_2
REMARK    2  A    between atoms: C_4  and  C_13
REMARK    3  A    between atoms: C_5  and  C_12
REMARK    4  A    between atoms: C_13  and  C_15
REMARK    5  A    between atoms: C_15  and  S_16
REMARK    6  A    between atoms: S_16  and  C_17
REMARK    7  A    between atoms: C_20  and  S_23
REMARK    8  A    between atoms: S_23  and  N_26
REMARK    9  A    between atoms: N_26  and  C_27
REMARK   10  A    between atoms: N_26  and  C_28
REMARK                            x       y       z     vdW  Elec       q    Type
REMARK                         _______ _______ _______ _____ _____    ______ ____
ROOT
ATOM      1  C   UNL     1       0.044  -4.626  -5.422  0.00  0.00    +0.097 A 
ATOM      2  C   UNL     1       0.049  -5.701  -6.307  0.00  0.00    +0.037 A 
ATOM      3  C   UNL     1       0.041  -5.452  -7.667  0.00  0.00    +0.032 A 
ATOM      4  C   UNL     1       0.027  -4.131  -8.099  0.00  0.00    +0.124 A 
ATOM      5  C   UNL     1       0.022  -3.114  -7.166  0.00  0.00    +0.140 A 
ATOM      6  N   UNL     1       0.025  -3.381  -5.873  0.00  0.00    -0.247 NA
ENDROOT
BRANCH   4   7
ATOM      7  S   UNL     1       0.016  -3.759  -9.821  0.00  0.00    +0.062 S 
ATOM      8  O   UNL     1       0.554  -2.451  -9.957  0.00  0.00    -0.153 OA
ATOM      9  O   UNL     1       0.574  -4.885 -10.484  0.00  0.00    -0.153 OA
BRANCH   7  10
ATOM     10  N   UNL     1      -1.569  -3.670 -10.293  0.00  0.00    -0.177 NA
ATOM     11  C   UNL     1      -2.280  -2.390 -10.233  0.00  0.00    +0.132 C 
BRANCH  10  12
ATOM     12  C   UNL     1      -2.260  -4.870 -10.769  0.00  0.00    +0.080 C 
ATOM     13  C   UNL     1      -2.740  -4.647 -12.205  0.00  0.00    +0.020 C 
ATOM     14  C   UNL     1      -3.461  -5.901 -12.703  0.00  0.00    +0.002 C 
ATOM     15  C   UNL     1      -4.664  -6.188 -11.803  0.00  0.00    +0.000 C 
ATOM     16  C   UNL     1      -4.185  -6.412 -10.367  0.00  0.00    +0.002 C 
ATOM     17  C   UNL     1      -3.463  -5.158  -9.869  0.00  0.00    +0.020 C 
ENDBRANCH  10  12
ENDBRANCH   7  10
ENDBRANCH   4   7
BRANCH   1  18
ATOM     18  S   UNL     1       0.055  -4.925  -3.685  0.00  0.00    -0.098 S 
BRANCH  18  19
ATOM     19  C   UNL     1       0.035  -3.265  -2.954  0.00  0.00    +0.155 C 
BRANCH  19  20
ATOM     20  C   UNL     1       0.043  -3.378  -1.451  0.00  0.00    +0.175 C 
ATOM     21  O   UNL     1       0.060  -4.471  -0.925  0.00  0.00    -0.291 OA
BRANCH  20  25
ATOM     22  C   UNL     1      -0.018   1.503   0.010  0.00  0.00    +0.064 C 
ATOM     23  C   UNL     1       0.002  -0.004   0.002  0.00  0.00    +0.024 A 
ATOM     24  C   UNL     1       0.008  -0.777  -1.097  0.00  0.00    +0.034 A 
ATOM     25  C   UNL     1       0.029  -2.169  -0.626  0.00  0.00    +0.039 A 
ATOM     26  C   UNL     1       0.035  -2.103   0.754  0.00  0.00    +0.034 A 
ATOM     27  N   UNL     1       0.024  -0.803   1.112  0.00  0.00    -0.285 N 
ATOM     28  C   UNL     1       0.029  -0.339   2.426  0.00  0.00    +0.256 A 
ATOM     29  N   UNL     1       0.009   0.965   2.826  0.00  0.00    -0.197 NA
ATOM     30  C   UNL     1       0.025   0.935   4.190  0.00  0.00    +0.249 A 
ATOM     31  N   UNL     1       0.053  -0.318   4.551  0.00  0.00    -0.134 NA
ATOM     32  N   UNL     1       0.050  -1.074   3.512  0.00  0.00    -0.109 NA
ATOM     33  C   UNL     1       0.054  -3.279   1.696  0.00  0.00    +0.065 C 
ENDBRANCH  20  25
ENDBRANCH  19  20
ENDBRANCH  18  19
ENDBRANCH   1  18
TORSDOF 7
