REMARK  Name = ZINC07982032
REMARK  6 active torsions:
REMARK  status: ('A' for Active; 'I' for Inactive)
REMARK    1  A    between atoms: C_6  and  C_7
REMARK    2  A    between atoms: C_7  and  O_9
REMARK    3  A    between atoms: O_9  and  C_10
REMARK    4  A    between atoms: C_10  and  C_11
REMARK    5  A    between atoms: N_13  and  C_14
REMARK    6  A    between atoms: C_15  and  C_22
REMARK                            x       y       z     vdW  Elec       q    Type
REMARK                         _______ _______ _______ _____ _____    ______ ____
ROOT
ATOM      1  C   UNL     1      -3.672   1.484   0.028  0.00  0.00    +0.340 C 
ATOM      2  O   UNL     1      -3.848   2.686   0.035  0.00  0.00    -0.245 OA
ENDROOT
BRANCH   1   8
ATOM      3  C   UNL     1      -4.627  -0.818   0.014  0.00  0.00    +0.017 A 
ATOM      4  C   UNL     1      -5.687  -1.675   0.021  0.00  0.00    +0.027 A 
ATOM      5  C   UNL     1      -6.989  -1.182   0.030  0.00  0.00    +0.047 A 
ATOM      6  C   UNL     1      -7.208   0.212   0.038  0.00  0.00    +0.004 A 
ATOM      7  C   UNL     1      -6.123   1.085   0.037  0.00  0.00    +0.025 A 
ATOM      8  C   UNL     1      -4.830   0.570   0.028  0.00  0.00    +0.060 A 
ATOM      9  C   UNL     1      -8.658   0.387   0.044  0.00  0.00    -0.019 A 
ATOM     10  C   UNL     1      -9.210  -0.840   0.043  0.00  0.00    +0.020 A 
ATOM     11  N   UNL     1      -8.224  -1.787   0.034  0.00  0.00    -0.358 N 
ATOM     12  H   UNL     1      -8.374  -2.745   0.031  0.00  0.00    +0.166 HD
ATOM     13  C   UNL     1     -10.701  -1.088   0.050  0.00  0.00    +0.053 C 
ATOM     14  C   UNL     1     -11.407   0.203   0.478  0.00  0.00    +0.006 C 
ATOM     15  C   UNL     1     -10.883   1.375  -0.357  0.00  0.00    +0.005 C 
ATOM     16  C   UNL     1      -9.435   1.678   0.049  0.00  0.00    +0.037 C 
ENDBRANCH   1   8
BRANCH   1  17
ATOM     17  O   UNL     1      -2.420   0.986   0.019  0.00  0.00    -0.452 OA
BRANCH  17  18
ATOM     18  C   UNL     1      -1.330   1.944   0.019  0.00  0.00    +0.328 C 
BRANCH  18  19
ATOM     19  C   UNL     1      -0.014   1.209   0.009  0.00  0.00    +0.255 C 
ATOM     20  O   UNL     1       0.002  -0.004   0.002  0.00  0.00    -0.272 OA
ATOM     21  N   UNL     1       1.143   1.898   0.001  0.00  0.00    -0.276 N 
ATOM     22  H   UNL     1       1.130   2.868   0.007  0.00  0.00    +0.155 HD
BRANCH  21  23
ATOM     23  C   UNL     1       2.355   1.221  -0.014  0.00  0.00    +0.090 A 
ATOM     24  C   UNL     1       3.634   1.747  -0.029  0.00  0.00    +0.084 A 
ATOM     25  C   UNL     1       4.754   0.807  -0.040  0.00  0.00    -0.018 A 
ATOM     26  C   UNL     1       4.407  -0.493  -0.043  0.00  0.00    -0.004 A 
ATOM     27  S   UNL     1       2.631  -0.488  -0.026  0.00  0.00    -0.077 S 
ATOM     28  C   UNL     1       5.610  -1.397  -0.057  0.00  0.00    +0.043 C 
ATOM     29  C   UNL     1       6.784  -0.490   0.374  0.00  0.00    +0.010 C 
ATOM     30  C   UNL     1       6.280   0.902  -0.057  0.00  0.00    +0.037 C 
BRANCH  24  31
ATOM     31  C   UNL     1       3.854   3.162  -0.030  0.00  0.00    +0.102 C 
ATOM     32  N   UNL     1       4.028   4.285  -0.031  0.00  0.00    -0.191 NA
ENDBRANCH  24  31
ENDBRANCH  21  23
ENDBRANCH  18  19
ENDBRANCH  17  18
ENDBRANCH   1  17
TORSDOF 6
