REMARK  Name = ZINC39449486
REMARK  7 active torsions:
REMARK  status: ('A' for Active; 'I' for Inactive)
REMARK    1  A    between atoms: C_1  and  C_2
REMARK    2  A    between atoms: C_2  and  O_3
REMARK    3  A    between atoms: O_3  and  N_4
REMARK    4  A    between atoms: C_12  and  C_15
REMARK    5  A    between atoms: C_20  and  O_21
REMARK    6  A    between atoms: C_23  and  C_28
REMARK    7  A    between atoms: C_33  and  O_34
REMARK                            x       y       z     vdW  Elec       q    Type
REMARK                         _______ _______ _______ _____ _____    ______ ____
ROOT
ATOM      1  N   UNL     1       0.677  -1.730   1.281  0.00  0.00    -0.138 N 
ATOM      2  C   UNL     1      -0.307  -2.470   1.925  0.00  0.00    +0.149 A 
ATOM      3  C   UNL     1      -0.224  -3.848   2.003  0.00  0.00    +0.085 A 
ATOM      4  C   UNL     1       0.912  -4.546   1.390  0.00  0.00    +0.099 A 
ATOM      5  C   UNL     1       1.898  -3.771   0.739  0.00  0.00    +0.070 A 
ATOM      6  C   UNL     1       1.742  -2.310   0.698  0.00  0.00    +0.293 A 
ATOM      7  O   UNL     1       2.578  -1.624   0.139  0.00  0.00    -0.264 OA
ATOM      8  C   UNL     1       2.988  -4.408   0.148  0.00  0.00    +0.025 A 
ATOM      9  C   UNL     1       3.053  -5.800   0.229  0.00  0.00    +0.004 A 
ATOM     10  C   UNL     1       2.036  -6.497   0.891  0.00  0.00    +0.120 A 
ATOM     11  N   UNL     1       1.021  -5.869   1.439  0.00  0.00    -0.252 NA
ATOM     12  N   UNL     1      -1.208  -4.561   2.662  0.00  0.00    -0.333 N 
ATOM     13  C   UNL     1      -1.962  -3.885   3.729  0.00  0.00    +0.112 C 
ATOM     14  C   UNL     1      -2.519  -2.573   3.165  0.00  0.00    +0.108 C 
ATOM     15  C   UNL     1      -1.404  -1.798   2.511  0.00  0.00    +0.187 C 
ATOM     16  O   UNL     1      -1.449  -0.585   2.487  0.00  0.00    -0.290 OA
ATOM     17  H   UNL     1      -1.395  -5.483   2.428  0.00  0.00    +0.147 HD
ENDROOT
BRANCH   9  18
ATOM     18  C   UNL     1       4.188  -6.533  -0.381  0.00  0.00    +0.025 A 
ATOM     19  C   UNL     1       4.564  -6.271  -1.697  0.00  0.00    +0.012 A 
ATOM     20  C   UNL     1       5.621  -6.956  -2.260  0.00  0.00    +0.001 A 
ATOM     21  C   UNL     1       6.312  -7.901  -1.522  0.00  0.00    +0.004 A 
ATOM     22  C   UNL     1       5.948  -8.168  -0.216  0.00  0.00    +0.046 A 
ATOM     23  C   UNL     1       4.891  -7.485   0.364  0.00  0.00    +0.125 A 
BRANCH  23  24
ATOM     24  O   UNL     1       4.537  -7.743   1.649  0.00  0.00    -0.506 OA
ATOM     25  H   UNL     1       3.879  -8.446   1.742  0.00  0.00    +0.292 HD
ENDBRANCH  23  24
ENDBRANCH   9  18
BRANCH  13  26
ATOM     26  C   UNL     1      -1.049  -3.593   4.891  0.00  0.00    +0.014 A 
ATOM     27  C   UNL     1       0.321  -3.619   4.718  0.00  0.00    +0.009 A 
ATOM     28  C   UNL     1       1.160  -3.352   5.784  0.00  0.00    +0.001 A 
ATOM     29  C   UNL     1       0.629  -3.058   7.027  0.00  0.00    +0.004 A 
ATOM     30  C   UNL     1      -0.740  -3.031   7.206  0.00  0.00    +0.046 A 
ATOM     31  C   UNL     1      -1.584  -3.293   6.136  0.00  0.00    +0.122 A 
BRANCH  31  32
ATOM     32  O   UNL     1      -2.931  -3.262   6.308  0.00  0.00    -0.506 OA
ATOM     33  H   UNL     1      -3.315  -4.111   6.568  0.00  0.00    +0.292 HD
ENDBRANCH  31  32
ENDBRANCH  13  26
BRANCH   1  34
ATOM     34  O   UNL     1       0.552  -0.321   1.231  0.00  0.00    -0.408 OA
BRANCH  34  36
ATOM     35  C   UNL     1      -0.238   1.687   0.142  0.00  0.00    +0.051 C 
ATOM     36  C   UNL     1      -0.165   0.159   0.092  0.00  0.00    +0.257 C 
ENDBRANCH  34  36
ENDBRANCH   1  34
TORSDOF 6
