REMARK  Name = ZINC39988945
REMARK  5 active torsions:
REMARK  status: ('A' for Active; 'I' for Inactive)
REMARK    1  A    between atoms: C_1  and  C_2
REMARK    2  A    between atoms: C_6  and  C_8
REMARK    3  A    between atoms: C_11  and  C_35
REMARK    4  A    between atoms: C_14  and  C_16
REMARK    5  A    between atoms: C_18  and  C_29
REMARK                            x       y       z     vdW  Elec       q    Type
REMARK                         _______ _______ _______ _____ _____    ______ ____
ROOT
ATOM      1  C   UNL     1      -0.354  -2.366   1.748  0.00  0.00    +0.266 C 
ATOM      2  O   UNL     1      -0.365  -1.604   2.695  0.00  0.00    -0.268 OA
ATOM      3  N   UNL     1      -0.408  -3.697   1.953  0.00  0.00    -0.178 N 
ATOM      4  C   UNL     1      -0.614  -4.357   3.254  0.00  0.00    +0.173 C 
ATOM      5  C   UNL     1      -0.588  -5.857   2.897  0.00  0.00    +0.086 C 
ATOM      6  C   UNL     1      -0.366  -5.868   1.401  0.00  0.00    +0.056 C 
ATOM      7  N   UNL     1      -0.286  -4.676   0.970  0.00  0.00    -0.184 NA
ENDROOT
BRANCH   6   8
ATOM      8  C   UNL     1      -0.261  -7.107   0.550  0.00  0.00    +0.152 C 
ATOM      9  C   UNL     1       0.176  -6.682  -0.839  0.00  0.00    -0.014 C 
ATOM     10  C   UNL     1      -0.665  -7.023  -1.901  0.00  0.00    +0.002 A 
ATOM     11  C   UNL     1      -0.334  -6.667  -3.226  0.00  0.00    +0.030 A 
ATOM     12  C   UNL     1      -1.171  -7.012  -4.242  0.00  0.00    +0.042 A 
ATOM     13  C   UNL     1      -2.353  -7.712  -4.002  0.00  0.00    +0.022 A 
ATOM     14  C   UNL     1      -2.725  -8.083  -2.746  0.00  0.00    +0.025 A 
ATOM     15  C   UNL     1      -1.908  -7.760  -1.647  0.00  0.00    +0.041 A 
ATOM     16  N   UNL     1      -2.276  -8.125  -0.414  0.00  0.00    -0.284 N 
ATOM     17  C   UNL     1      -1.567  -7.861   0.665  0.00  0.00    +0.230 C 
ATOM     18  O   UNL     1      -1.964  -8.225   1.756  0.00  0.00    -0.274 OA
ATOM     19 CL   UNL     1      -0.760  -6.572  -5.870  0.00  0.00    -0.084 Cl
ATOM     20  H   UNL     1      -3.108  -8.611  -0.309  0.00  0.00    +0.155 HD
BRANCH   9  21
ATOM     21  C   UNL     1       1.384  -5.970  -1.050  0.00  0.00    -0.020 A 
ATOM     22  C   UNL     1       1.401  -4.837  -1.880  0.00  0.00    +0.008 A 
ATOM     23  C   UNL     1       2.580  -4.153  -2.078  0.00  0.00    +0.001 A 
ATOM     24  C   UNL     1       3.746  -4.579  -1.462  0.00  0.00    +0.000 A 
ATOM     25  C   UNL     1       3.739  -5.695  -0.641  0.00  0.00    +0.001 A 
ATOM     26  C   UNL     1       2.570  -6.390  -0.425  0.00  0.00    +0.008 A 
ENDBRANCH   9  21
ENDBRANCH   6   8
BRANCH   1  32
ATOM     27  C   UNL     1       0.244   1.489  -1.363  0.00  0.00    +0.044 C 
ATOM     28  C   UNL     1       0.007   0.019  -1.130  0.00  0.00    -0.050 A 
ATOM     29  C   UNL     1      -0.141  -0.836  -2.208  0.00  0.00    +0.003 A 
ATOM     30  C   UNL     1      -0.358  -2.186  -2.003  0.00  0.00    +0.001 A 
ATOM     31  C   UNL     1      -0.428  -2.690  -0.721  0.00  0.00    +0.013 A 
ATOM     32  C   UNL     1      -0.279  -1.833   0.371  0.00  0.00    +0.039 A 
ATOM     33  C   UNL     1      -0.055  -0.472   0.157  0.00  0.00    +0.016 A 
ENDBRANCH   1  32
BRANCH   4  34
ATOM     34  C   UNL     1       0.503  -4.014   4.206  0.00  0.00    +0.128 A 
ATOM     35  C   UNL     1       0.369  -3.783   5.524  0.00  0.00    +0.046 A 
ATOM     36  C   UNL     1       1.661  -3.500   6.024  0.00  0.00    +0.041 A 
ATOM     37  C   UNL     1       2.507  -3.576   4.981  0.00  0.00    +0.195 A 
ATOM     38  O   UNL     1       1.801  -3.893   3.884  0.00  0.00    -0.466 OA
ENDBRANCH   4  34
TORSDOF 4
