REMARK  Name = ZINC34997880
REMARK  13 active torsions:
REMARK  status: ('A' for Active; 'I' for Inactive)
REMARK    1  A    between atoms: C_1  and  C_2
REMARK    2  A    between atoms: C_2  and  C_38
REMARK    3  A    between atoms: C_7  and  C_11
REMARK    4  A    between atoms: C_11  and  N_12
REMARK    5  A    between atoms: N_12  and  C_13
REMARK    6  A    between atoms: C_13  and  C_14
REMARK    7  A    between atoms: C_14  and  N_15
REMARK    8  A    between atoms: N_23  and  C_24
REMARK    9  A    between atoms: C_31  and  C_33
REMARK   10  A    between atoms: C_33  and  C_34
REMARK   11  A    between atoms: C_34  and  C_35
REMARK   12  A    between atoms: C_34  and  C_36
REMARK   13  A    between atoms: C_34  and  C_37
REMARK                            x       y       z     vdW  Elec       q    Type
REMARK                         _______ _______ _______ _____ _____    ______ ____
ROOT
ATOM      1  C   UNL     1       2.322  -2.537   3.746  0.00  0.00    +0.123 C 
ENDROOT
BRANCH   1   2
ATOM      2  N   UNL     1       1.243  -1.558   3.597  0.00  0.00    -0.296 N 
ATOM      3  C   UNL     1       0.437  -1.279   4.641  0.00  0.00    +0.216 C 
ATOM      4  O   UNL     1       0.662  -1.767   5.728  0.00  0.00    -0.276 OA
BRANCH   2   5
ATOM      5  C   UNL     1       1.039  -0.881   2.313  0.00  0.00    +0.138 C 
BRANCH   5  11
ATOM      6  C   UNL     1      -0.120  -1.461  -1.360  0.00  0.00    +0.012 C 
ATOM      7  C   UNL     1       0.022  -2.869  -0.778  0.00  0.00    -0.025 C 
ATOM      8  C   UNL     1      -1.264  -3.404  -0.116  0.00  0.00    -0.000 C 
ATOM      9  C   UNL     1      -2.073  -2.258   0.509  0.00  0.00    +0.031 C 
ATOM     10  C   UNL     1      -1.174  -1.419   1.385  0.00  0.00    -0.025 C 
ATOM     11  C   UNL     1       0.107  -1.699   1.457  0.00  0.00    -0.053 C 
ATOM     12  C   UNL     1       0.620  -2.900   0.641  0.00  0.00    +0.022 C 
ATOM     13  C   UNL     1      -0.322  -4.106   0.877  0.00  0.00    +0.012 C 
ATOM     14  C   UNL     1       0.678  -3.854  -1.748  0.00  0.00    +0.012 C 
ENDBRANCH   5  11
ENDBRANCH   2   5
BRANCH   3  15
ATOM     15  C   UNL     1      -0.744  -0.361   4.457  0.00  0.00    +0.102 C 
BRANCH  15  16
ATOM     16  C   UNL     1      -1.427  -0.132   5.807  0.00  0.00    -0.029 C 
ATOM     17  C   UNL     1      -0.433   0.504   6.780  0.00  0.00    +0.011 C 
ATOM     18  C   UNL     1      -2.626   0.800   5.620  0.00  0.00    +0.011 C 
ATOM     19  C   UNL     1      -1.906  -1.472   6.369  0.00  0.00    +0.011 C 
ENDBRANCH  15  16
ENDBRANCH   3  15
ENDBRANCH   1   2
BRANCH   1  20
ATOM     20  C   UNL     1       3.595  -1.827   4.210  0.00  0.00    +0.103 C 
BRANCH  20  21
ATOM     21  N   UNL     1       4.677  -2.809   4.359  0.00  0.00    -0.298 NA
ATOM     22  C   UNL     1       5.045  -3.389   3.060  0.00  0.00    +0.103 C 
ATOM     23  C   UNL     1       6.042  -4.532   3.279  0.00  0.00    +0.124 C 
ATOM     24  N   UNL     1       7.170  -4.022   4.074  0.00  0.00    -0.283 N 
ATOM     25  C   UNL     1       6.872  -3.306   5.324  0.00  0.00    +0.124 C 
ATOM     26  C   UNL     1       5.842  -2.212   5.025  0.00  0.00    +0.103 C 
ATOM     27  C   UNL     1       8.442  -4.207   3.668  0.00  0.00    +0.307 C 
ATOM     28  O   UNL     1       8.674  -4.878   2.681  0.00  0.00    -0.252 OA
ATOM     29  N   UNL     1       9.456  -3.647   4.356  0.00  0.00    -0.267 N 
ATOM     30  H   UNL     1       9.278  -3.177   5.186  0.00  0.00    +0.156 HD
BRANCH  29  31
ATOM     31  C   UNL     1      10.768  -3.744   3.873  0.00  0.00    +0.070 A 
ATOM     32  C   UNL     1      10.997  -3.968   2.523  0.00  0.00    +0.026 A 
ATOM     33  C   UNL     1      12.291  -4.064   2.050  0.00  0.00    +0.002 A 
ATOM     34  C   UNL     1      13.359  -3.936   2.919  0.00  0.00    +0.003 A 
ATOM     35  C   UNL     1      13.136  -3.713   4.265  0.00  0.00    +0.040 A 
ATOM     36  C   UNL     1      11.843  -3.611   4.745  0.00  0.00    +0.145 A 
ATOM     37  F   UNL     1      11.624  -3.387   6.059  0.00  0.00    -0.204 F 
ENDBRANCH  29  31
ENDBRANCH  20  21
ENDBRANCH   1  20
TORSDOF 8
