REMARK  Name = ZINC40246878
REMARK  4 active torsions:
REMARK  status: ('A' for Active; 'I' for Inactive)
REMARK    1  A    between atoms: C_1  and  C_2
REMARK    2  A    between atoms: C_6  and  C_7
REMARK    3  A    between atoms: C_7  and  C_9
REMARK    4  A    between atoms: C_7  and  O_22
REMARK                            x       y       z     vdW  Elec       q    Type
REMARK                         _______ _______ _______ _____ _____    ______ ____
ROOT
ATOM      1  C   UNL     1      -1.334  -0.584   3.118  0.00  0.00    -0.010 A 
ATOM      2  C   UNL     1      -1.666  -1.817   3.649  0.00  0.00    +0.008 A 
ATOM      3  C   UNL     1      -2.914  -2.015   4.198  0.00  0.00    +0.025 A 
ATOM      4  C   UNL     1      -3.853  -0.981   4.226  0.00  0.00    +0.055 A 
ATOM      5  C   UNL     1      -3.521   0.254   3.694  0.00  0.00    +0.055 A 
ATOM      6  C   UNL     1      -2.251   0.445   3.145  0.00  0.00    +0.031 A 
ATOM      7  N   UNL     1      -4.385   1.345   3.675  0.00  0.00    -0.284 N 
ATOM      8  C   UNL     1      -5.685   1.299   3.395  0.00  0.00    +0.226 C 
ATOM      9  O   UNL     1      -6.325   2.329   3.371  0.00  0.00    -0.275 OA
ATOM     10  C   UNL     1      -6.377  -0.008   3.107  0.00  0.00    +0.192 C 
ATOM     11  C   UNL     1      -6.271  -0.878   4.333  0.00  0.00    +0.226 C 
ATOM     12  O   UNL     1      -7.282  -1.229   4.903  0.00  0.00    -0.275 OA
ATOM     13  N   UNL     1      -5.088  -1.270   4.800  0.00  0.00    -0.284 N 
ATOM     14  H   UNL     1      -4.006   2.214   3.883  0.00  0.00    +0.155 HD
ATOM     15  H   UNL     1      -5.086  -1.802   5.611  0.00  0.00    +0.155 HD
ENDROOT
BRANCH   1  16
ATOM     16  C   UNL     1       0.030  -0.363   2.516  0.00  0.00    +0.210 C 
BRANCH  16  22
ATOM     17  C   UNL     1      -0.018   1.503   0.010  0.00  0.00    +0.047 C 
ATOM     18  C   UNL     1       0.002  -0.004   0.002  0.00  0.00    -0.007 A 
ATOM     19  C   UNL     1       0.009  -0.840  -1.138  0.00  0.00    +0.045 A 
ATOM     20  C   UNL     1       0.029  -2.109  -0.691  0.00  0.00    +0.195 A 
ATOM     21  O   UNL     1       0.034  -2.085   0.652  0.00  0.00    -0.465 OA
ATOM     22  C   UNL     1       0.023  -0.811   1.078  0.00  0.00    +0.140 A 
ENDBRANCH  16  22
BRANCH  16  23
ATOM     23  O   UNL     1       1.000  -1.117   3.246  0.00  0.00    -0.379 OA
ATOM     24  H   UNL     1       0.839  -2.070   3.245  0.00  0.00    +0.211 HD
ENDBRANCH  16  23
ENDBRANCH   1  16
TORSDOF 3
