REMARK  Name = ZINC32109525
REMARK  14 active torsions:
REMARK  status: ('A' for Active; 'I' for Inactive)
REMARK    1  A    between atoms: C_1  and  C_2
REMARK    2  A    between atoms: C_2  and  O_3
REMARK    3  A    between atoms: O_3  and  C_4
REMARK    4  A    between atoms: C_4  and  C_6
REMARK    5  A    between atoms: C_6  and  S_7
REMARK    6  A    between atoms: S_7  and  C_8
REMARK    7  A    between atoms: C_8  and  C_9
REMARK    8  A    between atoms: C_9  and  O_10
REMARK    9  A    between atoms: O_10  and  C_11
REMARK   10  A    between atoms: C_14  and  C_19
REMARK   11  A    between atoms: C_16  and  O_17
REMARK   12  A    between atoms: O_17  and  C_18
REMARK   13  A    between atoms: N_26  and  C_29
REMARK   14  A    between atoms: C_34  and  C_35
REMARK                            x       y       z     vdW  Elec       q    Type
REMARK                         _______ _______ _______ _____ _____    ______ ____
ROOT
ATOM      1  C   UNL     1      -5.990  -8.126  -0.283  0.00  0.00    +0.162 A 
ATOM      2  C   UNL     1      -5.042  -9.046  -0.717  0.00  0.00    +0.050 A 
ATOM      3  C   UNL     1      -5.290 -10.386  -0.627  0.00  0.00    +0.012 A 
ATOM      4  C   UNL     1      -6.506 -10.842  -0.095  0.00  0.00    -0.020 A 
ATOM      5  C   UNL     1      -7.465  -9.916   0.344  0.00  0.00    +0.057 A 
ATOM      6  C   UNL     1      -7.202  -8.565   0.254  0.00  0.00    +0.162 A 
ENDROOT
BRANCH   4   7
ATOM      7  C   UNL     1      -6.773 -12.276  -0.000  0.00  0.00    +0.026 C 
ATOM      8  C   UNL     1      -5.802 -13.130   0.498  0.00  0.00    +0.102 C 
ATOM      9  C   UNL     1      -5.942 -14.592   0.403  0.00  0.00    +0.276 C 
ATOM     10  O   UNL     1      -7.028 -15.145  -0.175  0.00  0.00    -0.268 OA
ATOM     11  N   UNL     1      -4.978 -15.350   0.898  0.00  0.00    -0.123 NA
ATOM     12  C   UNL     1      -3.896 -14.832   1.473  0.00  0.00    +0.340 C 
ATOM     13  O   UNL     1      -3.052 -15.597   1.905  0.00  0.00    -0.250 OA
ATOM     14  N   UNL     1      -3.683 -13.514   1.603  0.00  0.00    -0.188 N 
ATOM     15  C   UNL     1      -4.577 -12.614   1.141  0.00  0.00    +0.264 C 
ATOM     16  O   UNL     1      -4.382 -11.419   1.255  0.00  0.00    -0.269 OA
BRANCH  14  17
ATOM     17  C   UNL     1      -2.510 -13.064   2.224  0.00  0.00    +0.049 A 
ATOM     18  C   UNL     1      -1.372 -12.820   1.468  0.00  0.00    +0.024 A 
ATOM     19  C   UNL     1      -0.217 -12.377   2.083  0.00  0.00    +0.002 A 
ATOM     20  C   UNL     1      -0.195 -12.175   3.450  0.00  0.00    +0.000 A 
ATOM     21  C   UNL     1      -1.327 -12.417   4.207  0.00  0.00    +0.005 A 
ATOM     22  C   UNL     1      -2.486 -12.855   3.596  0.00  0.00    -0.029 A 
ATOM     23  C   UNL     1      -3.721 -13.113   4.420  0.00  0.00    +0.045 C 
ENDBRANCH  14  17
ENDBRANCH   4   7
BRANCH   6  24
ATOM     24  O   UNL     1      -8.123  -7.662   0.682  0.00  0.00    -0.491 OA
ATOM     25  C   UNL     1      -9.341  -8.182   1.220  0.00  0.00    +0.277 C 
ENDBRANCH   6  24
BRANCH   1  26
ATOM     26  O   UNL     1      -5.733  -6.797  -0.376  0.00  0.00    -0.487 OA
BRANCH  26  27
ATOM     27  C   UNL     1      -4.474  -6.417  -0.934  0.00  0.00    +0.240 C 
BRANCH  27  28
ATOM     28  C   UNL     1      -4.367  -4.891  -0.957  0.00  0.00    +0.110 C 
BRANCH  28  29
ATOM     29  S   UNL     1      -2.769  -4.407  -1.667  0.00  0.00    -0.146 S 
BRANCH  29  30
ATOM     30  C   UNL     1      -2.799  -2.594  -1.623  0.00  0.00    +0.189 C 
BRANCH  30  31
ATOM     31  C   UNL     1      -1.512  -2.056  -2.192  0.00  0.00    +0.317 C 
ATOM     32  O   UNL     1      -0.661  -2.818  -2.586  0.00  0.00    -0.250 OA
BRANCH  31  33
ATOM     33  O   UNL     1      -1.310  -0.731  -2.260  0.00  0.00    -0.464 OA
BRANCH  33  35
ATOM     34  C   UNL     1      -0.020   1.238  -2.807  0.00  0.00    +0.048 C 
ATOM     35  C   UNL     1      -0.067  -0.291  -2.811  0.00  0.00    +0.229 C 
ENDBRANCH  33  35
ENDBRANCH  31  33
ENDBRANCH  30  31
ENDBRANCH  29  30
ENDBRANCH  28  29
ENDBRANCH  27  28
ENDBRANCH  26  27
ENDBRANCH   1  26
TORSDOF 11
