REMARK  Name = ZINC06462280
REMARK  13 active torsions:
REMARK  status: ('A' for Active; 'I' for Inactive)
REMARK    1  A    between atoms: C_1  and  C_2
REMARK    2  A    between atoms: C_2  and  C_3
REMARK    3  A    between atoms: C_3  and  C_4
REMARK    4  A    between atoms: C_3  and  C_5
REMARK    5  A    between atoms: C_3  and  N_6
REMARK    6  A    between atoms: C_7  and  C_9
REMARK    7  A    between atoms: C_9  and  C_11
REMARK    8  A    between atoms: C_9  and  N_17
REMARK    9  A    between atoms: C_14  and  C_16
REMARK   10  A    between atoms: N_17  and  C_18
REMARK   11  A    between atoms: C_28  and  C_30
REMARK   12  A    between atoms: C_31  and  N_38
REMARK   13  A    between atoms: C_32  and  C_35
REMARK                            x       y       z     vdW  Elec       q    Type
REMARK                         _______ _______ _______ _____ _____    ______ ____
ROOT
ATOM      1  N   UNL     1       3.876  -0.506  -0.628  0.00  0.00    -0.248 N 
ATOM      2  C   UNL     1       2.995   0.317  -0.026  0.00  0.00    +0.262 C 
ATOM      3  O   UNL     1       3.360   1.405   0.382  0.00  0.00    -0.269 OA
ENDROOT
BRANCH   1   4
ATOM      4  C   UNL     1       5.229  -0.153  -0.701  0.00  0.00    +0.042 A 
ATOM      5  C   UNL     1       6.158  -1.059  -1.194  0.00  0.00    +0.027 A 
ATOM      6  C   UNL     1       7.493  -0.711  -1.264  0.00  0.00    +0.051 A 
ATOM      7  C   UNL     1       7.909   0.543  -0.842  0.00  0.00    +0.162 A 
ATOM      8  C   UNL     1       6.981   1.454  -0.351  0.00  0.00    +0.164 A 
ATOM      9  C   UNL     1       5.641   1.103  -0.280  0.00  0.00    +0.073 A 
ATOM     10  O   UNL     1       7.369   2.692   0.059  0.00  0.00    -0.485 OA
ATOM     11  C   UNL     1       8.764   2.876   0.322  0.00  0.00    +0.270 C 
ATOM     12  C   UNL     1       9.558   2.258  -0.837  0.00  0.00    +0.270 C 
ATOM     13  O   UNL     1       9.231   0.866  -0.911  0.00  0.00    -0.485 OA
ENDBRANCH   1   4
BRANCH   2  14
ATOM     14  C   UNL     1       1.600  -0.096   0.138  0.00  0.00    +0.116 A 
ATOM     15  C   UNL     1       0.441   0.682   0.141  0.00  0.00    +0.076 A 
ATOM     16  C   UNL     1      -0.713  -0.080   0.327  0.00  0.00    +0.155 A 
ATOM     17  N   UNL     1      -0.607  -1.382   0.473  0.00  0.00    -0.203 NA
ATOM     18  S   UNL     1       0.928  -1.727   0.380  0.00  0.00    +0.019 S 
BRANCH  16  19
ATOM     19  C   UNL     1      -2.036   0.569   0.359  0.00  0.00    +0.262 C 
ATOM     20  O   UNL     1      -2.126   1.774   0.223  0.00  0.00    -0.269 OA
ATOM     21  N   UNL     1      -3.147  -0.174   0.539  0.00  0.00    -0.324 N 
ATOM     22  H   UNL     1      -3.075  -1.135   0.647  0.00  0.00    +0.145 HD
ATOM     23  H   UNL     1      -4.017   0.253   0.560  0.00  0.00    +0.145 HD
ENDBRANCH  16  19
BRANCH  15  24
ATOM     24  N   UNL     1       0.437   2.061  -0.023  0.00  0.00    -0.355 N 
ATOM     25  H   UNL     1       1.273   2.536  -0.148  0.00  0.00    +0.142 HD
ATOM     26  H   UNL     1      -0.401   2.548  -0.012  0.00  0.00    +0.142 HD
ENDBRANCH  15  24
ENDBRANCH   2  14
BRANCH   1  27
ATOM     27  C   UNL     1       3.417  -1.772  -1.207  0.00  0.00    +0.233 C 
BRANCH  27  28
ATOM     28  C   UNL     1       3.793  -1.822  -2.666  0.00  0.00    +0.135 A 
ATOM     29  C   UNL     1       3.104  -2.452  -3.634  0.00  0.00    +0.047 A 
ATOM     30  C   UNL     1       3.808  -2.240  -4.842  0.00  0.00    +0.045 A 
ATOM     31  C   UNL     1       4.889  -1.500  -4.538  0.00  0.00    +0.102 A 
ATOM     32  O   UNL     1       4.874  -1.249  -3.219  0.00  0.00    -0.462 OA
ATOM     33  C   UNL     1       5.938  -1.031  -5.513  0.00  0.00    +0.086 C 
ENDBRANCH  27  28
BRANCH  27  35
ATOM     34  N   UNL     1       3.784  -4.190  -0.836  0.00  0.00    -0.308 N 
ATOM     35  C   UNL     1       4.068  -2.921  -0.482  0.00  0.00    +0.242 C 
ATOM     36  O   UNL     1       4.848  -2.704   0.422  0.00  0.00    -0.273 OA
ATOM     37  H   UNL     1       3.160  -4.363  -1.559  0.00  0.00    +0.149 HD
BRANCH  34  38
ATOM     38  C   UNL     1       4.416  -5.307  -0.131  0.00  0.00    +0.029 C 
ATOM     39  C   UNL     1       5.935  -5.213  -0.284  0.00  0.00    +0.031 C 
ATOM     40  C   UNL     1       4.048  -5.247   1.353  0.00  0.00    +0.031 C 
BRANCH  38  42
ATOM     41  C   UNL     1       4.585  -7.796   0.012  0.00  0.00    +0.006 C 
ATOM     42  C   UNL     1       3.925  -6.629  -0.725  0.00  0.00    +0.022 C 
ENDBRANCH  38  42
ENDBRANCH  34  38
ENDBRANCH  27  35
ENDBRANCH   1  27
TORSDOF 9
