REMARK  Name = ZINC27329934
REMARK  7 active torsions:
REMARK  status: ('A' for Active; 'I' for Inactive)
REMARK    1  A    between atoms: C_1  and  C_2
REMARK    2  A    between atoms: C_9  and  C_11
REMARK    3  A    between atoms: N_13  and  N_14
REMARK    4  A    between atoms: C_15  and  C_17
REMARK    5  A    between atoms: C_17  and  N_18
REMARK    6  A    between atoms: C_21  and  C_25
REMARK    7  A    between atoms: C_21  and  C_26
REMARK                            x       y       z     vdW  Elec       q    Type
REMARK                         _______ _______ _______ _____ _____    ______ ____
ROOT
ATOM      1  N   UNL     1       0.002  -0.004   0.002  0.00  0.00    -0.233 N 
ATOM      2  C   UNL     1      -1.156  -0.694   0.009  0.00  0.00    +0.247 C 
ATOM      3  O   UNL     1      -2.214  -0.102   0.023  0.00  0.00    -0.273 OA
ATOM      4  H   UNL     1       0.962  -0.541  -0.010  0.00  0.00    +0.173 HD
ENDROOT
BRANCH   1   7
ATOM      5  C   UNL     1       1.141   2.087   0.002  0.00  0.00    +0.267 C 
ATOM      6  O   UNL     1       2.203   1.492  -0.011  0.00  0.00    -0.268 OA
ATOM      7  N   UNL     1      -0.017   1.397   0.010  0.00  0.00    -0.230 N 
ATOM      8  H   UNL     1      -0.977   1.934   0.022  0.00  0.00    +0.173 HD
BRANCH   5  16
ATOM      9  C   UNL     1       3.418   9.304   0.320  0.00  0.00    +0.008 C 
ATOM     10  C   UNL     1       2.387   8.186   0.485  0.00  0.00    -0.009 C 
ATOM     11  C   UNL     1       1.141   8.517  -0.341  0.00  0.00    +0.009 C 
ATOM     12  C   UNL     1       0.021   7.539   0.040  0.00  0.00    +0.043 C 
ATOM     13  C   UNL     1       0.582   6.150   0.029  0.00  0.00    -0.006 A 
ATOM     14  C   UNL     1       1.901   5.795   0.015  0.00  0.00    -0.036 A 
ATOM     15  C   UNL     1       2.182   4.439   0.011  0.00  0.00    +0.024 A 
ATOM     16  C   UNL     1       1.121   3.552   0.010  0.00  0.00    +0.076 A 
ATOM     17  S   UNL     1      -0.279   4.659   0.030  0.00  0.00    -0.088 S 
ATOM     18  C   UNL     1       2.991   6.864   0.011  0.00  0.00    +0.039 C 
ENDBRANCH   5  16
ENDBRANCH   1   7
BRANCH   2  19
ATOM     19  C   UNL     1      -1.135  -2.201   0.001  0.00  0.00    +0.215 C 
BRANCH  19  20
ATOM     20  N   UNL     1      -2.510  -2.708   0.011  0.00  0.00    -0.215 N 
ATOM     21  C   UNL     1      -3.208  -2.981   1.132  0.00  0.00    +0.251 C 
ATOM     22  O   UNL     1      -2.831  -2.858   2.277  0.00  0.00    -0.272 OA
ATOM     23  C   UNL     1      -4.562  -3.472   0.661  0.00  0.00    +0.135 C 
ATOM     24  N   UNL     1      -4.458  -3.420  -0.807  0.00  0.00    -0.281 N 
ATOM     25  C   UNL     1      -3.225  -2.962  -1.090  0.00  0.00    +0.310 C 
ATOM     26  O   UNL     1      -2.808  -2.798  -2.220  0.00  0.00    -0.252 OA
ATOM     27  C   UNL     1      -5.679  -2.549   1.154  0.00  0.00    +0.047 C 
ATOM     28  H   UNL     1      -5.310  -3.730  -1.430  0.00  0.00    +0.152 HD
BRANCH  23  29
ATOM     29  C   UNL     1      -4.800  -4.885   1.127  0.00  0.00    -0.015 A 
ATOM     30  C   UNL     1      -4.304  -5.303   2.347  0.00  0.00    +0.009 A 
ATOM     31  C   UNL     1      -4.527  -6.597   2.778  0.00  0.00    +0.039 A 
ATOM     32  C   UNL     1      -5.237  -7.479   1.981  0.00  0.00    +0.123 A 
ATOM     33  C   UNL     1      -5.729  -7.061   0.756  0.00  0.00    +0.039 A 
ATOM     34  C   UNL     1      -5.510  -5.764   0.330  0.00  0.00    +0.009 A 
ATOM     35  F   UNL     1      -5.449  -8.746   2.398  0.00  0.00    -0.205 F 
ENDBRANCH  23  29
ENDBRANCH  19  20
ENDBRANCH   2  19
TORSDOF 5
