REMARK  Name = ZINC39940299
REMARK  6 active torsions:
REMARK  status: ('A' for Active; 'I' for Inactive)
REMARK    1  A    between atoms: C_1  and  C_2
REMARK    2  A    between atoms: C_5  and  N_9
REMARK    3  A    between atoms: C_18  and  S_19
REMARK    4  A    between atoms: S_19  and  C_20
REMARK    5  A    between atoms: C_20  and  C_21
REMARK    6  A    between atoms: C_21  and  C_23
REMARK                            x       y       z     vdW  Elec       q    Type
REMARK                         _______ _______ _______ _____ _____    ______ ____
ROOT
ATOM      1  N   UNL     1       0.059  -4.172  -0.022  0.00  0.00    -0.255 N 
ATOM      2  C   UNL     1       0.170  -4.838   1.142  0.00  0.00    +0.268 A 
ATOM      3  O   UNL     1       0.254  -4.231   2.196  0.00  0.00    -0.267 OA
ATOM      4  C   UNL     1       0.188  -6.269   1.126  0.00  0.00    +0.076 A 
ATOM      5  C   UNL     1       0.302  -7.187   2.261  0.00  0.00    -0.023 A 
ATOM      6  C   UNL     1       0.295  -8.507   1.983  0.00  0.00    -0.004 A 
ATOM      7  S   UNL     1       0.138  -8.606   0.220  0.00  0.00    -0.073 S 
ATOM      8  C   UNL     1       0.084  -6.869  -0.141  0.00  0.00    +0.117 A 
ATOM      9  N   UNL     1      -0.023  -6.154  -1.254  0.00  0.00    -0.215 NA
ATOM     10  C   UNL     1      -0.043  -4.837  -1.212  0.00  0.00    +0.178 A 
ATOM     11  C   UNL     1       0.398  -9.640   2.958  0.00  0.00    +0.043 C 
ATOM     12  C   UNL     1       0.888  -9.081   4.301  0.00  0.00    +0.005 C 
ATOM     13  C   UNL     1       0.062  -7.839   4.646  0.00  0.00    +0.005 C 
ATOM     14  C   UNL     1       0.424  -6.694   3.700  0.00  0.00    +0.037 C 
ENDROOT
BRANCH   1  19
ATOM     15  C   UNL     1      -0.014   1.503   0.011  0.00  0.00    +0.045 C 
ATOM     16  C   UNL     1       0.005  -0.004   0.002  0.00  0.00    -0.032 A 
ATOM     17  C   UNL     1       1.207  -0.678  -0.110  0.00  0.00    +0.007 A 
ATOM     18  C   UNL     1       1.228  -2.059  -0.118  0.00  0.00    +0.026 A 
ATOM     19  C   UNL     1       0.040  -2.771  -0.013  0.00  0.00    +0.053 A 
ATOM     20  C   UNL     1      -1.165  -2.093   0.099  0.00  0.00    +0.046 A 
ATOM     21  C   UNL     1      -1.180  -0.710   0.112  0.00  0.00    +0.046 A 
ATOM     22 CL   UNL     1      -2.686   0.140   0.260  0.00  0.00    -0.083 Cl
ENDBRANCH   1  19
BRANCH  10  23
ATOM     23  S   UNL     1      -0.194  -3.921  -2.710  0.00  0.00    -0.079 S 
BRANCH  23  24
ATOM     24  C   UNL     1      -0.296  -5.196  -3.996  0.00  0.00    +0.156 C 
BRANCH  24  25
ATOM     25  C   UNL     1      -0.430  -4.539  -5.345  0.00  0.00    +0.172 C 
ATOM     26  O   UNL     1      -0.454  -3.328  -5.431  0.00  0.00    -0.291 OA
BRANCH  25  27
ATOM     27  C   UNL     1      -0.527  -5.331  -6.509  0.00  0.00    +0.024 C 
ATOM     28  C   UNL     1      -0.648  -4.889  -7.814  0.00  0.00    +0.006 A 
ATOM     29  C   UNL     1      -0.713  -3.598  -8.391  0.00  0.00    +0.010 A 
ATOM     30  C   UNL     1      -0.835  -3.456  -9.730  0.00  0.00    +0.001 A 
ATOM     31  C   UNL     1      -0.902  -4.554 -10.602  0.00  0.00    +0.002 A 
ATOM     32  C   UNL     1      -0.850  -5.827 -10.153  0.00  0.00    +0.026 A 
ATOM     33  C   UNL     1      -0.717  -6.071  -8.707  0.00  0.00    +0.043 A 
ATOM     34  N   UNL     1      -0.644  -7.172  -8.014  0.00  0.00    -0.380 N 
ATOM     35  C   UNL     1      -0.513  -6.842  -6.592  0.00  0.00    +0.152 C 
ATOM     36  H   UNL     1      -0.668  -8.069  -8.382  0.00  0.00    +0.160 HD
ENDBRANCH  25  27
ENDBRANCH  24  25
ENDBRANCH  23  24
ENDBRANCH  10  23
TORSDOF 5
