REMARK  Name = ZINC08455748
REMARK  4 active torsions:
REMARK  status: ('A' for Active; 'I' for Inactive)
REMARK    1  A    between atoms: C_1  and  C_2
REMARK    2  A    between atoms: C_5  and  C_8
REMARK    3  A    between atoms: C_13  and  C_18
REMARK    4  A    between atoms: C_33  and  C_35
REMARK                            x       y       z     vdW  Elec       q    Type
REMARK                         _______ _______ _______ _____ _____    ______ ____
ROOT
ATOM      1  C   UNL     1       1.799   4.229  -1.322  0.00  0.00    +0.147 C 
ATOM      2  C   UNL     1       3.243   3.930  -1.649  0.00  0.00    +0.037 C 
ATOM      3  C   UNL     1       3.985   2.946  -1.115  0.00  0.00    +0.017 C 
ATOM      4  C   UNL     1       5.423   2.738  -1.561  0.00  0.00    +0.059 C 
ATOM      5  C   UNL     1       6.056   4.084  -1.913  0.00  0.00    +0.032 C 
ATOM      6  C   UNL     1       5.234   4.703  -3.050  0.00  0.00    +0.088 C 
ATOM      7  C   UNL     1       3.805   4.806  -2.607  0.00  0.00    +0.163 C 
ATOM      8  O   UNL     1       3.105   5.675  -3.089  0.00  0.00    -0.292 OA
ATOM      9  N   UNL     1       3.548   2.068  -0.176  0.00  0.00    -0.316 N 
ATOM     10  C   UNL     1       2.339   1.386  -0.231  0.00  0.00    +0.053 A 
ATOM     11  C   UNL     1       2.272   0.007  -0.331  0.00  0.00    +0.025 A 
ATOM     12  C   UNL     1       1.035  -0.615  -0.321  0.00  0.00    +0.002 A 
ATOM     13  C   UNL     1      -0.122   0.135  -0.202  0.00  0.00    +0.002 A 
ATOM     14  C   UNL     1      -0.057   1.514  -0.111  0.00  0.00    +0.025 A 
ATOM     15  C   UNL     1       1.179   2.140  -0.146  0.00  0.00    +0.059 A 
ATOM     16  N   UNL     1       1.290   3.530  -0.160  0.00  0.00    -0.254 N 
ATOM     17  C   UNL     1       0.917   4.236   0.926  0.00  0.00    +0.252 C 
ATOM     18  O   UNL     1       0.908   5.451   0.888  0.00  0.00    -0.270 OA
ATOM     19  H   UNL     1       4.122   1.905   0.588  0.00  0.00    +0.152 HD
ENDROOT
BRANCH   1  24
ATOM     20  C   UNL     1      -1.447   2.803  -5.885  0.00  0.00    +0.044 C 
ATOM     21  C   UNL     1      -0.600   3.175  -4.696  0.00  0.00    -0.050 A 
ATOM     22  C   UNL     1      -0.658   4.456  -4.179  0.00  0.00    +0.004 A 
ATOM     23  C   UNL     1       0.118   4.797  -3.087  0.00  0.00    +0.006 A 
ATOM     24  C   UNL     1       0.953   3.857  -2.512  0.00  0.00    -0.022 A 
ATOM     25  C   UNL     1       1.015   2.578  -3.032  0.00  0.00    +0.006 A 
ATOM     26  C   UNL     1       0.236   2.236  -4.121  0.00  0.00    +0.004 A 
ENDBRANCH   1  24
BRANCH   5  27
ATOM     27  C   UNL     1       7.479   3.878  -2.365  0.00  0.00    -0.042 A 
ATOM     28  C   UNL     1       7.749   3.057  -3.445  0.00  0.00    +0.004 A 
ATOM     29  C   UNL     1       9.053   2.871  -3.863  0.00  0.00    +0.002 A 
ATOM     30  C   UNL     1      10.089   3.498  -3.195  0.00  0.00    +0.020 A 
ATOM     31  C   UNL     1       9.820   4.314  -2.111  0.00  0.00    +0.041 A 
ATOM     32  C   UNL     1       8.513   4.504  -1.697  0.00  0.00    +0.024 A 
ATOM     33 CL   UNL     1      11.120   5.100  -1.272  0.00  0.00    -0.084 Cl
ENDBRANCH   5  27
BRANCH  17  34
ATOM     34  C   UNL     1       0.520   3.532   2.163  0.00  0.00    +0.037 A 
ATOM     35  C   UNL     1      -0.480   4.061   2.981  0.00  0.00    +0.013 A 
ATOM     36  C   UNL     1      -0.851   3.395   4.131  0.00  0.00    +0.001 A 
ATOM     37  C   UNL     1      -0.225   2.212   4.481  0.00  0.00    +0.000 A 
ATOM     38  C   UNL     1       0.772   1.686   3.679  0.00  0.00    +0.001 A 
ATOM     39  C   UNL     1       1.148   2.338   2.523  0.00  0.00    +0.013 A 
ENDBRANCH  17  34
TORSDOF 3
