REMARK  Name = ZINC13071221
REMARK  11 active torsions:
REMARK  status: ('A' for Active; 'I' for Inactive)
REMARK    1  A    between atoms: C_1  and  C_2
REMARK    2  A    between atoms: C_2  and  C_3
REMARK    3  A    between atoms: C_2  and  C_4
REMARK    4  A    between atoms: C_4  and  C_5
REMARK    5  A    between atoms: C_5  and  N_6
REMARK    6  A    between atoms: N_18  and  C_21
REMARK    7  A    between atoms: C_21  and  N_66
REMARK    8  A    between atoms: C_26  and  O_33
REMARK    9  A    between atoms: C_27  and  O_31
REMARK   10  A    between atoms: O_31  and  C_32
REMARK   11  A    between atoms: O_33  and  C_34
REMARK                            x       y       z     vdW  Elec       q    Type
REMARK                         _______ _______ _______ _____ _____    ______ ____
ROOT
ATOM      1  N   UNL     1      -4.022  10.688  -1.881  0.00  0.00    -0.277 N 
ATOM      2  C   UNL     1      -5.347  10.905  -1.763  0.00  0.00    +0.263 A 
ATOM      3  O   UNL     1      -6.005  11.250  -2.726  0.00  0.00    -0.267 OA
ATOM      4  C   UNL     1      -5.987  10.715  -0.448  0.00  0.00    +0.064 A 
ATOM      5  C   UNL     1      -7.354  10.925  -0.273  0.00  0.00    +0.015 A 
ATOM      6  C   UNL     1      -7.918  10.737   0.972  0.00  0.00    +0.001 A 
ATOM      7  C   UNL     1      -7.133  10.343   2.044  0.00  0.00    +0.002 A 
ATOM      8  C   UNL     1      -5.778  10.132   1.883  0.00  0.00    +0.027 A 
ATOM      9  C   UNL     1      -5.195  10.315   0.638  0.00  0.00    +0.064 A 
ATOM     10  N   UNL     1      -3.830  10.108   0.450  0.00  0.00    -0.257 N 
ATOM     11  C   UNL     1      -3.260  10.293  -0.790  0.00  0.00    +0.238 A 
ATOM     12  N   UNL     1      -1.982  10.044  -0.697  0.00  0.00    -0.133 NA
ATOM     13  N   UNL     1      -1.703   9.677   0.626  0.00  0.00    -0.255 N 
ATOM     14  C   UNL     1      -2.862   9.730   1.312  0.00  0.00    +0.182 A 
ATOM     15  S   UNL     1      -3.070   9.380   2.975  0.00  0.00    -0.011 S 
ENDROOT
BRANCH   1  16
ATOM     16  C   UNL     1      -3.374  10.873  -3.183  0.00  0.00    +0.128 C 
BRANCH  16  17
ATOM     17  C   UNL     1      -3.404   9.555  -3.958  0.00  0.00    +0.025 C 
BRANCH  17  19
ATOM     18  C   UNL     1      -1.245  10.062  -5.110  0.00  0.00    +0.007 C 
ATOM     19  C   UNL     1      -2.728   9.748  -5.317  0.00  0.00    -0.016 C 
ATOM     20  C   UNL     1      -2.867   8.467  -6.142  0.00  0.00    +0.007 C 
ENDBRANCH  17  19
ENDBRANCH  16  17
ENDBRANCH   1  16
BRANCH  13  21
ATOM     21  C   UNL     1      -0.392   9.310   1.166  0.00  0.00    +0.072 C 
BRANCH  21  31
ATOM     22  C   UNL     1      -0.332   7.433  -0.365  0.00  0.00    -0.071 C 
ATOM     23  C   UNL     1       0.232   6.018  -0.497  0.00  0.00    +0.017 C 
ATOM     24  C   UNL     1      -0.364   5.125   0.560  0.00  0.00    -0.044 A 
ATOM     25  C   UNL     1      -0.256   3.751   0.401  0.00  0.00    +0.053 A 
ATOM     26  C   UNL     1      -0.787   2.893   1.346  0.00  0.00    +0.162 A 
ATOM     27  C   UNL     1      -1.426   3.414   2.468  0.00  0.00    +0.162 A 
ATOM     28  C   UNL     1      -1.530   4.784   2.623  0.00  0.00    +0.051 A 
ATOM     29  C   UNL     1      -0.999   5.641   1.670  0.00  0.00    -0.057 A 
ATOM     30  C   UNL     1      -1.141   7.126   1.884  0.00  0.00    -0.040 C 
ATOM     31  N   UNL     1      -0.176   7.851   1.043  0.00  0.00    +0.396 N 
ATOM     32  H   UNL     1       0.776   7.627   1.355  0.00  0.00    -0.079 HD
BRANCH  27  33
ATOM     33  O   UNL     1      -1.946   2.579   3.407  0.00  0.00    -0.491 OA
ATOM     34  C   UNL     1      -2.588   3.185   4.531  0.00  0.00    +0.277 C 
ENDBRANCH  27  33
BRANCH  26  35
ATOM     35  O   UNL     1      -0.682   1.547   1.184  0.00  0.00    -0.491 OA
ATOM     36  C   UNL     1      -0.013   1.086   0.008  0.00  0.00    +0.277 C 
ENDBRANCH  26  35
ENDBRANCH  21  31
ENDBRANCH  13  21
TORSDOF 7
