REMARK  Name = ZINC00958306
REMARK  10 active torsions:
REMARK  status: ('A' for Active; 'I' for Inactive)
REMARK    1  A    between atoms: C_1  and  C_2
REMARK    2  A    between atoms: C_2  and  C_3
REMARK    3  A    between atoms: C_2  and  O_4
REMARK    4  A    between atoms: O_4  and  C_5
REMARK    5  A    between atoms: C_8  and  C_13
REMARK    6  A    between atoms: C_10  and  O_11
REMARK    7  A    between atoms: O_11  and  C_12
REMARK    8  A    between atoms: N_14  and  N_15
REMARK    9  A    between atoms: C_16  and  C_18
REMARK   10  A    between atoms: C_18  and  N_19
REMARK                            x       y       z     vdW  Elec       q    Type
REMARK                         _______ _______ _______ _____ _____    ______ ____
ROOT
ATOM      1  N   UNL     1       3.829  -6.183  -2.940  0.00  0.00    -0.206 N 
ATOM      2  C   UNL     1       3.214  -5.051  -2.543  0.00  0.00    +0.252 C 
ATOM      3  O   UNL     1       2.474  -4.463  -3.305  0.00  0.00    -0.272 OA
ATOM      4  H   UNL     1       4.420  -6.652  -2.331  0.00  0.00    +0.177 HD
ENDROOT
BRANCH   1   6
ATOM      5  C   UNL     1       4.205  -7.771  -4.614  0.00  0.00    +0.138 C 
ATOM      6  N   UNL     1       3.613  -6.681  -4.232  0.00  0.00    -0.188 NA
BRANCH   5  10
ATOM      7  C   UNL     1       3.547  -9.279  -8.531  0.00  0.00    +0.162 A 
ATOM      8  C   UNL     1       2.915  -8.114  -8.121  0.00  0.00    +0.050 A 
ATOM      9  C   UNL     1       3.122  -7.624  -6.849  0.00  0.00    +0.013 A 
ATOM     10  C   UNL     1       3.978  -8.296  -5.973  0.00  0.00    -0.002 A 
ATOM     11  C   UNL     1       4.614  -9.469  -6.386  0.00  0.00    +0.059 A 
ATOM     12  C   UNL     1       4.397  -9.957  -7.661  0.00  0.00    +0.162 A 
BRANCH  12  13
ATOM     13  O   UNL     1       5.015 -11.099  -8.066  0.00  0.00    -0.491 OA
ATOM     14  C   UNL     1       5.874 -11.742  -7.122  0.00  0.00    +0.277 C 
ENDBRANCH  12  13
BRANCH   7  15
ATOM     15  O   UNL     1       3.335  -9.760  -9.784  0.00  0.00    -0.486 OA
BRANCH  15  17
ATOM     16  C   UNL     1       3.014  -7.886 -11.277  0.00  0.00    +0.051 C 
ATOM     17  C   UNL     1       2.362  -9.084 -10.583  0.00  0.00    +0.167 C 
ATOM     18  C   UNL     1       1.810 -10.046 -11.637  0.00  0.00    +0.051 C 
ENDBRANCH  15  17
ENDBRANCH   7  15
ENDBRANCH   5  10
ENDBRANCH   1   6
BRANCH   2  19
ATOM     19  C   UNL     1       3.446  -4.514  -1.154  0.00  0.00    +0.223 C 
BRANCH  19  20
ATOM     20  N   UNL     1       2.671  -3.285  -0.970  0.00  0.00    -0.290 N 
ATOM     21  C   UNL     1       1.409  -3.383  -0.488  0.00  0.00    +0.203 A 
ATOM     22  N   UNL     1       0.635  -2.339  -0.289  0.00  0.00    -0.230 NA
ATOM     23  C   UNL     1       1.135  -1.143  -0.581  0.00  0.00    +0.116 A 
ATOM     24  C   UNL     1       2.438  -0.937  -1.087  0.00  0.00    +0.076 A 
ATOM     25  C   UNL     1       3.250  -2.103  -1.289  0.00  0.00    +0.263 A 
ATOM     26  O   UNL     1       4.388  -2.034  -1.721  0.00  0.00    -0.267 OA
ATOM     27  C   UNL     1       2.814   0.441  -1.348  0.00  0.00    -0.023 A 
ATOM     28  C   UNL     1       1.881   1.385  -1.082  0.00  0.00    -0.004 A 
ATOM     29  S   UNL     1       0.473   0.490  -0.477  0.00  0.00    -0.073 S 
ATOM     30  C   UNL     1       2.013   2.866  -1.261  0.00  0.00    +0.043 C 
ATOM     31  C   UNL     1       3.499   3.204  -1.445  0.00  0.00    +0.005 C 
ATOM     32  C   UNL     1       4.094   2.246  -2.481  0.00  0.00    +0.005 C 
ATOM     33  C   UNL     1       4.183   0.837  -1.895  0.00  0.00    +0.037 C 
ENDBRANCH  19  20
ENDBRANCH   2  19
TORSDOF 7
