REMARK  Name = ZINC22023120
REMARK  8 active torsions:
REMARK  status: ('A' for Active; 'I' for Inactive)
REMARK    1  A    between atoms: C_1  and  C_2
REMARK    2  A    between atoms: N_5  and  C_11
REMARK    3  A    between atoms: C_7  and  C_10
REMARK    4  A    between atoms: C_14  and  N_31
REMARK    5  A    between atoms: C_15  and  C_17
REMARK    6  A    between atoms: C_17  and  C_18
REMARK    7  A    between atoms: C_18  and  C_20
REMARK    8  A    between atoms: C_18  and  C_21
REMARK                            x       y       z     vdW  Elec       q    Type
REMARK                         _______ _______ _______ _____ _____    ______ ____
ROOT
ATOM      1  C   UNL     1      -3.087  -3.030  -2.648  0.00  0.00    +0.030 A 
ATOM      2  C   UNL     1      -2.724  -2.259  -1.551  0.00  0.00    +0.025 A 
ATOM      3  C   UNL     1      -2.408  -2.870  -0.353  0.00  0.00    +0.035 A 
ATOM      4  C   UNL     1      -2.454  -4.248  -0.246  0.00  0.00    +0.129 A 
ATOM      5  C   UNL     1      -2.814  -5.019  -1.336  0.00  0.00    -0.015 A 
ATOM      6  C   UNL     1      -3.136  -4.413  -2.535  0.00  0.00    +0.029 A 
ENDROOT
BRANCH   1  10
ATOM      7  C   UNL     1      -3.212  -3.400  -7.510  0.00  0.00    -0.012 C 
ATOM      8  C   UNL     1      -2.838  -2.674  -6.216  0.00  0.00    -0.057 C 
ATOM      9  C   UNL     1      -3.689  -3.214  -5.063  0.00  0.00    +0.089 C 
ATOM     10  N   UNL     1      -3.407  -2.415  -3.861  0.00  0.00    -0.333 N 
ATOM     11  C   UNL     1      -3.471  -0.949  -3.971  0.00  0.00    +0.089 C 
ATOM     12  C   UNL     1      -2.630  -0.516  -5.177  0.00  0.00    -0.057 C 
ATOM     13  N   UNL     1      -3.084  -1.235  -6.374  0.00  0.00    +0.384 N 
ATOM     14  C   UNL     1      -2.788   0.990  -5.395  0.00  0.00    -0.012 C 
ATOM     15  H   UNL     1      -2.582  -0.895  -7.180  0.00  0.00    -0.085 HD
ATOM     16  H   UNL     1      -4.072  -1.076  -6.505  0.00  0.00    -0.085 HD
ENDBRANCH   1  10
BRANCH   4  17
ATOM     17  N   UNL     1      -2.115  -4.900   1.039  0.00  0.00    +0.057 N 
ATOM     18  O   UNL     1      -1.867  -4.226   2.012  0.00  0.00    -0.126 OA
ATOM     19  O   UNL     1      -2.087  -6.106   1.116  0.00  0.00    -0.126 OA
ENDBRANCH   4  17
BRANCH   5  20
ATOM     20  C   UNL     1      -2.862  -6.520  -1.214  0.00  0.00    +0.041 C 
BRANCH  20  21
ATOM     21  C   UNL     1      -4.145  -6.933  -0.490  0.00  0.00    -0.003 C 
ATOM     22  C   UNL     1      -5.357  -6.545  -1.338  0.00  0.00    +0.008 C 
BRANCH  21  23
ATOM     23  C   UNL     1      -4.141  -8.447  -0.268  0.00  0.00    -0.026 C 
ATOM     24  C   UNL     1      -2.928  -8.834   0.581  0.00  0.00    +0.010 C 
ATOM     25  C   UNL     1      -2.924 -10.348   0.803  0.00  0.00    -0.010 C 
ATOM     26  C   UNL     1      -4.207 -10.761   1.527  0.00  0.00    +0.007 C 
ATOM     27  C   UNL     1      -5.419 -10.373   0.678  0.00  0.00    -0.010 C 
ATOM     28  C   UNL     1      -5.423  -8.859   0.457  0.00  0.00    +0.010 C 
ATOM     29  C   UNL     1      -5.345 -11.086  -0.673  0.00  0.00    +0.007 C 
ATOM     30  C   UNL     1      -4.062 -10.674  -1.398  0.00  0.00    -0.010 C 
ATOM     31  C   UNL     1      -2.850 -11.061  -0.549  0.00  0.00    +0.007 C 
ATOM     32  C   UNL     1      -4.066  -9.160  -1.619  0.00  0.00    +0.010 C 
ENDBRANCH  21  23
ENDBRANCH  20  21
ENDBRANCH   5  20
TORSDOF 5
