REMARK  Name = ZINC41652984
REMARK  9 active torsions:
REMARK  status: ('A' for Active; 'I' for Inactive)
REMARK    1  A    between atoms: C_1  and  C_2
REMARK    2  A    between atoms: N_7  and  C_9
REMARK    3  A    between atoms: C_9  and  C_11
REMARK    4  A    between atoms: C_9  and  C_12
REMARK    5  A    between atoms: C_12  and  N_13
REMARK    6  A    between atoms: C_14  and  C_16
REMARK    7  A    between atoms: N_18  and  C_19
REMARK    8  A    between atoms: C_24  and  C_25
REMARK    9  A    between atoms: C_25  and  C_26
REMARK                            x       y       z     vdW  Elec       q    Type
REMARK                         _______ _______ _______ _____ _____    ______ ____
ROOT
ATOM      1  C   UNL     1       2.637  -6.481  -0.052  0.00  0.00    +0.303 C 
ATOM      2  O   UNL     1       3.243  -5.761  -0.818  0.00  0.00    -0.265 OA
ATOM      3  N   UNL     1       2.600  -7.812  -0.263  0.00  0.00    -0.277 N 
ATOM      4  H   UNL     1       2.189  -8.396   0.393  0.00  0.00    +0.155 HD
ENDROOT
BRANCH   3   5
ATOM      5  C   UNL     1       3.153  -8.349  -1.428  0.00  0.00    +0.037 A 
ATOM      6  C   UNL     1       3.270  -7.566  -2.570  0.00  0.00    +0.023 A 
ATOM      7  C   UNL     1       3.818  -8.100  -3.719  0.00  0.00    +0.002 A 
ATOM      8  C   UNL     1       4.249  -9.414  -3.735  0.00  0.00    +0.000 A 
ATOM      9  C   UNL     1       4.134 -10.197  -2.601  0.00  0.00    +0.006 A 
ATOM     10  C   UNL     1       3.593  -9.667  -1.446  0.00  0.00    -0.017 A 
BRANCH  10  11
ATOM     11  C   UNL     1       3.474 -10.519  -0.209  0.00  0.00    +0.132 C 
BRANCH  11  12
ATOM     12  C   UNL     1       2.098 -11.131  -0.150  0.00  0.00    +0.215 C 
ATOM     13  O   UNL     1       1.293 -10.898  -1.027  0.00  0.00    -0.276 OA
ATOM     14  N   UNL     1       1.762 -11.937   0.876  0.00  0.00    -0.329 N 
ATOM     15  H   UNL     1       2.405 -12.123   1.577  0.00  0.00    +0.145 HD
ATOM     16  H   UNL     1       0.876 -12.330   0.914  0.00  0.00    +0.145 HD
ENDBRANCH  11  12
ENDBRANCH  10  11
ENDBRANCH   3   5
BRANCH   1  18
ATOM     17  N   UNL     1       1.969  -4.562   1.338  0.00  0.00    -0.309 N 
ATOM     18  C   UNL     1       1.932  -5.893   1.126  0.00  0.00    +0.299 C 
ATOM     19  O   UNL     1       1.326  -6.612   1.893  0.00  0.00    -0.265 OA
ATOM     20  H   UNL     1       2.454  -3.987   0.726  0.00  0.00    +0.149 HD
BRANCH  17  21
ATOM     21  C   UNL     1       1.278  -3.985   2.493  0.00  0.00    +0.089 C 
BRANCH  21  22
ATOM     22  C   UNL     1       1.370  -2.459   2.433  0.00  0.00    -0.054 C 
ATOM     23  C   UNL     1       0.628  -1.855   3.627  0.00  0.00    -0.012 C 
BRANCH  22  29
ATOM     24  C   UNL     1      -2.739  -2.381  -0.228  0.00  0.00    +0.005 C 
ATOM     25  C   UNL     1      -1.268  -1.960  -0.190  0.00  0.00    -0.031 C 
ATOM     26  C   UNL     1      -1.168  -0.439  -0.331  0.00  0.00    -0.001 C 
ATOM     27  C   UNL     1       0.301  -0.021  -0.213  0.00  0.00    -0.018 C 
ATOM     28  C   UNL     1       0.861  -0.518   1.122  0.00  0.00    -0.078 C 
ATOM     29  N   UNL     1       0.760  -1.981   1.185  0.00  0.00    +0.383 N 
ATOM     30  C   UNL     1      -0.650  -2.386   1.144  0.00  0.00    -0.075 C 
ATOM     31  H   UNL     1       1.248  -2.384   0.399  0.00  0.00    -0.081 HD
ENDBRANCH  22  29
ENDBRANCH  21  22
ENDBRANCH  17  21
ENDBRANCH   1  18
TORSDOF 7
