REMARK  Name = ZINC21304113
REMARK  6 active torsions:
REMARK  status: ('A' for Active; 'I' for Inactive)
REMARK    1  A    between atoms: C_1  and  C_2
REMARK    2  A    between atoms: C_4  and  C_12
REMARK    3  A    between atoms: C_6  and  N_9
REMARK    4  A    between atoms: C_7  and  C_8
REMARK    5  A    between atoms: C_12  and  C_14
REMARK    6  A    between atoms: C_12  and  N_23
REMARK                            x       y       z     vdW  Elec       q    Type
REMARK                         _______ _______ _______ _____ _____    ______ ____
ROOT
ATOM      1  C   UNL     1      -2.471   0.912  -0.074  0.00  0.00    -0.013 C 
ENDROOT
BRANCH   1   2
ATOM      2  C   UNL     1      -2.787   0.554  -1.504  0.00  0.00    -0.057 A 
ATOM      3  C   UNL     1      -2.135  -0.502  -2.113  0.00  0.00    +0.002 A 
ATOM      4  C   UNL     1      -2.426  -0.828  -3.423  0.00  0.00    +0.004 A 
ATOM      5  C   UNL     1      -3.369  -0.100  -4.130  0.00  0.00    -0.044 A 
ATOM      6  C   UNL     1      -4.020   0.957  -3.521  0.00  0.00    -0.044 A 
ATOM      7  C   UNL     1      -3.731   1.278  -2.205  0.00  0.00    +0.006 A 
ATOM      8  C   UNL     1      -4.994   1.587  -4.493  0.00  0.00    +0.036 C 
ATOM      9  C   UNL     1      -4.555   1.086  -5.886  0.00  0.00    +0.009 C 
ATOM     10  C   UNL     1      -3.861  -0.252  -5.553  0.00  0.00    +0.036 C 
ENDBRANCH   1   2
BRANCH   1  14
ATOM     11  C   UNL     1      -0.152   5.334   0.263  0.00  0.00    +0.044 C 
ATOM     12  C   UNL     1      -0.089   3.834   0.133  0.00  0.00    -0.045 A 
ATOM     13  C   UNL     1      -1.256   3.094   0.096  0.00  0.00    +0.006 A 
ATOM     14  C   UNL     1      -1.198   1.718  -0.027  0.00  0.00    -0.055 A 
ATOM     15  C   UNL     1       0.027   1.082  -0.102  0.00  0.00    +0.035 A 
ATOM     16  C   UNL     1       1.193   1.822  -0.065  0.00  0.00    +0.130 A 
ATOM     17  C   UNL     1       1.135   3.198   0.052  0.00  0.00    -0.017 A 
ATOM     18  C   UNL     1       2.408   4.005   0.093  0.00  0.00    +0.046 C 
BRANCH  16  19
ATOM     19  N   UNL     1       2.505   1.141  -0.152  0.00  0.00    +0.057 N 
ATOM     20  O   UNL     1       3.419   1.657  -0.769  0.00  0.00    -0.126 OA
ATOM     21  O   UNL     1       2.669   0.065   0.394  0.00  0.00    -0.126 OA
ENDBRANCH  16  19
ENDBRANCH   1  14
BRANCH   1  22
ATOM     22  N   UNL     1      -2.300  -0.317   0.712  0.00  0.00    +0.385 N 
ATOM     23  H   UNL     1      -3.229  -0.906   0.678  0.00  0.00    -0.089 HD
ATOM     24  H   UNL     1      -2.070  -0.056   1.755  0.00  0.00    -0.089 HD
ATOM     25  H   UNL     1      -1.475  -0.910   0.291  0.00  0.00    -0.089 HD
ENDBRANCH   1  22
TORSDOF 4
