REMARK  Name = ZINC24840164
REMARK  9 active torsions:
REMARK  status: ('A' for Active; 'I' for Inactive)
REMARK    1  A    between atoms: C_1  and  C_2
REMARK    2  A    between atoms: C_2  and  C_4
REMARK    3  A    between atoms: C_2  and  O_23
REMARK    4  A    between atoms: C_4  and  O_6
REMARK    5  A    between atoms: O_6  and  C_7
REMARK    6  A    between atoms: C_7  and  C_8
REMARK    7  A    between atoms: C_10  and  O_11
REMARK    8  A    between atoms: C_20  and  C_22
REMARK    9  A    between atoms: O_23  and  C_24
REMARK                            x       y       z     vdW  Elec       q    Type
REMARK                         _______ _______ _______ _____ _____    ______ ____
ROOT
ATOM      1  C   UNL     1      -0.812  -6.265  -0.931  0.00  0.00    +0.007 A 
ATOM      2  C   UNL     1      -0.606  -6.914  -2.107  0.00  0.00    +0.095 A 
ATOM      3  C   UNL     1      -0.539  -6.181  -3.310  0.00  0.00    +0.285 A 
ATOM      4  O   UNL     1      -0.676  -4.846  -3.331  0.00  0.00    -0.425 OA
ATOM      5  C   UNL     1      -0.884  -4.141  -2.199  0.00  0.00    +0.141 A 
ATOM      6  C   UNL     1      -0.960  -4.808  -0.962  0.00  0.00    +0.024 A 
ATOM      7  C   UNL     1      -1.175  -4.082   0.215  0.00  0.00    +0.014 A 
ATOM      8  C   UNL     1      -1.305  -2.724   0.160  0.00  0.00    +0.024 A 
ATOM      9  C   UNL     1      -1.236  -2.058  -1.063  0.00  0.00    +0.037 A 
ATOM     10  C   UNL     1      -1.024  -2.762  -2.239  0.00  0.00    +0.070 A 
ATOM     11  N   UNL     1      -1.377  -0.670  -1.104  0.00  0.00    -0.286 N 
ATOM     12  C   UNL     1      -2.012  -0.087  -2.140  0.00  0.00    +0.214 C 
ATOM     13  O   UNL     1      -2.384  -0.759  -3.078  0.00  0.00    -0.276 OA
ATOM     14  C   UNL     1      -2.260   1.399  -2.132  0.00  0.00    +0.109 C 
ATOM     15  H   UNL     1      -0.969  -0.052  -0.290  0.00  0.00    +0.155 HD
ENDROOT
BRANCH   3  16
ATOM     16  O   UNL     1      -0.354  -6.776  -4.357  0.00  0.00    -0.480 OA
ATOM     17  H   UNL     1      -0.300  -6.218  -5.304  0.00  0.00    +0.295 HD
ENDBRANCH   3  16
BRANCH   1  18
ATOM     18  C   UNL     1      -0.888  -7.024   0.369  0.00  0.00    +0.268 C 
BRANCH  18  19
ATOM     19  O   UNL     1      -0.710  -8.442   0.112  0.00  0.00    -0.457 OA
BRANCH  19  20
ATOM     20  C   UNL     1      -0.751  -9.262   1.174  0.00  0.00    +0.348 C 
ATOM     21  O   UNL     1      -0.929  -8.811   2.280  0.00  0.00    -0.247 OA
BRANCH  20  23
ATOM     22  C   UNL     1      -1.744 -11.300   0.168  0.00  0.00    +0.064 C 
ATOM     23  C   UNL     1      -0.575 -10.747   0.985  0.00  0.00    +0.278 C 
BRANCH  23  24
ATOM     24  O   UNL     1      -0.540 -11.389   2.262  0.00  0.00    -0.478 OA
BRANCH  24  25
ATOM     25  C   UNL     1       0.112 -12.579   2.337  0.00  0.00    +0.122 A 
ATOM     26  C   UNL     1       0.285 -13.200   3.565  0.00  0.00    +0.047 A 
ATOM     27  C   UNL     1       0.943 -14.412   3.639  0.00  0.00    +0.019 A 
ATOM     28  C   UNL     1       1.440 -15.001   2.490  0.00  0.00    +0.018 A 
ATOM     29  C   UNL     1       1.274 -14.381   1.265  0.00  0.00    +0.019 A 
ATOM     30  C   UNL     1       0.611 -13.171   1.186  0.00  0.00    +0.047 A 
ATOM     31 BR   UNL     1       2.346 -16.657   2.595  0.00  0.00    -0.050 Br
ENDBRANCH  24  25
ENDBRANCH  23  24
ENDBRANCH  20  23
ENDBRANCH  19  20
ENDBRANCH  18  19
ENDBRANCH   1  18
TORSDOF 7
