REMARK  Name = ZINC12546738
REMARK  12 active torsions:
REMARK  status: ('A' for Active; 'I' for Inactive)
REMARK    1  A    between atoms: C_1  and  C_2
REMARK    2  A    between atoms: C_2  and  N_3
REMARK    3  A    between atoms: N_3  and  C_4
REMARK    4  A    between atoms: N_3  and  S_6
REMARK    5  A    between atoms: C_4  and  C_5
REMARK    6  A    between atoms: S_6  and  C_9
REMARK    7  A    between atoms: N_15  and  N_16
REMARK    8  A    between atoms: C_17  and  C_18
REMARK    9  A    between atoms: C_19  and  C_37
REMARK   10  A    between atoms: N_21  and  C_31
REMARK   11  A    between atoms: C_22  and  O_23
REMARK   12  A    between atoms: O_23  and  C_24
REMARK                            x       y       z     vdW  Elec       q    Type
REMARK                         _______ _______ _______ _____ _____    ______ ____
ROOT
ATOM      1  C   UNL     1       1.332  -0.394  -0.013  0.00  0.00    +0.079 A 
ATOM      2  C   UNL     1       2.112   0.783  -0.014  0.00  0.00    +0.073 A 
ATOM      3  N   UNL     1       1.307   1.811  -0.001  0.00  0.00    -0.168 NA
ATOM      4  N   UNL     1      -0.016   1.355   0.009  0.00  0.00    -0.199 N 
ATOM      5  C   UNL     1       0.002  -0.004   0.002  0.00  0.00    +0.233 A 
ATOM      6  C   UNL     1       3.618   0.843  -0.028  0.00  0.00    +0.068 C 
ENDROOT
BRANCH   4   7
ATOM      7  C   UNL     1      -1.163   2.161   0.020  0.00  0.00    +0.069 A 
ATOM      8  C   UNL     1      -2.300   1.762  -0.671  0.00  0.00    +0.028 A 
ATOM      9  C   UNL     1      -3.430   2.555  -0.654  0.00  0.00    +0.002 A 
ATOM     10  C   UNL     1      -3.426   3.752   0.039  0.00  0.00    +0.000 A 
ATOM     11  C   UNL     1      -2.294   4.154   0.723  0.00  0.00    +0.002 A 
ATOM     12  C   UNL     1      -1.162   3.362   0.715  0.00  0.00    +0.028 A 
ENDBRANCH   4   7
BRANCH   1  14
ATOM     13  N   UNL     1       3.116  -2.002  -0.039  0.00  0.00    -0.188 NA
ATOM     14  C   UNL     1       1.838  -1.778  -0.025  0.00  0.00    +0.145 C 
BRANCH  13  21
ATOM     15  C   UNL     1       7.652  -3.994  -0.093  0.00  0.00    +0.124 A 
ATOM     16  C   UNL     1       6.800  -5.091  -0.092  0.00  0.00    +0.033 A 
ATOM     17  C   UNL     1       5.436  -4.867  -0.071  0.00  0.00    +0.047 A 
ATOM     18  C   UNL     1       4.965  -3.557  -0.065  0.00  0.00    +0.138 A 
ATOM     19  N   UNL     1       5.810  -2.537  -0.067  0.00  0.00    -0.237 NA
ATOM     20  C   UNL     1       7.117  -2.721  -0.081  0.00  0.00    +0.141 A 
ATOM     21  N   UNL     1       3.597  -3.318  -0.051  0.00  0.00    -0.221 N 
ATOM     22  H   UNL     1       2.974  -4.062  -0.049  0.00  0.00    +0.176 HD
BRANCH  15  23
ATOM     23  S   UNL     1       9.399  -4.223  -0.113  0.00  0.00    +0.062 S 
ATOM     24  O   UNL     1       9.634  -5.508  -0.673  0.00  0.00    -0.153 OA
ATOM     25  O   UNL     1       9.959  -3.039  -0.662  0.00  0.00    -0.153 OA
BRANCH  23  26
ATOM     26  N   UNL     1       9.900  -4.296   1.464  0.00  0.00    -0.177 NA
BRANCH  26  28
ATOM     27  C   UNL     1      11.374  -6.155   2.061  0.00  0.00    +0.022 C 
ATOM     28  C   UNL     1       9.957  -5.587   2.156  0.00  0.00    +0.106 C 
ENDBRANCH  26  28
BRANCH  26  29
ATOM     29  C   UNL     1      10.288  -3.071   2.167  0.00  0.00    +0.106 C 
ATOM     30  C   UNL     1       9.091  -2.535   2.955  0.00  0.00    +0.022 C 
ENDBRANCH  26  29
ENDBRANCH  23  26
ENDBRANCH  15  23
ENDBRANCH  13  21
ENDBRANCH   1  14
BRANCH   5  31
ATOM     31  O   UNL     1      -1.077  -0.824   0.008  0.00  0.00    -0.437 OA
BRANCH  31  32
ATOM     32  C   UNL     1      -1.597  -1.204  -1.189  0.00  0.00    +0.131 A 
ATOM     33  C   UNL     1      -1.027  -0.749  -2.369  0.00  0.00    +0.049 A 
ATOM     34  C   UNL     1      -1.552  -1.140  -3.586  0.00  0.00    +0.042 A 
ATOM     35  C   UNL     1      -2.655  -1.976  -3.627  0.00  0.00    +0.124 A 
ATOM     36  C   UNL     1      -3.229  -2.427  -2.450  0.00  0.00    +0.042 A 
ATOM     37  C   UNL     1      -2.701  -2.042  -1.232  0.00  0.00    +0.049 A 
ATOM     38  F   UNL     1      -3.171  -2.354  -4.817  0.00  0.00    -0.205 F 
ENDBRANCH  31  32
ENDBRANCH   5  31
TORSDOF 9
