REMARK  Name = ZINC15525436
REMARK  6 active torsions:
REMARK  status: ('A' for Active; 'I' for Inactive)
REMARK    1  A    between atoms: C_4  and  S_7
REMARK    2  A    between atoms: S_7  and  N_10
REMARK    3  A    between atoms: N_18  and  C_19
REMARK    4  A    between atoms: C_19  and  C_20
REMARK    5  A    between atoms: C_20  and  C_21
REMARK    6  A    between atoms: C_24  and  C_27
REMARK                            x       y       z     vdW  Elec       q    Type
REMARK                         _______ _______ _______ _____ _____    ______ ____
ROOT
ATOM      1  N   UNL     1      -0.015   1.469   0.010  0.00  0.00    -0.174 NA
ATOM      2  C   UNL     1       1.262   2.195   0.006  0.00  0.00    +0.128 C 
ATOM      3  C   UNL     1       2.107   1.706   1.190  0.00  0.00    +0.126 C 
ATOM      4  N   UNL     1       2.127   0.236   1.177  0.00  0.00    -0.283 N 
ATOM      5  C   UNL     1       0.849  -0.489   1.180  0.00  0.00    +0.126 C 
ATOM      6  C   UNL     1       0.004  -0.000  -0.003  0.00  0.00    +0.128 C 
ATOM      7  C   UNL     1       3.296  -0.434   1.163  0.00  0.00    +0.302 C 
ATOM      8  O   UNL     1       4.344   0.175   1.064  0.00  0.00    -0.253 OA
ATOM      9  N   UNL     1       3.304  -1.778   1.257  0.00  0.00    -0.299 N 
ATOM     10  H   UNL     1       2.467  -2.268   1.263  0.00  0.00    +0.150 HD
ENDROOT
BRANCH   1  11
ATOM     11  S   UNL     1      -1.452   2.293   0.021  0.00  0.00    +0.061 S 
ATOM     12  O   UNL     1      -1.187   3.580  -0.520  0.00  0.00    -0.153 OA
ATOM     13  O   UNL     1      -2.425   1.419  -0.535  0.00  0.00    -0.153 OA
BRANCH  11  17
ATOM     14  C   UNL     1      -2.602   2.921   4.354  0.00  0.00    +0.000 A 
ATOM     15  C   UNL     1      -1.831   3.864   3.699  0.00  0.00    +0.002 A 
ATOM     16  C   UNL     1      -1.480   3.671   2.376  0.00  0.00    +0.028 A 
ATOM     17  C   UNL     1      -1.900   2.537   1.707  0.00  0.00    +0.105 A 
ATOM     18  C   UNL     1      -2.675   1.597   2.360  0.00  0.00    +0.028 A 
ATOM     19  C   UNL     1      -3.022   1.786   3.684  0.00  0.00    +0.002 A 
ENDBRANCH  11  17
ENDBRANCH   1  11
BRANCH   9  20
ATOM     20  C   UNL     1       4.576  -2.498   1.352  0.00  0.00    +0.110 C 
BRANCH  20  21
ATOM     21  C   UNL     1       4.304  -4.001   1.449  0.00  0.00    +0.054 C 
BRANCH  21  22
ATOM     22  C   UNL     1       5.613  -4.742   1.546  0.00  0.00    -0.046 A 
ATOM     23  C   UNL     1       6.252  -5.171   0.398  0.00  0.00    +0.004 A 
ATOM     24  C   UNL     1       7.454  -5.848   0.487  0.00  0.00    +0.012 A 
ATOM     25  C   UNL     1       8.013  -6.103   1.725  0.00  0.00    +0.055 A 
ATOM     26  C   UNL     1       7.372  -5.678   2.874  0.00  0.00    +0.012 A 
ATOM     27  C   UNL     1       6.172  -4.998   2.784  0.00  0.00    +0.004 A 
BRANCH  25  28
ATOM     28  C   UNL     1       9.322  -6.844   1.823  0.00  0.00    +0.417 C 
ATOM     29  F   UNL     1       9.074  -8.218   1.912  0.00  0.00    -0.166 F 
ATOM     30  F   UNL     1      10.092  -6.582   0.685  0.00  0.00    -0.166 F 
ATOM     31  F   UNL     1      10.014  -6.420   2.962  0.00  0.00    -0.166 F 
ENDBRANCH  25  28
ENDBRANCH  21  22
ENDBRANCH  20  21
ENDBRANCH   9  20
TORSDOF 6
