REMARK  Name = ZINC64137068
REMARK  9 active torsions:
REMARK  status: ('A' for Active; 'I' for Inactive)
REMARK    1  A    between atoms: C_1  and  O_2
REMARK    2  A    between atoms: O_2  and  C_3
REMARK    3  A    between atoms: C_7  and  C_12
REMARK    4  A    between atoms: C_12  and  C_13
REMARK    5  A    between atoms: C_13  and  N_14
REMARK    6  A    between atoms: C_15  and  C_17
REMARK    7  A    between atoms: C_17  and  S_18
REMARK    8  A    between atoms: S_18  and  C_19
REMARK    9  A    between atoms: N_24  and  C_25
REMARK                            x       y       z     vdW  Elec       q    Type
REMARK                         _______ _______ _______ _____ _____    ______ ____
ROOT
ATOM      1  N   UNL     1      -8.174  -1.964  -1.377  0.00  0.00    -0.314 N 
ATOM      2  C   UNL     1      -8.860  -1.889  -2.535  0.00  0.00    +0.223 C 
ATOM      3  O   UNL     1      -8.305  -2.130  -3.586  0.00  0.00    -0.275 OA
ATOM      4  H   UNL     1      -8.618  -1.771  -0.537  0.00  0.00    +0.149 HD
ENDROOT
BRANCH   1   5
ATOM      5  C   UNL     1      -6.757  -2.337  -1.388  0.00  0.00    +0.108 C 
BRANCH   5   6
ATOM      6  C   UNL     1      -6.221  -2.347   0.045  0.00  0.00    +0.052 C 
BRANCH   6  11
ATOM      7  C   UNL     1      -1.198  -0.636   0.010  0.00  0.00    +0.122 A 
ATOM      8  C   UNL     1      -2.372   0.141   0.020  0.00  0.00    +0.046 A 
ATOM      9  C   UNL     1      -3.597  -0.428   0.028  0.00  0.00    +0.013 A 
ATOM     10  C   UNL     1      -3.704  -1.893   0.026  0.00  0.00    -0.001 A 
ATOM     11  C   UNL     1      -4.764  -2.731   0.033  0.00  0.00    -0.040 C 
ATOM     12  C   UNL     1      -4.193  -4.131   0.027  0.00  0.00    +0.144 C 
ATOM     13  N   UNL     1      -2.735  -3.972   0.016  0.00  0.00    -0.380 N 
ATOM     14  C   UNL     1      -2.455  -2.689   0.016  0.00  0.00    +0.046 A 
ATOM     15  C   UNL     1      -1.220  -1.993   0.003  0.00  0.00    +0.071 A 
ATOM     16  H   UNL     1      -2.086  -4.693   0.010  0.00  0.00    +0.160 HD
BRANCH   7  18
ATOM     17  C   UNL     1      -0.017   1.425   0.010  0.00  0.00    +0.277 C 
ATOM     18  O   UNL     1       0.002  -0.004   0.002  0.00  0.00    -0.495 OA
ENDBRANCH   7  18
ENDBRANCH   6  11
ENDBRANCH   5   6
ENDBRANCH   1   5
BRANCH   2  19
ATOM     19  C   UNL     1     -10.318  -1.505  -2.523  0.00  0.00    +0.167 C 
BRANCH  19  20
ATOM     20  S   UNL     1     -10.953  -1.493  -4.222  0.00  0.00    -0.114 S 
BRANCH  20  21
ATOM     21  C   UNL     1     -12.694  -1.019  -4.036  0.00  0.00    +0.203 C 
ATOM     22  N   UNL     1     -12.798   0.290  -3.345  0.00  0.00    -0.320 NA
ATOM     23  N   UNL     1     -13.959   0.097  -2.458  0.00  0.00    +0.411 N 
ATOM     24  N   UNL     1     -13.829  -1.310  -2.055  0.00  0.00    -0.265 NA
ATOM     25  N   UNL     1     -13.395  -1.985  -3.173  0.00  0.00    -0.254 N 
ATOM     26  H   UNL     1     -11.963   0.484  -2.811  0.00  0.00    +0.106 HD
ATOM     27  H   UNL     1     -13.901   0.705  -1.656  0.00  0.00    -0.031 HD
ATOM     28  H   UNL     1     -14.713  -1.677  -1.733  0.00  0.00    +0.125 HD
ATOM     29  H   UNL     1     -14.821   0.246  -2.961  0.00  0.00    -0.031 HD
BRANCH  25  30
ATOM     30  C   UNL     1     -13.582  -3.342  -3.441  0.00  0.00    +0.047 A 
ATOM     31  C   UNL     1     -13.082  -3.896  -4.613  0.00  0.00    +0.024 A 
ATOM     32  C   UNL     1     -13.268  -5.239  -4.876  0.00  0.00    +0.003 A 
ATOM     33  C   UNL     1     -13.954  -6.033  -3.975  0.00  0.00    +0.020 A 
ATOM     34  C   UNL     1     -14.454  -5.485  -2.807  0.00  0.00    +0.043 A 
ATOM     35  C   UNL     1     -14.265  -4.143  -2.535  0.00  0.00    +0.044 A 
ATOM     36 CL   UNL     1     -15.314  -6.486  -1.679  0.00  0.00    -0.083 Cl
ENDBRANCH  25  30
ENDBRANCH  20  21
ENDBRANCH  19  20
ENDBRANCH   2  19
TORSDOF 8
