REMARK  Name = ZINC09350760
REMARK  5 active torsions:
REMARK  status: ('A' for Active; 'I' for Inactive)
REMARK    1  A    between atoms: C_1  and  C_2
REMARK    2  A    between atoms: C_7  and  C_8
REMARK    3  A    between atoms: N_24  and  C_27
REMARK    4  A    between atoms: C_29  and  N_34
REMARK    5  A    between atoms: C_32  and  C_33
REMARK                            x       y       z     vdW  Elec       q    Type
REMARK                         _______ _______ _______ _____ _____    ______ ____
ROOT
ATOM      1  C   UNL     1      -2.307   6.272   6.213  0.00  0.00    +0.044 C 
ATOM      2  C   UNL     1      -2.351   5.319   5.047  0.00  0.00    -0.046 A 
ATOM      3  C   UNL     1      -1.462   4.261   4.990  0.00  0.00    +0.004 A 
ATOM      4  C   UNL     1      -1.502   3.385   3.919  0.00  0.00    +0.005 A 
ATOM      5  C   UNL     1      -2.426   3.568   2.914  0.00  0.00    -0.027 A 
ATOM      6  C   UNL     1      -3.324   4.629   2.961  0.00  0.00    +0.039 A 
ATOM      7  C   UNL     1      -3.277   5.505   4.043  0.00  0.00    -0.026 A 
ATOM      8  C   UNL     1      -4.241   6.662   4.115  0.00  0.00    +0.046 C 
ATOM      9  N   UNL     1      -4.155   4.608   1.839  0.00  0.00    -0.286 N 
ATOM     10  C   UNL     1      -3.872   3.579   1.016  0.00  0.00    +0.212 C 
ATOM     11  O   UNL     1      -4.428   3.314  -0.028  0.00  0.00    -0.277 OA
ATOM     12  C   UNL     1      -2.734   2.823   1.645  0.00  0.00    +0.053 C 
ATOM     13  C   UNL     1      -3.120   1.368   1.931  0.00  0.00    +0.089 C 
ATOM     14  C   UNL     1      -1.822   0.557   1.667  0.00  0.00    +0.074 C 
ATOM     15  C   UNL     1      -0.772   1.601   1.244  0.00  0.00    -0.054 C 
ATOM     16  C   UNL     1      -1.989   2.390  -0.615  0.00  0.00    -0.076 C 
ATOM     17  C   UNL     1      -0.796   1.615  -1.209  0.00  0.00    -0.020 C 
ATOM     18  C   UNL     1      -0.013   1.086   0.008  0.00  0.00    -0.016 C 
ATOM     19  C   UNL     1      -1.467   0.013   3.032  0.00  0.00    +0.228 C 
ATOM     20  O   UNL     1      -0.505  -0.682   3.281  0.00  0.00    -0.275 OA
ATOM     21  N   UNL     1      -2.378   0.419   3.924  0.00  0.00    -0.210 N 
ATOM     22  C   UNL     1      -3.367   1.187   3.412  0.00  0.00    +0.229 C 
ATOM     23  O   UNL     1      -4.298   1.658   4.030  0.00  0.00    -0.275 OA
ATOM     24  H   UNL     1      -4.855   5.259   1.671  0.00  0.00    +0.155 HD
ATOM     25  N   UNL     1      -1.565   2.709   0.759  0.00  0.00    +0.395 N 
ATOM     26  H   UNL     1      -1.022   3.581   0.770  0.00  0.00    -0.079 HD
ENDROOT
BRANCH  21  27
ATOM     27  C   UNL     1      -2.319   0.072   5.281  0.00  0.00    +0.049 A 
ATOM     28  C   UNL     1      -1.629   0.879   6.176  0.00  0.00    +0.057 A 
ATOM     29  C   UNL     1      -1.577   0.537   7.513  0.00  0.00    +0.128 A 
ATOM     30  C   UNL     1      -2.202  -0.613   7.959  0.00  0.00    +0.033 A 
ATOM     31  C   UNL     1      -2.884  -1.422   7.069  0.00  0.00    +0.007 A 
ATOM     32  C   UNL     1      -2.945  -1.082   5.731  0.00  0.00    -0.028 A 
ATOM     33  C   UNL     1      -3.688  -1.965   4.762  0.00  0.00    +0.045 C 
BRANCH  29  34
ATOM     34  N   UNL     1      -0.847   1.400   8.468  0.00  0.00    +0.056 N 
ATOM     35  O   UNL     1      -0.796   1.097   9.647  0.00  0.00    -0.126 OA
ATOM     36  O   UNL     1      -0.296   2.414   8.076  0.00  0.00    -0.126 OA
ENDBRANCH  29  34
ENDBRANCH  21  27
TORSDOF 2
