REMARK  Name = ZINC36052630
REMARK  14 active torsions:
REMARK  status: ('A' for Active; 'I' for Inactive)
REMARK    1  A    between atoms: C_1  and  C_2
REMARK    2  A    between atoms: C_2  and  O_3
REMARK    3  A    between atoms: O_3  and  C_4
REMARK    4  A    between atoms: C_4  and  C_6
REMARK    5  A    between atoms: C_7  and  C_37
REMARK    6  A    between atoms: C_11  and  C_13
REMARK    7  A    between atoms: C_16  and  O_21
REMARK    8  A    between atoms: C_18  and  O_19
REMARK    9  A    between atoms: O_19  and  C_20
REMARK   10  A    between atoms: O_21  and  C_22
REMARK   11  A    between atoms: C_23  and  C_26
REMARK   12  A    between atoms: C_27  and  N_29
REMARK   13  A    between atoms: N_29  and  C_30
REMARK   14  A    between atoms: C_30  and  C_31
REMARK                            x       y       z     vdW  Elec       q    Type
REMARK                         _______ _______ _______ _____ _____    ______ ____
ROOT
ATOM      1  C   UNL     1      -2.651  -2.378   0.714  0.00  0.00    +0.083 C 
ATOM      2  C   UNL     1      -2.709  -3.732   0.448  0.00  0.00    +0.053 C 
ATOM      3  N   UNL     1      -3.862  -4.307   0.146  0.00  0.00    -0.230 NA
ATOM      4  C   UNL     1      -5.017  -3.680   0.071  0.00  0.00    +0.166 C 
ATOM      5  N   UNL     1      -5.175  -2.341   0.298  0.00  0.00    -0.267 N 
ATOM      6  C   UNL     1      -3.941  -1.591   0.652  0.00  0.00    +0.153 C 
ATOM      7  C   UNL     1      -6.452  -1.831   0.180  0.00  0.00    +0.048 C 
ATOM      8  C   UNL     1      -7.442  -2.691  -0.148  0.00  0.00    +0.072 C 
ATOM      9  S   UNL     1      -6.560  -4.232  -0.292  0.00  0.00    -0.060 S 
ATOM     10  C   UNL     1      -1.451  -4.561   0.502  0.00  0.00    +0.066 C 
ENDROOT
BRANCH   6  11
ATOM     11  C   UNL     1      -4.155  -0.946   1.997  0.00  0.00    +0.020 A 
ATOM     12  C   UNL     1      -3.917   0.406   2.160  0.00  0.00    +0.013 A 
ATOM     13  C   UNL     1      -4.113   1.000   3.392  0.00  0.00    +0.046 A 
ATOM     14  C   UNL     1      -4.548   0.241   4.469  0.00  0.00    +0.124 A 
ATOM     15  C   UNL     1      -4.787  -1.115   4.308  0.00  0.00    +0.091 A 
ATOM     16  C   UNL     1      -4.596  -1.708   3.069  0.00  0.00    +0.129 A 
BRANCH  16  17
ATOM     17  O   UNL     1      -4.835  -3.036   2.907  0.00  0.00    -0.495 OA
ATOM     18  C   UNL     1      -5.388  -3.737   4.023  0.00  0.00    +0.277 C 
ENDBRANCH  16  17
BRANCH  14  19
ATOM     19  O   UNL     1      -4.740   0.826   5.680  0.00  0.00    -0.495 OA
ATOM     20  C   UNL     1      -4.474   2.227   5.774  0.00  0.00    +0.277 C 
ENDBRANCH  14  19
ENDBRANCH   6  11
BRANCH   7  21
ATOM     21  C   UNL     1      -6.726  -0.405   0.405  0.00  0.00    +0.091 C 
ATOM     22  C   UNL     1      -7.997   0.039   0.443  0.00  0.00    +0.239 C 
ATOM     23  O   UNL     1      -9.025  -0.844   0.421  0.00  0.00    -0.271 OA
BRANCH  22  24
ATOM     24  N   UNL     1      -8.254   1.398   0.505  0.00  0.00    -0.309 N 
ATOM     25  H   UNL     1      -7.523   2.033   0.447  0.00  0.00    +0.149 HD
BRANCH  24  26
ATOM     26  C   UNL     1      -9.630   1.877   0.659  0.00  0.00    +0.136 C 
BRANCH  26  27
ATOM     27  C   UNL     1      -9.625   3.398   0.825  0.00  0.00    +0.135 C 
ATOM     28  C   UNL     1     -11.070   3.922   1.025  0.00  0.00    +0.035 C 
ATOM     29  C   UNL     1     -10.800   5.249   1.786  0.00  0.00    +0.031 C 
ATOM     30  C   UNL     1      -9.564   4.891   2.639  0.00  0.00    +0.160 C 
ATOM     31  O   UNL     1      -8.922   3.767   2.023  0.00  0.00    -0.375 OA
ENDBRANCH  26  27
ENDBRANCH  24  26
ENDBRANCH  22  24
ENDBRANCH   7  21
BRANCH   1  32
ATOM     32  C   UNL     1      -1.438  -1.755   1.035  0.00  0.00    +0.339 C 
ATOM     33  O   UNL     1      -0.432  -2.425   1.194  0.00  0.00    -0.245 OA
BRANCH  32  34
ATOM     34  O   UNL     1      -1.383  -0.412   1.168  0.00  0.00    -0.462 OA
BRANCH  34  36
ATOM     35  C   UNL     1      -0.244   1.669   1.633  0.00  0.00    +0.048 C 
ATOM     36  C   UNL     1      -0.094   0.167   1.386  0.00  0.00    +0.229 C 
ENDBRANCH  34  36
ENDBRANCH  32  34
ENDBRANCH   1  32
TORSDOF 10
