REMARK  Name = ZINC36313367
REMARK  15 active torsions:
REMARK  status: ('A' for Active; 'I' for Inactive)
REMARK    1  A    between atoms: C_1  and  C_2
REMARK    2  A    between atoms: C_2  and  C_3
REMARK    3  A    between atoms: C_3  and  C_5
REMARK    4  A    between atoms: C_3  and  N_6
REMARK    5  A    between atoms: N_6  and  C_7
REMARK    6  A    between atoms: N_6  and  C_26
REMARK    7  A    between atoms: C_7  and  C_8
REMARK    8  A    between atoms: C_9  and  C_19
REMARK    9  A    between atoms: C_12  and  N_13
REMARK   10  A    between atoms: C_26  and  C_27
REMARK   11  A    between atoms: C_27  and  C_29
REMARK   12  A    between atoms: C_27  and  O_38
REMARK   13  A    between atoms: C_29  and  O_30
REMARK   14  A    between atoms: O_30  and  C_31
REMARK   15  A    between atoms: C_31  and  C_32
REMARK                            x       y       z     vdW  Elec       q    Type
REMARK                         _______ _______ _______ _____ _____    ______ ____
ROOT
ATOM      1  N   UNL     1       1.498   0.336  -1.435  0.00  0.00    +0.386 N 
ATOM      2  H   UNL     1       1.856  -0.208  -0.665  0.00  0.00    -0.081 HD
ENDROOT
BRANCH   1   3
ATOM      3  C   UNL     1       0.035   0.206  -1.488  0.00  0.00    -0.071 C 
ATOM      4  C   UNL     1      -0.442   0.400  -2.929  0.00  0.00    -0.013 C 
BRANCH   3   6
ATOM      5  C   UNL     1      -0.050  -1.316   0.491  0.00  0.00    +0.002 C 
ATOM      6  C   UNL     1      -0.371  -1.185  -0.999  0.00  0.00    -0.019 C 
ENDBRANCH   3   6
ENDBRANCH   1   3
BRANCH   1   7
ATOM      7  C   UNL     1       1.858   1.747  -1.247  0.00  0.00    -0.035 C 
BRANCH   7   8
ATOM      8  C   UNL     1       1.369   2.215   0.100  0.00  0.00    +0.025 A 
ATOM      9  C   UNL     1       1.901   1.839   1.351  0.00  0.00    +0.119 A 
ATOM     10  N   UNL     1       1.211   2.453   2.285  0.00  0.00    -0.076 NA
ATOM     11  O   UNL     1       0.218   3.238   1.651  0.00  0.00    -0.339 OA
ATOM     12  C   UNL     1       0.345   3.076   0.322  0.00  0.00    +0.222 A 
BRANCH   9  13
ATOM     13  C   UNL     1       3.040   0.913   1.573  0.00  0.00    +0.039 A 
ATOM     14  C   UNL     1       3.741   0.394   0.487  0.00  0.00    +0.013 A 
ATOM     15  C   UNL     1       4.799  -0.467   0.699  0.00  0.00    +0.001 A 
ATOM     16  C   UNL     1       5.165  -0.814   1.988  0.00  0.00    +0.003 A 
ATOM     17  C   UNL     1       4.475  -0.303   3.070  0.00  0.00    +0.039 A 
ATOM     18  C   UNL     1       3.416   0.565   2.871  0.00  0.00    +0.133 A 
ATOM     19  F   UNL     1       2.745   1.069   3.929  0.00  0.00    -0.205 F 
ENDBRANCH   9  13
BRANCH  12  20
ATOM     20  N   UNL     1      -0.435   3.679  -0.648  0.00  0.00    -0.295 N 
ATOM     21  C   UNL     1      -1.731   3.105  -1.042  0.00  0.00    +0.136 C 
ATOM     22  C   UNL     1      -2.788   4.214  -0.988  0.00  0.00    +0.179 C 
ATOM     23  O   UNL     1      -2.333   5.335  -1.748  0.00  0.00    -0.377 OA
ATOM     24  C   UNL     1      -1.135   5.935  -1.247  0.00  0.00    +0.179 C 
ATOM     25  C   UNL     1       0.004   4.917  -1.311  0.00  0.00    +0.136 C 
ENDBRANCH  12  20
ENDBRANCH   7   8
ENDBRANCH   1   7
BRANCH   1  26
ATOM     26  C   UNL     1       2.079  -0.154  -2.692  0.00  0.00    -0.044 C 
BRANCH  26  27
ATOM     27  C   UNL     1       1.796  -1.651  -2.836  0.00  0.00    +0.124 C 
BRANCH  27  28
ATOM     28  O   UNL     1       2.341  -2.348  -1.713  0.00  0.00    -0.391 OA
ATOM     29  H   UNL     1       3.297  -2.247  -1.614  0.00  0.00    +0.210 HD
ENDBRANCH  27  28
BRANCH  27  30
ATOM     30  C   UNL     1       2.441  -2.171  -4.122  0.00  0.00    +0.189 C 
BRANCH  30  31
ATOM     31  O   UNL     1       2.081  -3.541  -4.315  0.00  0.00    -0.373 OA
BRANCH  31  32
ATOM     32  C   UNL     1       2.635  -4.126  -5.495  0.00  0.00    +0.195 C 
BRANCH  32  33
ATOM     33  C   UNL     1       2.192  -5.563  -5.599  0.00  0.00    -0.022 A 
ATOM     34  C   UNL     1       2.950  -6.563  -5.019  0.00  0.00    +0.006 A 
ATOM     35  C   UNL     1       2.543  -7.881  -5.114  0.00  0.00    +0.000 A 
ATOM     36  C   UNL     1       1.379  -8.198  -5.788  0.00  0.00    +0.000 A 
ATOM     37  C   UNL     1       0.621  -7.198  -6.367  0.00  0.00    +0.000 A 
ATOM     38  C   UNL     1       1.025  -5.880  -6.268  0.00  0.00    +0.006 A 
ENDBRANCH  32  33
ENDBRANCH  31  32
ENDBRANCH  30  31
ENDBRANCH  27  30
ENDBRANCH  26  27
ENDBRANCH   1  26
TORSDOF 13
