REMARK  Name = ZINC62918527
REMARK  5 active torsions:
REMARK  status: ('A' for Active; 'I' for Inactive)
REMARK    1  A    between atoms: C_1  and  C_2
REMARK    2  A    between atoms: C_2  and  C_3
REMARK    3  A    between atoms: C_3  and  C_4
REMARK    4  A    between atoms: C_4  and  C_18
REMARK    5  A    between atoms: C_9  and  C_11
REMARK                            x       y       z     vdW  Elec       q    Type
REMARK                         _______ _______ _______ _____ _____    ______ ____
ROOT
ATOM      1  C   UNL     1       0.741  -2.023  -1.272  0.00  0.00    +0.089 C 
ATOM      2  C   UNL     1       1.396  -2.553  -2.569  0.00  0.00    +0.039 C 
ATOM      3  C   UNL     1       0.517  -3.779  -2.921  0.00  0.00    +0.109 C 
ATOM      4  N   UNL     1      -0.847  -3.338  -2.548  0.00  0.00    -0.295 N 
ATOM      5  C   UNL     1      -0.697  -2.574  -1.296  0.00  0.00    +0.126 C 
ATOM      6  C   UNL     1      -1.991  -3.585  -3.216  0.00  0.00    +0.269 C 
ATOM      7  O   UNL     1      -1.957  -4.149  -4.292  0.00  0.00    -0.268 OA
ENDROOT
BRANCH   6   8
ATOM      8  C   UNL     1      -3.288  -3.169  -2.641  0.00  0.00    +0.172 A 
ATOM      9  C   UNL     1      -4.478  -3.518  -3.287  0.00  0.00    +0.209 A 
ATOM     10  C   UNL     1      -5.690  -3.116  -2.728  0.00  0.00    +0.054 A 
ATOM     11  C   UNL     1      -5.665  -2.387  -1.553  0.00  0.00    +0.023 A 
ATOM     12  C   UNL     1      -4.445  -2.078  -0.969  0.00  0.00    +0.112 A 
ATOM     13  N   UNL     1      -3.314  -2.471  -1.511  0.00  0.00    -0.247 NA
ATOM     14  O   UNL     1      -4.454  -4.234  -4.438  0.00  0.00    -0.285 OA
ENDBRANCH   6   8
BRANCH   1  15
ATOM     15  C   UNL     1       1.479  -2.537  -0.063  0.00  0.00    +0.364 C 
ATOM     16  O   UNL     1       1.092  -2.247   1.056  0.00  0.00    -0.246 OA
ATOM     17  O   UNL     1       2.463  -3.243  -0.203  0.00  0.00    -0.246 OA
ENDBRANCH   1  15
BRANCH   1  18
ATOM     18  C   UNL     1       0.724  -0.493  -1.272  0.00  0.00    +0.019 C 
BRANCH  18  20
ATOM     19  C   UNL     1      -0.009   1.539  -0.017  0.00  0.00    +0.004 C 
ATOM     20  C   UNL     1       0.008   0.009  -0.017  0.00  0.00    -0.002 C 
ENDBRANCH  18  20
ENDBRANCH   1  18
TORSDOF 4
