REMARK  Name = ZINC39744518
REMARK  14 active torsions:
REMARK  status: ('A' for Active; 'I' for Inactive)
REMARK    1  A    between atoms: C_1  and  C_2
REMARK    2  A    between atoms: C_2  and  C_3
REMARK    3  A    between atoms: C_3  and  C_5
REMARK    4  A    between atoms: C_3  and  S_18
REMARK    5  A    between atoms: N_7  and  C_8
REMARK    6  A    between atoms: S_18  and  C_19
REMARK    7  A    between atoms: C_22  and  C_27
REMARK    8  A    between atoms: N_23  and  C_24
REMARK    9  A    between atoms: C_24  and  C_25
REMARK   10  A    between atoms: C_27  and  C_28
REMARK   11  A    between atoms: N_30  and  C_31
REMARK   12  A    between atoms: C_36  and  C_37
REMARK   13  A    between atoms: C_37  and  C_38
REMARK   14  A    between atoms: C_37  and  C_39
REMARK                            x       y       z     vdW  Elec       q    Type
REMARK                         _______ _______ _______ _____ _____    ______ ____
ROOT
ATOM      1  C   UNL     1      -2.355   1.297   1.901  0.00  0.00    +0.193 A 
ATOM      2  N   UNL     1      -2.261   2.126   0.887  0.00  0.00    -0.122 NA
ATOM      3  N   UNL     1      -2.560   3.317   1.267  0.00  0.00    -0.133 NA
ATOM      4  C   UNL     1      -2.860   3.319   2.535  0.00  0.00    +0.143 A 
ATOM      5  N   UNL     1      -2.747   2.032   2.983  0.00  0.00    -0.302 N 
ENDROOT
BRANCH   1   6
ATOM      6  S   UNL     1      -2.044  -0.437   1.870  0.00  0.00    -0.073 S 
BRANCH   6   7
ATOM      7  C   UNL     1      -1.428  -0.742   0.191  0.00  0.00    +0.140 C 
BRANCH   7   8
ATOM      8  C   UNL     1      -2.523  -0.458  -0.805  0.00  0.00    +0.231 C 
ATOM      9  O   UNL     1      -3.681  -0.444  -0.445  0.00  0.00    -0.274 OA
ATOM     10  N   UNL     1      -2.215  -0.221  -2.095  0.00  0.00    -0.284 N 
ATOM     11  H   UNL     1      -1.287  -0.156  -2.368  0.00  0.00    +0.155 HD
BRANCH  10  12
ATOM     12  C   UNL     1      -3.233  -0.067  -3.038  0.00  0.00    +0.041 A 
ATOM     13  C   UNL     1      -4.476  -0.620  -2.817  0.00  0.00    +0.024 A 
ATOM     14  C   UNL     1      -5.497  -0.473  -3.751  0.00  0.00    +0.002 A 
ATOM     15  C   UNL     1      -5.298   0.219  -4.906  0.00  0.00    +0.008 A 
ATOM     16  C   UNL     1      -4.046   0.799  -5.170  0.00  0.00    -0.016 A 
ATOM     17  C   UNL     1      -3.000   0.661  -4.225  0.00  0.00    +0.003 A 
ATOM     18  C   UNL     1      -1.751   1.244  -4.488  0.00  0.00    +0.010 A 
ATOM     19  C   UNL     1      -1.562   1.939  -5.643  0.00  0.00    +0.001 A 
ATOM     20  C   UNL     1      -2.591   2.081  -6.571  0.00  0.00    +0.001 A 
ATOM     21  C   UNL     1      -3.812   1.520  -6.355  0.00  0.00    +0.008 A 
ENDBRANCH  10  12
ENDBRANCH   7   8
BRANCH   7  23
ATOM     22  C   UNL     1       0.198  -2.461   0.995  0.00  0.00    +0.005 C 
ATOM     23  C   UNL     1      -0.991  -2.203   0.066  0.00  0.00    +0.020 C 
ENDBRANCH   7  23
ENDBRANCH   6   7
ENDBRANCH   1   6
BRANCH   5  24
ATOM     24  C   UNL     1      -2.990   1.545   4.343  0.00  0.00    +0.152 C 
BRANCH  24  25
ATOM     25  C   UNL     1      -1.713   1.617   5.139  0.00  0.00    -0.013 C 
ATOM     26  C   UNL     1      -1.685   2.269   6.275  0.00  0.00    +0.005 C 
ENDBRANCH  24  25
ENDBRANCH   5  24
BRANCH   4  27
ATOM     27  C   UNL     1      -3.264   4.518   3.354  0.00  0.00    +0.172 C 
BRANCH  27  28
ATOM     28  C   UNL     1      -4.762   4.678   3.305  0.00  0.00    +0.225 C 
ATOM     29  O   UNL     1      -5.435   3.896   2.668  0.00  0.00    -0.275 OA
ATOM     30  N   UNL     1      -5.354   5.690   3.969  0.00  0.00    -0.285 N 
ATOM     31  H   UNL     1      -4.812   6.355   4.424  0.00  0.00    +0.155 HD
BRANCH  30  32
ATOM     32  C   UNL     1      -6.749   5.783   4.004  0.00  0.00    +0.037 A 
ATOM     33  C   UNL     1      -7.509   5.240   2.976  0.00  0.00    +0.023 A 
ATOM     34  C   UNL     1      -8.886   5.334   3.013  0.00  0.00    +0.002 A 
ATOM     35  C   UNL     1      -9.509   5.968   4.072  0.00  0.00    +0.000 A 
ATOM     36  C   UNL     1      -8.756   6.510   5.098  0.00  0.00    +0.006 A 
ATOM     37  C   UNL     1      -7.378   6.414   5.070  0.00  0.00    -0.024 A 
BRANCH  37  38
ATOM     38  C   UNL     1      -6.559   6.998   6.191  0.00  0.00    +0.015 C 
ATOM     39  C   UNL     1      -6.913   8.476   6.365  0.00  0.00    +0.012 C 
ATOM     40  C   UNL     1      -6.859   6.245   7.489  0.00  0.00    +0.012 C 
ENDBRANCH  37  38
ENDBRANCH  30  32
ENDBRANCH  27  28
ENDBRANCH   4  27
TORSDOF 11
