REMARK  Name = ZINC36049534
REMARK  7 active torsions:
REMARK  status: ('A' for Active; 'I' for Inactive)
REMARK    1  A    between atoms: C_1  and  C_2
REMARK    2  A    between atoms: C_6  and  N_8
REMARK    3  A    between atoms: C_10  and  C_32
REMARK    4  A    between atoms: C_14  and  C_16
REMARK    5  A    between atoms: C_16  and  N_17
REMARK    6  A    between atoms: N_17  and  C_18
REMARK    7  A    between atoms: C_21  and  C_23
REMARK                            x       y       z     vdW  Elec       q    Type
REMARK                         _______ _______ _______ _____ _____    ______ ____
ROOT
ATOM      1  N   UNL     1      -2.665  -1.906   0.052  0.00  0.00    -0.287 N 
ATOM      2  C   UNL     1      -2.203  -0.931   0.902  0.00  0.00    +0.122 A 
ATOM      3  C   UNL     1      -2.285  -1.435   2.159  0.00  0.00    +0.091 A 
ATOM      4  N   UNL     1      -2.784  -2.687   2.076  0.00  0.00    -0.214 NA
ATOM      5  C   UNL     1      -3.020  -2.975   0.820  0.00  0.00    +0.207 A 
ATOM      6  N   UNL     1      -3.542  -4.173   0.349  0.00  0.00    -0.254 N 
ATOM      7  C   UNL     1      -3.855  -5.158   1.213  0.00  0.00    +0.237 C 
ATOM      8  O   UNL     1      -3.680  -4.999   2.403  0.00  0.00    -0.274 OA
ATOM      9  H   UNL     1      -3.681  -4.300  -0.603  0.00  0.00    +0.158 HD
ENDROOT
BRANCH   1  15
ATOM     10  C   UNL     1      -4.124   0.564  -3.943  0.00  0.00    +0.044 C 
ATOM     11  C   UNL     1      -3.461  -0.630  -3.306  0.00  0.00    -0.048 A 
ATOM     12  C   UNL     1      -2.946  -1.640  -4.098  0.00  0.00    +0.003 A 
ATOM     13  C   UNL     1      -2.337  -2.736  -3.517  0.00  0.00    +0.002 A 
ATOM     14  C   UNL     1      -2.243  -2.828  -2.142  0.00  0.00    +0.026 A 
ATOM     15  C   UNL     1      -2.759  -1.816  -1.344  0.00  0.00    +0.049 A 
ATOM     16  C   UNL     1      -3.365  -0.713  -1.931  0.00  0.00    +0.029 A 
ENDBRANCH   1  15
BRANCH   3  17
ATOM     17  C   UNL     1      -1.894  -0.734   3.407  0.00  0.00    +0.002 A 
ATOM     18  C   UNL     1      -1.395   0.566   3.352  0.00  0.00    +0.010 A 
ATOM     19  C   UNL     1      -1.032   1.213   4.515  0.00  0.00    +0.001 A 
ATOM     20  C   UNL     1      -1.163   0.574   5.735  0.00  0.00    +0.000 A 
ATOM     21  C   UNL     1      -1.658  -0.717   5.796  0.00  0.00    +0.001 A 
ATOM     22  C   UNL     1      -2.030  -1.371   4.639  0.00  0.00    +0.010 A 
ENDBRANCH   3  17
BRANCH   7  23
ATOM     23  C   UNL     1      -4.421  -6.458   0.702  0.00  0.00    +0.204 C 
BRANCH  23  24
ATOM     24  N   UNL     1      -4.675  -7.357   1.830  0.00  0.00    -0.286 N 
ATOM     25  C   UNL     1      -3.897  -8.443   2.014  0.00  0.00    +0.247 C 
ATOM     26  O   UNL     1      -4.163  -9.238   2.894  0.00  0.00    -0.270 OA
BRANCH  25  27
ATOM     27  C   UNL     1      -2.722  -8.665   1.149  0.00  0.00    +0.041 A 
ATOM     28  C   UNL     1      -2.072  -7.578   0.559  0.00  0.00    +0.017 A 
ATOM     29  C   UNL     1      -0.975  -7.787  -0.248  0.00  0.00    +0.050 A 
ATOM     30  C   UNL     1      -0.512  -9.076  -0.479  0.00  0.00    +0.166 A 
ATOM     31  C   UNL     1      -1.158 -10.166   0.107  0.00  0.00    +0.167 A 
ATOM     32  C   UNL     1      -2.255  -9.962   0.922  0.00  0.00    +0.062 A 
ATOM     33  O   UNL     1      -0.515 -11.309  -0.272  0.00  0.00    -0.453 OA
ATOM     34  C   UNL     1       0.276 -10.941  -1.419  0.00  0.00    +0.466 C 
ATOM     35  O   UNL     1       0.533  -9.539  -1.222  0.00  0.00    -0.453 OA
ENDBRANCH  25  27
BRANCH  24  36
ATOM     36  C   UNL     1      -5.774  -7.078   2.756  0.00  0.00    +0.077 C 
ATOM     37  C   UNL     1      -5.761  -7.798   4.106  0.00  0.00    +0.024 C 
ATOM     38  C   UNL     1      -6.771  -8.206   3.032  0.00  0.00    +0.024 C 
ENDBRANCH  24  36
ENDBRANCH  23  24
ENDBRANCH   7  23
TORSDOF 6
