REMARK  Name = ZINC06135180
REMARK  10 active torsions:
REMARK  status: ('A' for Active; 'I' for Inactive)
REMARK    1  A    between atoms: C_1  and  C_2
REMARK    2  A    between atoms: C_2  and  C_3
REMARK    3  A    between atoms: C_10  and  C_15
REMARK    4  A    between atoms: C_15  and  C_17
REMARK    5  A    between atoms: C_15  and  N_73
REMARK    6  A    between atoms: N_21  and  C_22
REMARK    7  A    between atoms: C_27  and  C_28
REMARK    8  A    between atoms: C_27  and  N_73
REMARK    9  A    between atoms: C_34  and  C_35
REMARK   10  A    between atoms: C_34  and  N_73
REMARK                            x       y       z     vdW  Elec       q    Type
REMARK                         _______ _______ _______ _____ _____    ______ ____
ROOT
ATOM      1  C   UNL     1       4.235   0.932  -1.529  0.00  0.00    +0.039 C 
ENDROOT
BRANCH   1   9
ATOM      2  C   UNL     1       6.693  -2.702  -5.891  0.00  0.00    -0.047 A 
ATOM      3  C   UNL     1       6.446  -1.851  -6.960  0.00  0.00    +0.005 A 
ATOM      4  C   UNL     1       5.824  -0.637  -6.764  0.00  0.00    +0.026 A 
ATOM      5  C   UNL     1       5.438  -0.259  -5.482  0.00  0.00    +0.049 A 
ATOM      6  C   UNL     1       5.691  -1.124  -4.401  0.00  0.00    -0.001 A 
ATOM      7  C   UNL     1       6.324  -2.352  -4.624  0.00  0.00    +0.013 A 
ATOM      8  C   UNL     1       5.285  -0.715  -3.055  0.00  0.00    +0.017 A 
ATOM      9  C   UNL     1       4.670   0.483  -2.900  0.00  0.00    +0.011 A 
ATOM     10  C   UNL     1       4.440   1.314  -4.018  0.00  0.00    +0.251 A 
ATOM     11  O   UNL     1       3.889   2.389  -3.856  0.00  0.00    -0.268 OA
ATOM     12  N   UNL     1       4.813   0.949  -5.257  0.00  0.00    -0.322 N 
ATOM     13  H   UNL     1       4.635   1.562  -6.026  0.00  0.00    +0.169 HD
BRANCH   2  15
ATOM     14  C   UNL     1       6.323  -5.098  -6.414  0.00  0.00    +0.009 C 
ATOM     15  C   UNL     1       7.376  -4.024  -6.132  0.00  0.00    +0.032 C 
ENDBRANCH   2  15
ENDBRANCH   1   9
BRANCH   1  16
ATOM     16  C   UNL     1       5.155   2.022  -1.042  0.00  0.00    +0.143 A 
ATOM     17  N   UNL     1       5.169   3.271  -1.441  0.00  0.00    -0.115 NA
ATOM     18  N   UNL     1       6.096   3.885  -0.790  0.00  0.00    -0.023 NA
ATOM     19  N   UNL     1       6.673   3.062   0.013  0.00  0.00    -0.044 NA
ATOM     20  N   UNL     1       6.117   1.904  -0.108  0.00  0.00    -0.227 N 
BRANCH  20  21
ATOM     21  C   UNL     1       6.470   0.688   0.628  0.00  0.00    +0.111 C 
ATOM     22  C   UNL     1       6.351   0.936   2.146  0.00  0.00    +0.027 C 
ATOM     23  C   UNL     1       7.528   0.135   2.756  0.00  0.00    +0.002 C 
ATOM     24  C   UNL     1       8.660   0.349   1.720  0.00  0.00    +0.002 C 
ATOM     25  C   UNL     1       7.938   0.314   0.357  0.00  0.00    +0.027 C 
ENDBRANCH  20  21
ENDBRANCH   1  16
BRANCH   1  26
ATOM     26  N   UNL     1       2.857   1.460  -1.620  0.00  0.00    +0.394 N 
ATOM     27  H   UNL     1       2.751   1.966  -2.507  0.00  0.00    -0.080 HD
BRANCH  26  28
ATOM     28  C   UNL     1       2.598   2.391  -0.502  0.00  0.00    -0.040 C 
BRANCH  28  29
ATOM     29  C   UNL     1       1.278   3.079  -0.738  0.00  0.00    -0.046 A 
ATOM     30  C   UNL     1       0.104   2.537  -0.236  0.00  0.00    +0.005 A 
ATOM     31  C   UNL     1      -1.088   3.200  -0.483  0.00  0.00    +0.020 A 
ATOM     32  C   UNL     1      -1.066   4.378  -1.206  0.00  0.00    +0.111 A 
ATOM     33  N   UNL     1       0.069   4.864  -1.669  0.00  0.00    -0.263 NA
ATOM     34  C   UNL     1       1.221   4.257  -1.458  0.00  0.00    +0.112 A 
ENDBRANCH  28  29
ENDBRANCH  26  28
BRANCH  26  35
ATOM     35  C   UNL     1       1.886   0.346  -1.584  0.00  0.00    -0.045 C 
BRANCH  35  36
ATOM     36  C   UNL     1       1.880  -0.344  -2.950  0.00  0.00    +0.102 C 
ATOM     37  C   UNL     1       0.586  -1.167  -3.132  0.00  0.00    +0.032 C 
ATOM     38  C   UNL     1       1.047  -2.427  -3.898  0.00  0.00    +0.030 C 
ATOM     39  C   UNL     1       2.565  -2.216  -4.089  0.00  0.00    +0.160 C 
ATOM     40  O   UNL     1       2.948  -1.313  -3.029  0.00  0.00    -0.378 OA
ENDBRANCH  35  36
ENDBRANCH  26  35
ENDBRANCH   1  26
TORSDOF 9
