REMARK  Name = ZINC20914345
REMARK  12 active torsions:
REMARK  status: ('A' for Active; 'I' for Inactive)
REMARK    1  A    between atoms: C_1  and  O_2
REMARK    2  A    between atoms: O_2  and  C_3
REMARK    3  A    between atoms: C_3  and  C_5
REMARK    4  A    between atoms: C_8  and  C_11
REMARK    5  A    between atoms: N_12  and  N_13
REMARK    6  A    between atoms: C_17  and  S_20
REMARK    7  A    between atoms: N_18  and  N_19
REMARK    8  A    between atoms: S_20  and  C_21
REMARK    9  A    between atoms: C_21  and  C_22
REMARK   10  A    between atoms: N_24  and  C_25
REMARK   11  A    between atoms: C_28  and  S_31
REMARK   12  A    between atoms: S_31  and  N_34
REMARK                            x       y       z     vdW  Elec       q    Type
REMARK                         _______ _______ _______ _____ _____    ______ ____
ROOT
ATOM      1  N   UNL     1      -6.237   5.982   0.093  0.00  0.00    -0.204 N 
ATOM      2  C   UNL     1      -6.256   7.370   0.096  0.00  0.00    +0.254 A 
ATOM      3  N   UNL     1      -5.213   8.162   0.105  0.00  0.00    -0.109 NA
ATOM      4  N   UNL     1      -5.592   9.390   0.102  0.00  0.00    -0.119 NA
ATOM      5  C   UNL     1      -6.902   9.456   0.100  0.00  0.00    +0.210 A 
ATOM      6  N   UNL     1      -7.371   8.169   0.095  0.00  0.00    -0.211 N 
ATOM      7  H   UNL     1      -7.182   5.420   0.090  0.00  0.00    +0.177 HD
ENDROOT
BRANCH   6   8
ATOM      8  N   UNL     1      -8.676   7.766   0.091  0.00  0.00    -0.294 N 
ATOM      9  H   UNL     1      -9.482   8.514   0.092  0.00  0.00    +0.163 HD
ATOM     10  H   UNL     1      -8.920   6.693   0.088  0.00  0.00    +0.163 HD
ENDBRANCH   6   8
BRANCH   1  12
ATOM     11  C   UNL     1      -4.997   3.999   0.091  0.00  0.00    +0.138 C 
ATOM     12  N   UNL     1      -5.014   5.299   0.094  0.00  0.00    -0.188 NA
BRANCH  11  16
ATOM     13  C   UNL     1      -1.300   1.931   0.094  0.00  0.00    +0.059 A 
ATOM     14  C   UNL     1      -1.319   3.330   0.103  0.00  0.00    +0.015 A 
ATOM     15  C   UNL     1      -2.510   3.997   0.096  0.00  0.00    +0.010 A 
ATOM     16  C   UNL     1      -3.712   3.280   0.092  0.00  0.00    -0.005 A 
ATOM     17  C   UNL     1      -3.693   1.881   0.089  0.00  0.00    +0.010 A 
ATOM     18  C   UNL     1      -2.501   1.215   0.090  0.00  0.00    +0.015 A 
BRANCH  13  19
ATOM     19  C   UNL     1      -0.013   1.211   0.095  0.00  0.00    +0.339 C 
ATOM     20  O   UNL     1       0.004  -0.004   0.092  0.00  0.00    -0.245 OA
BRANCH  19  22
ATOM     21  C   UNL     1       2.373   1.127   0.088  0.00  0.00    +0.280 C 
ATOM     22  O   UNL     1       1.145   1.901   0.093  0.00  0.00    -0.464 OA
ENDBRANCH  19  22
ENDBRANCH  13  19
ENDBRANCH  11  16
ENDBRANCH   1  12
BRANCH   5  23
ATOM     23  S   UNL     1      -7.875  10.924   0.101  0.00  0.00    -0.075 S 
BRANCH  23  24
ATOM     24  C   UNL     1      -6.563  12.171   0.107  0.00  0.00    +0.173 C 
BRANCH  24  25
ATOM     25  C   UNL     1      -7.178  13.547   0.109  0.00  0.00    +0.227 C 
ATOM     26  O   UNL     1      -8.384  13.672   0.106  0.00  0.00    -0.275 OA
ATOM     27  N   UNL     1      -6.387  14.639   0.113  0.00  0.00    -0.285 N 
ATOM     28  H   UNL     1      -5.295  14.527   0.193  0.00  0.00    +0.155 HD
BRANCH  27  29
ATOM     29  C   UNL     1      -6.954  15.914   0.017  0.00  0.00    +0.034 A 
ATOM     30  C   UNL     1      -6.290  16.921  -0.671  0.00  0.00    +0.025 A 
ATOM     31  C   UNL     1      -6.856  18.177  -0.770  0.00  0.00    +0.030 A 
ATOM     32  C   UNL     1      -8.076  18.436  -0.173  0.00  0.00    +0.105 A 
ATOM     33  C   UNL     1      -8.737  17.438   0.518  0.00  0.00    +0.030 A 
ATOM     34  C   UNL     1      -8.180  16.177   0.615  0.00  0.00    +0.025 A 
BRANCH  32  35
ATOM     35  S   UNL     1      -8.791  20.042  -0.295  0.00  0.00    +0.056 S 
ATOM     36  O   UNL     1      -8.236  20.647  -1.455  0.00  0.00    -0.153 OA
ATOM     37  O   UNL     1     -10.191  19.878  -0.117  0.00  0.00    -0.153 OA
BRANCH  35  38
ATOM     38  N   UNL     1      -8.248  20.919   1.001  0.00  0.00    -0.204 NA
ATOM     39  H   UNL     1      -8.673  21.933   0.962  0.00  0.00    +0.144 HD
ATOM     40  H   UNL     1      -7.150  20.980   0.968  0.00  0.00    +0.144 HD
ENDBRANCH  35  38
ENDBRANCH  32  35
ENDBRANCH  27  29
ENDBRANCH  24  25
ENDBRANCH  23  24
ENDBRANCH   5  23
TORSDOF 11
