REMARK  Name = ZINC65265927
REMARK  5 active torsions:
REMARK  status: ('A' for Active; 'I' for Inactive)
REMARK    1  A    between atoms: C_1  and  C_2
REMARK    2  A    between atoms: C_7  and  O_8
REMARK    3  A    between atoms: O_8  and  C_9
REMARK    4  A    between atoms: C_9  and  C_10
REMARK    5  A    between atoms: N_27  and  C_28
REMARK                            x       y       z     vdW  Elec       q    Type
REMARK                         _______ _______ _______ _____ _____    ______ ____
ROOT
ATOM      1  C   UNL     1       0.047   0.090   4.775  0.00  0.00    +0.253 C 
ATOM      2  O   UNL     1       0.030   1.294   4.625  0.00  0.00    -0.272 OA
ATOM      3  N   UNL     1       0.066  -0.433   6.017  0.00  0.00    -0.296 N 
ATOM      4  C   UNL     1       0.095  -1.868   6.341  0.00  0.00    +0.110 C 
ATOM      5  C   UNL     1       0.134  -1.991   7.881  0.00  0.00    +0.050 C 
ATOM      6  C   UNL     1       0.660  -0.615   8.320  0.00  0.00    +0.091 C 
ATOM      7  C   UNL     1       0.068   0.339   7.276  0.00  0.00    +0.137 C 
ATOM      8  C   UNL     1       0.239  -0.267   9.707  0.00  0.00    +0.095 C 
ATOM      9  N   UNL     1       1.058   0.590  10.400  0.00  0.00    -0.303 N 
ATOM     10  C   UNL     1       2.100   0.061  11.157  0.00  0.00    +0.037 A 
ATOM     11  C   UNL     1       2.329   0.527  12.444  0.00  0.00    +0.023 A 
ATOM     12  C   UNL     1       3.371   0.015  13.191  0.00  0.00    +0.002 A 
ATOM     13  C   UNL     1       4.183  -0.963  12.646  0.00  0.00    +0.000 A 
ATOM     14  C   UNL     1       3.951  -1.430  11.370  0.00  0.00    +0.007 A 
ATOM     15  C   UNL     1       2.901  -0.931  10.605  0.00  0.00    -0.012 A 
ATOM     16  C   UNL     1       2.711  -1.532   9.236  0.00  0.00    +0.119 C 
ATOM     17  N   UNL     1       2.139  -0.581   8.274  0.00  0.00    -0.299 NA
ATOM     18  N   UNL     1      -0.842  -0.747  10.230  0.00  0.00    -0.372 N 
ATOM     19  H   UNL     1       2.475  -0.765   7.340  0.00  0.00    +0.123 HD
ATOM     20  H   UNL     1      -1.402  -1.351   9.718  0.00  0.00    +0.161 HD
ATOM     21  H   UNL     1       0.914   1.549  10.363  0.00  0.00    +0.153 HD
ENDROOT
BRANCH  18  22
ATOM     22  C   UNL     1      -1.220  -0.379  11.597  0.00  0.00    +0.080 C 
ATOM     23  C   UNL     1      -0.563  -1.344  12.605  0.00  0.00    +0.024 C 
ATOM     24  C   UNL     1      -1.637  -1.535  13.704  0.00  0.00    +0.002 C 
ATOM     25  C   UNL     1      -2.955  -1.569  12.892  0.00  0.00    +0.002 C 
ATOM     26  C   UNL     1      -2.741  -0.522  11.780  0.00  0.00    +0.024 C 
ENDBRANCH  18  22
BRANCH   1  27
ATOM     27  C   UNL     1       0.048  -0.820   3.574  0.00  0.00    +0.324 C 
BRANCH  27  28
ATOM     28  O   UNL     1       0.025  -0.033   2.381  0.00  0.00    -0.483 OA
BRANCH  28  35
ATOM     29  C   UNL     1      -0.018   1.503   0.010  0.00  0.00    +0.047 C 
ATOM     30  C   UNL     1       0.002  -0.004   0.002  0.00  0.00    -0.009 A 
ATOM     31  C   UNL     1       0.006  -0.689  -1.198  0.00  0.00    +0.007 A 
ATOM     32  C   UNL     1       0.024  -2.071  -1.206  0.00  0.00    +0.000 A 
ATOM     33  C   UNL     1       0.039  -2.772  -0.014  0.00  0.00    +0.004 A 
ATOM     34  C   UNL     1       0.036  -2.092   1.188  0.00  0.00    +0.046 A 
ATOM     35  C   UNL     1       0.023  -0.705   1.199  0.00  0.00    +0.124 A 
ENDBRANCH  28  35
ENDBRANCH  27  28
ENDBRANCH   1  27
TORSDOF 4
