REMARK  Name = ZINC16489309
REMARK  10 active torsions:
REMARK  status: ('A' for Active; 'I' for Inactive)
REMARK    1  A    between atoms: C_4  and  N_7
REMARK    2  A    between atoms: C_8  and  C_10
REMARK    3  A    between atoms: C_10  and  O_11
REMARK    4  A    between atoms: O_11  and  C_12
REMARK    5  A    between atoms: C_15  and  C_18
REMARK    6  A    between atoms: N_19  and  N_20
REMARK    7  A    between atoms: C_21  and  C_23
REMARK    8  A    between atoms: C_23  and  S_24
REMARK    9  A    between atoms: S_24  and  C_25
REMARK   10  A    between atoms: C_25  and  C_26
REMARK                            x       y       z     vdW  Elec       q    Type
REMARK                         _______ _______ _______ _____ _____    ______ ____
ROOT
ATOM      1  C   UNL     1       0.003  -0.004   0.012  0.00  0.00    +0.121 A 
ATOM      2  C   UNL     1       1.216  -0.680   0.001  0.00  0.00    +0.046 A 
ATOM      3  C   UNL     1       1.240  -2.058   0.005  0.00  0.00    +0.013 A 
ATOM      4  C   UNL     1       0.041  -2.775   0.010  0.00  0.00    -0.005 A 
ATOM      5  C   UNL     1      -1.178  -2.091   0.016  0.00  0.00    +0.013 A 
ATOM      6  C   UNL     1      -1.192  -0.713   0.016  0.00  0.00    +0.046 A 
ENDROOT
BRANCH   4   7
ATOM      7  C   UNL     1       0.061  -4.249   0.010  0.00  0.00    +0.138 C 
ATOM      8  N   UNL     1       1.194  -4.883   0.005  0.00  0.00    -0.188 NA
BRANCH   8   9
ATOM      9  N   UNL     1       1.213  -6.284   0.004  0.00  0.00    -0.206 N 
ATOM     10  C   UNL     1       2.389  -6.941  -0.001  0.00  0.00    +0.242 C 
ATOM     11  O   UNL     1       3.431  -6.321  -0.006  0.00  0.00    -0.273 OA
ATOM     12  H   UNL     1       0.379  -6.780   0.008  0.00  0.00    +0.177 HD
BRANCH  10  13
ATOM     13  C   UNL     1       2.410  -8.448  -0.001  0.00  0.00    +0.166 C 
BRANCH  13  14
ATOM     14  S   UNL     1       4.128  -9.030  -0.009  0.00  0.00    -0.147 S 
BRANCH  14  15
ATOM     15  C   UNL     1       3.980 -10.837  -0.009  0.00  0.00    +0.105 C 
BRANCH  15  16
ATOM     16  C   UNL     1       5.355 -11.454  -0.015  0.00  0.00    -0.024 A 
ATOM     17  C   UNL     1       5.978 -11.742  -1.215  0.00  0.00    +0.005 A 
ATOM     18  C   UNL     1       7.241 -12.304  -1.221  0.00  0.00    +0.000 A 
ATOM     19  C   UNL     1       7.878 -12.587  -0.027  0.00  0.00    +0.001 A 
ATOM     20  C   UNL     1       7.253 -12.304   1.173  0.00  0.00    +0.015 A 
ATOM     21  C   UNL     1       5.991 -11.737   1.179  0.00  0.00    +0.022 A 
ATOM     22 BR   UNL     1       5.137 -11.351   2.821  0.00  0.00    -0.050 Br
ENDBRANCH  15  16
ENDBRANCH  14  15
ENDBRANCH  13  14
ENDBRANCH  10  13
ENDBRANCH   8   9
ENDBRANCH   4   7
BRANCH   1  23
ATOM     23  O   UNL     1      -0.016   1.354   0.013  0.00  0.00    -0.483 OA
BRANCH  23  24
ATOM     24  C   UNL     1       1.248   2.020   0.008  0.00  0.00    +0.324 C 
BRANCH  24  26
ATOM     25  N   UNL     1       2.088   4.347   0.005  0.00  0.00    -0.283 N 
ATOM     26  C   UNL     1       1.030   3.511   0.009  0.00  0.00    +0.255 C 
ATOM     27  O   UNL     1      -0.097   3.959   0.014  0.00  0.00    -0.272 OA
ATOM     28  H   UNL     1       2.988   3.991   0.069  0.00  0.00    +0.155 HD
BRANCH  25  32
ATOM     29  C   UNL     1       1.492   8.460  -0.281  0.00  0.00    +0.000 A 
ATOM     30  C   UNL     1       0.589   7.679   0.417  0.00  0.00    +0.002 A 
ATOM     31  C   UNL     1       0.784   6.315   0.514  0.00  0.00    +0.023 A 
ATOM     32  C   UNL     1       1.887   5.728  -0.091  0.00  0.00    +0.033 A 
ATOM     33  C   UNL     1       2.795   6.516  -0.787  0.00  0.00    +0.023 A 
ATOM     34  C   UNL     1       2.592   7.879  -0.884  0.00  0.00    +0.002 A 
ENDBRANCH  25  32
ENDBRANCH  24  26
ENDBRANCH  23  24
ENDBRANCH   1  23
TORSDOF 10
