REMARK  Name = ZINC63205651
REMARK  6 active torsions:
REMARK  status: ('A' for Active; 'I' for Inactive)
REMARK    1  A    between atoms: C_6  and  C_28
REMARK    2  A    between atoms: C_8  and  C_11
REMARK    3  A    between atoms: C_11  and  C_12
REMARK    4  A    between atoms: C_12  and  C_13
REMARK    5  A    between atoms: N_18  and  C_21
REMARK    6  A    between atoms: C_24  and  O_27
REMARK                            x       y       z     vdW  Elec       q    Type
REMARK                         _______ _______ _______ _____ _____    ______ ____
ROOT
ATOM      1  C   UNL     1       0.693  -3.169  -0.039  0.00  0.00    +0.043 C 
ENDROOT
BRANCH   1   8
ATOM      2  C   UNL     1      -0.015   1.365  -0.068  0.00  0.00    +0.001 A 
ATOM      3  C   UNL     1       1.167   2.118  -0.088  0.00  0.00    +0.002 A 
ATOM      4  C   UNL     1       2.393   1.552  -0.097  0.00  0.00    +0.026 A 
ATOM      5  C   UNL     1       2.531   0.137  -0.087  0.00  0.00    +0.043 A 
ATOM      6  N   UNL     1       3.589  -0.637  -0.093  0.00  0.00    -0.374 N 
ATOM      7  C   UNL     1       3.145  -2.036  -0.077  0.00  0.00    +0.137 C 
ATOM      8  C   UNL     1       1.634  -1.992  -0.059  0.00  0.00    -0.034 C 
ATOM      9  C   UNL     1       1.297  -0.682  -0.065  0.00  0.00    -0.000 A 
ATOM     10  C   UNL     1       0.004   0.013  -0.056  0.00  0.00    +0.010 A 
ATOM     11  H   UNL     1       4.511  -0.336  -0.107  0.00  0.00    +0.161 HD
BRANCH   7  12
ATOM     12  C   UNL     1       3.631  -2.750  -1.312  0.00  0.00    -0.021 A 
ATOM     13  C   UNL     1       3.646  -2.093  -2.528  0.00  0.00    +0.009 A 
ATOM     14  C   UNL     1       4.091  -2.746  -3.662  0.00  0.00    +0.039 A 
ATOM     15  C   UNL     1       4.523  -4.059  -3.579  0.00  0.00    +0.123 A 
ATOM     16  C   UNL     1       4.508  -4.716  -2.360  0.00  0.00    +0.039 A 
ATOM     17  C   UNL     1       4.067  -4.059  -1.227  0.00  0.00    +0.009 A 
ATOM     18  F   UNL     1       4.958  -4.699  -4.686  0.00  0.00    -0.205 F 
ENDBRANCH   7  12
ENDBRANCH   1   8
BRANCH   1  19
ATOM     19  C   UNL     1      -0.752  -2.666  -0.025  0.00  0.00    +0.100 C 
BRANCH  19  20
ATOM     20  C   UNL     1      -1.693  -3.844  -0.005  0.00  0.00    +0.216 C 
ATOM     21  O   UNL     1      -1.251  -4.973  -0.002  0.00  0.00    -0.276 OA
ATOM     22  N   UNL     1      -3.025  -3.641   0.010  0.00  0.00    -0.298 N 
ATOM     23  C   UNL     1      -3.575  -2.278  -0.000  0.00  0.00    +0.126 C 
ATOM     24  C   UNL     1      -4.542  -2.148  -1.184  0.00  0.00    +0.124 C 
ATOM     25  N   UNL     1      -5.471  -3.286  -1.158  0.00  0.00    -0.327 N 
ATOM     26  C   UNL     1      -4.921  -4.649  -1.148  0.00  0.00    +0.124 C 
ATOM     27  C   UNL     1      -3.955  -4.779   0.029  0.00  0.00    +0.126 C 
BRANCH  25  28
ATOM     28  C   UNL     1      -6.854  -3.076  -1.143  0.00  0.00    +0.030 A 
ATOM     29  C   UNL     1      -7.722  -4.156  -1.235  0.00  0.00    +0.027 A 
ATOM     30  C   UNL     1      -9.088  -3.948  -1.220  0.00  0.00    +0.047 A 
ATOM     31  C   UNL     1      -9.592  -2.660  -1.112  0.00  0.00    +0.117 A 
ATOM     32  C   UNL     1      -8.726  -1.581  -1.021  0.00  0.00    +0.047 A 
ATOM     33  C   UNL     1      -7.360  -1.788  -1.030  0.00  0.00    +0.027 A 
BRANCH  31  34
ATOM     34  O   UNL     1     -10.936  -2.456  -1.097  0.00  0.00    -0.507 OA
ATOM     35  H   UNL     1     -11.326  -2.471  -0.212  0.00  0.00    +0.292 HD
ENDBRANCH  31  34
ENDBRANCH  25  28
ENDBRANCH  19  20
ENDBRANCH   1  19
TORSDOF 6
