REMARK  Name = ZINC02166036
REMARK  4 active torsions:
REMARK  status: ('A' for Active; 'I' for Inactive)
REMARK    1  A    between atoms: C_3  and  O_23
REMARK    2  A    between atoms: C_6  and  C_7
REMARK    3  A    between atoms: N_9  and  N_10
REMARK    4  A    between atoms: N_13  and  C_14
REMARK                            x       y       z     vdW  Elec       q    Type
REMARK                         _______ _______ _______ _____ _____    ______ ____
ROOT
ATOM      1  N   UNL     1       2.449  -4.216  -0.060  0.00  0.00    -0.218 N 
ATOM      2  C   UNL     1       3.627  -4.870  -0.065  0.00  0.00    +0.320 C 
ATOM      3  O   UNL     1       3.648  -6.086  -0.068  0.00  0.00    -0.251 OA
ATOM      4  N   UNL     1       4.783  -4.176  -0.066  0.00  0.00    -0.267 N 
ATOM      5  H   UNL     1       1.617  -4.715  -0.059  0.00  0.00    +0.174 HD
ATOM      6  H   UNL     1       4.767  -3.208  -0.129  0.00  0.00    +0.156 HD
ENDROOT
BRANCH   4   7
ATOM      7  C   UNL     1       6.006  -4.853   0.025  0.00  0.00    +0.055 A 
ATOM      8  C   UNL     1       6.159  -6.096  -0.574  0.00  0.00    +0.046 A 
ATOM      9  C   UNL     1       7.367  -6.761  -0.484  0.00  0.00    +0.061 A 
ATOM     10  C   UNL     1       8.424  -6.189   0.204  0.00  0.00    +0.061 A 
ATOM     11  C   UNL     1       8.274  -4.950   0.801  0.00  0.00    +0.043 A 
ATOM     12  C   UNL     1       7.070  -4.278   0.709  0.00  0.00    +0.064 A 
ATOM     13 CL   UNL     1       6.885  -2.721   1.453  0.00  0.00    -0.082 Cl
ATOM     14 CL   UNL     1       9.940  -7.027   0.316  0.00  0.00    -0.082 Cl
ATOM     15 CL   UNL     1       7.559  -8.316  -1.232  0.00  0.00    -0.082 Cl
ENDBRANCH   4   7
BRANCH   1  18
ATOM     16  C   UNL     1       1.246  -2.161  -0.052  0.00  0.00    +0.260 C 
ATOM     17  O   UNL     1       0.204  -2.787  -0.051  0.00  0.00    -0.269 OA
ATOM     18  N   UNL     1       2.425  -2.815  -0.056  0.00  0.00    -0.229 N 
ATOM     19  H   UNL     1       3.256  -2.316  -0.057  0.00  0.00    +0.173 HD
BRANCH  16  25
ATOM     20  C   UNL     1       0.000  -0.006  -0.043  0.00  0.00    +0.016 A 
ATOM     21  C   UNL     1      -0.019   1.371  -0.040  0.00  0.00    +0.046 A 
ATOM     22  C   UNL     1       1.174   2.085  -0.040  0.00  0.00    +0.117 A 
ATOM     23  C   UNL     1       2.390   1.412  -0.045  0.00  0.00    +0.046 A 
ATOM     24  C   UNL     1       2.418   0.035  -0.049  0.00  0.00    +0.016 A 
ATOM     25  C   UNL     1       1.221  -0.686  -0.048  0.00  0.00    +0.038 A 
BRANCH  22  26
ATOM     26  O   UNL     1       1.151   3.442  -0.037  0.00  0.00    -0.507 OA
ATOM     27  H   UNL     1       1.146   3.833   0.848  0.00  0.00    +0.292 HD
ENDBRANCH  22  26
ENDBRANCH  16  25
ENDBRANCH   1  18
TORSDOF 4
