REMARK  Name = ZINC16186481
REMARK  13 active torsions:
REMARK  status: ('A' for Active; 'I' for Inactive)
REMARK    1  A    between atoms: C_1  and  N_2
REMARK    2  A    between atoms: N_2  and  C_3
REMARK    3  A    between atoms: N_2  and  C_4
REMARK    4  A    between atoms: C_7  and  C_10
REMARK    5  A    between atoms: N_11  and  N_12
REMARK    6  A    between atoms: C_24  and  N_25
REMARK    7  A    between atoms: N_25  and  C_26
REMARK    8  A    between atoms: C_26  and  C_27
REMARK    9  A    between atoms: C_26  and  C_29
REMARK   10  A    between atoms: C_26  and  C_31
REMARK   11  A    between atoms: C_27  and  O_28
REMARK   12  A    between atoms: C_29  and  O_30
REMARK   13  A    between atoms: C_31  and  O_32
REMARK                            x       y       z     vdW  Elec       q    Type
REMARK                         _______ _______ _______ _____ _____    ______ ____
ROOT
ATOM      1  N   UNL     1      -4.448  -7.712  -2.129  0.00  0.00    -0.119 N 
ATOM      2  C   UNL     1      -5.602  -7.024  -2.043  0.00  0.00    +0.274 C 
ATOM      3  O   UNL     1      -6.654  -7.569  -2.321  0.00  0.00    -0.268 OA
ATOM      4  C   UNL     1      -5.598  -5.618  -1.616  0.00  0.00    +0.047 A 
ATOM      5  C   UNL     1      -6.765  -4.873  -1.514  0.00  0.00    +0.014 A 
ATOM      6  C   UNL     1      -6.714  -3.548  -1.106  0.00  0.00    +0.001 A 
ATOM      7  C   UNL     1      -5.518  -2.940  -0.795  0.00  0.00    +0.010 A 
ATOM      8  C   UNL     1      -4.320  -3.663  -0.885  0.00  0.00    +0.004 A 
ATOM      9  C   UNL     1      -4.362  -5.009  -1.298  0.00  0.00    +0.008 A 
ATOM     10  C   UNL     1      -3.170  -5.764  -1.399  0.00  0.00    +0.048 A 
ATOM     11  C   UNL     1      -1.954  -5.163  -1.086  0.00  0.00    +0.015 A 
ATOM     12  C   UNL     1      -1.911  -3.840  -0.685  0.00  0.00    +0.024 A 
ATOM     13  C   UNL     1      -3.067  -3.082  -0.574  0.00  0.00    +0.036 A 
ATOM     14  C   UNL     1      -3.256  -7.161  -1.833  0.00  0.00    +0.274 C 
ATOM     15  O   UNL     1      -2.242  -7.828  -1.928  0.00  0.00    -0.268 OA
ENDROOT
BRANCH   1  17
ATOM     16  C   UNL     1      -4.891  -9.349  -3.738  0.00  0.00    +0.139 C 
ATOM     17  N   UNL     1      -4.489  -9.051  -2.540  0.00  0.00    -0.177 NA
BRANCH  16  21
ATOM     18  C   UNL     1      -5.292  -6.300  -6.664  0.00  0.00    +0.029 A 
ATOM     19  C   UNL     1      -4.695  -6.013  -5.441  0.00  0.00    +0.024 A 
ATOM     20  C   UNL     1      -4.563  -7.000  -4.489  0.00  0.00    +0.011 A 
ATOM     21  C   UNL     1      -5.030  -8.291  -4.754  0.00  0.00    -0.005 A 
ATOM     22  C   UNL     1      -5.624  -8.577  -5.987  0.00  0.00    +0.011 A 
ATOM     23  C   UNL     1      -5.758  -7.583  -6.931  0.00  0.00    +0.024 A 
BRANCH  18  25
ATOM     24  C   UNL     1      -4.934  -3.947  -7.346  0.00  0.00    +0.129 C 
ATOM     25  N   UNL     1      -5.424  -5.299  -7.625  0.00  0.00    -0.336 N 
ATOM     26  C   UNL     1      -6.052  -5.599  -8.914  0.00  0.00    +0.129 C 
ENDBRANCH  18  25
ENDBRANCH  16  21
ENDBRANCH   1  17
BRANCH  13  27
ATOM     27  N   UNL     1      -2.996  -1.763  -0.166  0.00  0.00    -0.332 N 
ATOM     28  H   UNL     1      -3.792  -1.208  -0.177  0.00  0.00    +0.147 HD
BRANCH  27  29
ATOM     29  C   UNL     1      -1.719  -1.203   0.283  0.00  0.00    +0.101 C 
BRANCH  29  30
ATOM     30  C   UNL     1      -1.940   0.220   0.800  0.00  0.00    +0.186 C 
BRANCH  30  31
ATOM     31  O   UNL     1      -0.695   0.766   1.239  0.00  0.00    -0.393 OA
ATOM     32  H   UNL     1      -0.759   1.669   1.580  0.00  0.00    +0.209 HD
ENDBRANCH  30  31
ENDBRANCH  29  30
BRANCH  29  33
ATOM     33  C   UNL     1      -0.735  -1.173  -0.888  0.00  0.00    +0.186 C 
BRANCH  33  34
ATOM     34  O   UNL     1      -1.309  -0.440  -1.973  0.00  0.00    -0.393 OA
ATOM     35  H   UNL     1      -0.739  -0.380  -2.752  0.00  0.00    +0.209 HD
ENDBRANCH  33  34
ENDBRANCH  29  33
BRANCH  29  36
ATOM     36  C   UNL     1      -1.149  -2.071   1.406  0.00  0.00    +0.186 C 
BRANCH  36  37
ATOM     37  O   UNL     1      -2.097  -2.155   2.472  0.00  0.00    -0.393 OA
ATOM     38  H   UNL     1      -1.801  -2.691   3.221  0.00  0.00    +0.209 HD
ENDBRANCH  36  37
ENDBRANCH  29  36
ENDBRANCH  27  29
ENDBRANCH  13  27
TORSDOF 11
