REMARK  Name = ZINC12040057
REMARK  12 active torsions:
REMARK  status: ('A' for Active; 'I' for Inactive)
REMARK    1  A    between atoms: C_1  and  C_2
REMARK    2  A    between atoms: C_2  and  C_10
REMARK    3  A    between atoms: C_3  and  C_4
REMARK    4  A    between atoms: C_10  and  N_66
REMARK    5  A    between atoms: C_12  and  N_29
REMARK    6  A    between atoms: C_15  and  C_17
REMARK    7  A    between atoms: N_19  and  C_20
REMARK    8  A    between atoms: C_20  and  C_21
REMARK    9  A    between atoms: C_21  and  C_22
REMARK   10  A    between atoms: C_31  and  C_34
REMARK   11  A    between atoms: C_34  and  O_36
REMARK   12  A    between atoms: O_36  and  C_37
REMARK                            x       y       z     vdW  Elec       q    Type
REMARK                         _______ _______ _______ _____ _____    ______ ____
ROOT
ATOM      1  C   UNL     1      -3.439   1.193   1.147  0.00  0.00    -0.050 C 
ATOM      2  C   UNL     1      -2.762   1.725   2.428  0.00  0.00    +0.091 C 
ATOM      3  C   UNL     1      -1.266   1.844   2.071  0.00  0.00    +0.019 C 
ATOM      4  C   UNL     1      -1.165   1.373   0.605  0.00  0.00    +0.022 C 
ATOM      5  N   UNL     1      -2.351   0.526   0.435  0.00  0.00    +0.391 N 
ATOM      6  H   UNL     1      -2.183  -0.401   0.842  0.00  0.00    -0.080 HD
ENDROOT
BRANCH   2   7
ATOM      7  N   UNL     1      -3.306   3.039   2.783  0.00  0.00    -0.250 N 
ATOM      8  C   UNL     1      -3.780   3.969   1.930  0.00  0.00    +0.145 A 
ATOM      9  C   UNL     1      -4.183   5.032   2.689  0.00  0.00    +0.189 A 
ATOM     10  N   UNL     1      -3.954   4.743   3.982  0.00  0.00    -0.123 NA
ATOM     11  N   UNL     1      -3.440   3.566   4.075  0.00  0.00    -0.065 NA
BRANCH   9  12
ATOM     12  C   UNL     1      -4.769   6.283   2.176  0.00  0.00    +0.361 C 
ATOM     13  O   UNL     1      -4.931   6.434   0.981  0.00  0.00    -0.243 OA
BRANCH  12  14
ATOM     14  O   UNL     1      -5.127   7.260   3.033  0.00  0.00    -0.463 OA
ATOM     15  C   UNL     1      -5.699   8.465   2.457  0.00  0.00    +0.280 C 
ENDBRANCH  12  14
ENDBRANCH   9  12
ENDBRANCH   2   7
BRANCH   4  16
ATOM     16  C   UNL     1       0.104   0.590   0.390  0.00  0.00    +0.200 C 
ATOM     17  O   UNL     1       0.049  -0.571   0.041  0.00  0.00    -0.278 OA
ATOM     18  N   UNL     1       1.301   1.180   0.581  0.00  0.00    -0.316 N 
ATOM     19  H   UNL     1       1.345   2.108   0.860  0.00  0.00    +0.149 HD
BRANCH  18  20
ATOM     20  C   UNL     1       2.535   0.420   0.367  0.00  0.00    +0.109 C 
BRANCH  20  21
ATOM     21  C   UNL     1       3.742   1.317   0.650  0.00  0.00    +0.054 C 
BRANCH  21  22
ATOM     22  C   UNL     1       5.011   0.535   0.430  0.00  0.00    -0.046 A 
ATOM     23  C   UNL     1       5.583  -0.163   1.478  0.00  0.00    +0.006 A 
ATOM     24  C   UNL     1       6.745  -0.884   1.276  0.00  0.00    +0.038 A 
ATOM     25  C   UNL     1       7.341  -0.899   0.026  0.00  0.00    +0.123 A 
ATOM     26  C   UNL     1       6.771  -0.195  -1.021  0.00  0.00    +0.038 A 
ATOM     27  C   UNL     1       5.606   0.521  -0.818  0.00  0.00    +0.006 A 
ATOM     28  F   UNL     1       8.479  -1.599  -0.171  0.00  0.00    -0.205 F 
ENDBRANCH  21  22
ENDBRANCH  20  21
ENDBRANCH  18  20
ENDBRANCH   4  16
BRANCH   5  29
ATOM     29  C   UNL     1      -2.681   0.373  -1.017  0.00  0.00    -0.047 C 
BRANCH  29  31
ATOM     30  C   UNL     1      -3.305  -2.144  -1.313  0.00  0.00    +0.037 C 
ATOM     31  C   UNL     1      -3.723  -0.701  -1.197  0.00  0.00    -0.089 C 
ATOM     32  C   UNL     1      -5.007  -0.376  -1.254  0.00  0.00    +0.005 C 
BRANCH  32  33
ATOM     33  C   UNL     1      -6.037  -1.436  -1.268  0.00  0.00    -0.025 A 
ATOM     34  C   UNL     1      -7.149  -1.321  -2.103  0.00  0.00    +0.008 A 
ATOM     35  C   UNL     1      -8.105  -2.317  -2.115  0.00  0.00    +0.001 A 
ATOM     36  C   UNL     1      -7.968  -3.421  -1.293  0.00  0.00    +0.000 A 
ATOM     37  C   UNL     1      -6.871  -3.538  -0.459  0.00  0.00    +0.001 A 
ATOM     38  C   UNL     1      -5.905  -2.553  -0.441  0.00  0.00    +0.008 A 
ENDBRANCH  32  33
ENDBRANCH  29  31
ENDBRANCH   5  29
TORSDOF 10
