REMARK  Name = ZINC08648429
REMARK  8 active torsions:
REMARK  status: ('A' for Active; 'I' for Inactive)
REMARK    1  A    between atoms: C_1  and  C_2
REMARK    2  A    between atoms: C_2  and  C_3
REMARK    3  A    between atoms: C_3  and  C_4
REMARK    4  A    between atoms: C_4  and  C_5
REMARK    5  A    between atoms: C_8  and  N_11
REMARK    6  A    between atoms: C_12  and  N_14
REMARK    7  A    between atoms: N_18  and  C_21
REMARK    8  A    between atoms: C_24  and  C_26
REMARK                            x       y       z     vdW  Elec       q    Type
REMARK                         _______ _______ _______ _____ _____    ______ ____
ROOT
ATOM      1  N   UNL     1       1.230  -6.166   0.100  0.00  0.00    -0.141 NA
ATOM      2  S   UNL     1       0.994  -4.830  -0.526  0.00  0.00    -0.097 S 
ATOM      3  C   UNL     1       0.046  -3.917   0.731  0.00  0.00    +0.099 C 
ATOM      4  C   UNL     1       0.203  -2.417   0.458  0.00  0.00    +0.118 C 
ATOM      5  N   UNL     1       1.614  -2.038   0.567  0.00  0.00    -0.314 N 
ATOM      6  C   UNL     1       2.413  -2.506  -0.568  0.00  0.00    +0.118 C 
ATOM      7  C   UNL     1       2.623  -4.021  -0.466  0.00  0.00    +0.099 C 
ENDROOT
BRANCH   5   8
ATOM      8  C   UNL     1       1.749  -0.664   0.738  0.00  0.00    +0.118 A 
ATOM      9  C   UNL     1       2.316  -0.167   1.909  0.00  0.00    +0.079 A 
ATOM     10  C   UNL     1       2.445   1.202   2.065  0.00  0.00    +0.037 A 
ATOM     11  C   UNL     1       2.000   2.030   1.043  0.00  0.00    +0.072 A 
ATOM     12  C   UNL     1       1.448   1.469  -0.091  0.00  0.00    +0.096 A 
ATOM     13 CL   UNL     1       2.854  -1.250   3.154  0.00  0.00    -0.080 Cl
ATOM     14  N   UNL     1       1.306   0.129  -0.279  0.00  0.00    -0.348 N 
ATOM     15  H   UNL     1       0.890  -0.260  -1.133  0.00  0.00    +0.167 HD
BRANCH  11  16
ATOM     16  C   UNL     1       2.120   3.527   1.169  0.00  0.00    +0.419 C 
ATOM     17  F   UNL     1       1.608   4.135   0.019  0.00  0.00    -0.166 F 
ATOM     18  F   UNL     1       1.399   3.960   2.287  0.00  0.00    -0.166 F 
ATOM     19  F   UNL     1       3.467   3.876   1.320  0.00  0.00    -0.166 F 
ENDBRANCH  11  16
ENDBRANCH   5   8
BRANCH   1  21
ATOM     20  N   UNL     1       2.120  -8.302   0.004  0.00  0.00    -0.267 N 
ATOM     21  C   UNL     1       1.907  -7.097  -0.560  0.00  0.00    +0.333 C 
ATOM     22  O   UNL     1       2.335  -6.862  -1.678  0.00  0.00    -0.250 OA
ATOM     23  H   UNL     1       1.723  -8.512   0.864  0.00  0.00    +0.156 HD
BRANCH  20  27
ATOM     24  C   UNL     1       4.476 -11.115  -1.937  0.00  0.00    -0.047 A 
ATOM     25  C   UNL     1       4.516 -11.018  -0.553  0.00  0.00    +0.005 A 
ATOM     26  C   UNL     1       3.737 -10.086   0.097  0.00  0.00    +0.023 A 
ATOM     27  C   UNL     1       2.904  -9.237  -0.641  0.00  0.00    +0.035 A 
ATOM     28  C   UNL     1       2.864  -9.345  -2.037  0.00  0.00    +0.023 A 
ATOM     29  C   UNL     1       3.653 -10.276  -2.675  0.00  0.00    +0.005 A 
BRANCH  24  30
ATOM     30  C   UNL     1       5.332 -12.136  -2.642  0.00  0.00    +0.035 C 
BRANCH  30  31
ATOM     31  C   UNL     1       4.552 -13.445  -2.781  0.00  0.00    +0.004 C 
BRANCH  31  33
ATOM     32  C   UNL     1       4.641 -15.791  -3.637  0.00  0.00    +0.004 C 
ATOM     33  C   UNL     1       5.420 -14.482  -3.497  0.00  0.00    -0.003 C 
ENDBRANCH  31  33
ENDBRANCH  30  31
ENDBRANCH  24  30
ENDBRANCH  20  27
ENDBRANCH   1  21
TORSDOF 7
