REMARK  Name = ZINC13024683
REMARK  14 active torsions:
REMARK  status: ('A' for Active; 'I' for Inactive)
REMARK    1  A    between atoms: C_1  and  C_2
REMARK    2  A    between atoms: C_2  and  C_3
REMARK    3  A    between atoms: C_3  and  C_4
REMARK    4  A    between atoms: C_3  and  C_5
REMARK    5  A    between atoms: C_3  and  N_6
REMARK    6  A    between atoms: C_7  and  C_9
REMARK    7  A    between atoms: C_9  and  C_11
REMARK    8  A    between atoms: C_9  and  N_18
REMARK    9  A    between atoms: N_18  and  C_19
REMARK   10  A    between atoms: C_19  and  C_20
REMARK   11  A    between atoms: C_20  and  C_21
REMARK   12  A    between atoms: C_26  and  C_27
REMARK   13  A    between atoms: C_28  and  C_30
REMARK   14  A    between atoms: C_30  and  N_31
REMARK                            x       y       z     vdW  Elec       q    Type
REMARK                         _______ _______ _______ _____ _____    ______ ____
ROOT
ATOM      1  N   UNL     1       0.077   0.216   0.921  0.00  0.00    -0.284 N 
ATOM      2  C   UNL     1       0.176   1.528   0.626  0.00  0.00    +0.238 C 
ATOM      3  O   UNL     1      -0.594   2.321   1.124  0.00  0.00    -0.274 OA
ENDROOT
BRANCH   1   4
ATOM      4  C   UNL     1       1.004  -0.743   0.315  0.00  0.00    +0.192 C 
BRANCH   4   5
ATOM      5  C   UNL     1       0.814  -0.749  -1.180  0.00  0.00    -0.018 A 
ATOM      6  C   UNL     1      -0.452  -0.603  -1.716  0.00  0.00    +0.009 A 
ATOM      7  C   UNL     1      -0.627  -0.602  -3.087  0.00  0.00    +0.038 A 
ATOM      8  C   UNL     1       0.465  -0.761  -3.923  0.00  0.00    +0.123 A 
ATOM      9  C   UNL     1       1.731  -0.914  -3.385  0.00  0.00    +0.038 A 
ATOM     10  C   UNL     1       1.904  -0.908  -2.014  0.00  0.00    +0.009 A 
ATOM     11  F   UNL     1       0.294  -0.768  -5.263  0.00  0.00    -0.205 F 
ENDBRANCH   4   5
BRANCH   4  13
ATOM     12  N   UNL     1       1.746  -2.881   1.313  0.00  0.00    -0.308 N 
ATOM     13  C   UNL     1       0.729  -2.120   0.862  0.00  0.00    +0.238 C 
ATOM     14  O   UNL     1      -0.406  -2.544   0.896  0.00  0.00    -0.273 OA
ATOM     15  H   UNL     1       2.655  -2.542   1.286  0.00  0.00    +0.149 HD
BRANCH  12  16
ATOM     16  C   UNL     1       1.480  -4.220   1.845  0.00  0.00    +0.029 C 
ATOM     17  C   UNL     1       0.537  -4.114   3.045  0.00  0.00    +0.031 C 
ATOM     18  C   UNL     1       0.829  -5.079   0.760  0.00  0.00    +0.031 C 
BRANCH  16  20
ATOM     19  C   UNL     1       2.517  -6.263   2.841  0.00  0.00    +0.006 C 
ATOM     20  C   UNL     1       2.796  -4.864   2.286  0.00  0.00    +0.022 C 
ENDBRANCH  16  20
ENDBRANCH  12  16
ENDBRANCH   4  13
ENDBRANCH   1   4
BRANCH   1  21
ATOM     21  C   UNL     1      -0.958  -0.250   1.848  0.00  0.00    +0.113 C 
BRANCH  21  22
ATOM     22  C   UNL     1      -2.268  -0.460   1.086  0.00  0.00    +0.054 C 
BRANCH  22  23
ATOM     23  C   UNL     1      -3.355  -0.850   2.054  0.00  0.00    -0.043 A 
ATOM     24  C   UNL     1      -3.651  -2.185   2.260  0.00  0.00    +0.004 A 
ATOM     25  C   UNL     1      -4.644  -2.543   3.151  0.00  0.00    +0.000 A 
ATOM     26  C   UNL     1      -5.350  -1.566   3.829  0.00  0.00    +0.000 A 
ATOM     27  C   UNL     1      -5.058  -0.232   3.619  0.00  0.00    +0.003 A 
ATOM     28  C   UNL     1      -4.060   0.126   2.731  0.00  0.00    -0.047 A 
ATOM     29  C   UNL     1      -3.742   1.581   2.502  0.00  0.00    +0.044 C 
ENDBRANCH  22  23
ENDBRANCH  21  22
ENDBRANCH   1  21
BRANCH   2  30
ATOM     30  C   UNL     1       1.241   2.007  -0.327  0.00  0.00    +0.241 C 
BRANCH  30  31
ATOM     31  N   UNL     1       1.140   3.460  -0.481  0.00  0.00    -0.235 N 
ATOM     32  C   UNL     1       0.394   4.139  -1.414  0.00  0.00    +0.090 A 
ATOM     33  C   UNL     1      -0.461   3.747  -2.439  0.00  0.00    +0.029 A 
ATOM     34  C   UNL     1      -1.077   4.693  -3.209  0.00  0.00    +0.002 A 
ATOM     35  C   UNL     1      -0.861   6.045  -2.975  0.00  0.00    +0.002 A 
ATOM     36  C   UNL     1      -0.032   6.456  -1.973  0.00  0.00    +0.032 A 
ATOM     37  C   UNL     1       0.612   5.506  -1.168  0.00  0.00    +0.113 A 
ATOM     38  N   UNL     1       1.465   5.604  -0.130  0.00  0.00    -0.129 NA
ATOM     39  N   UNL     1       1.791   4.433   0.292  0.00  0.00    -0.064 NA
ENDBRANCH  30  31
ENDBRANCH   2  30
TORSDOF 10
