REMARK  Name = ZINC18206468
REMARK  11 active torsions:
REMARK  status: ('A' for Active; 'I' for Inactive)
REMARK    1  A    between atoms: C_1  and  C_2
REMARK    2  A    between atoms: C_5  and  N_9
REMARK    3  A    between atoms: C_7  and  C_8
REMARK    4  A    between atoms: C_11  and  C_15
REMARK    5  A    between atoms: C_12  and  C_14
REMARK    6  A    between atoms: C_15  and  C_17
REMARK    7  A    between atoms: C_15  and  C_24
REMARK    8  A    between atoms: C_26  and  C_39
REMARK    9  A    between atoms: N_28  and  C_31
REMARK   10  A    between atoms: C_34  and  C_38
REMARK   11  A    between atoms: C_35  and  C_37
REMARK                            x       y       z     vdW  Elec       q    Type
REMARK                         _______ _______ _______ _____ _____    ______ ____
ROOT
ATOM      1  C   UNL     1       0.093  -7.524  -1.554  0.00  0.00    +0.075 C 
ENDROOT
BRANCH   1   4
ATOM      2  N   UNL     1       0.040  -4.210   0.066  0.00  0.00    -0.219 N 
ATOM      3  C   UNL     1       0.074  -4.971  -1.047  0.00  0.00    +0.276 A 
ATOM      4  C   UNL     1       0.065  -6.326  -0.640  0.00  0.00    +0.048 A 
ATOM      5  C   UNL     1       0.026  -6.358   0.707  0.00  0.00    +0.039 A 
ATOM      6  N   UNL     1       0.015  -5.073   1.170  0.00  0.00    -0.294 N 
ATOM      7  C   UNL     1       0.003  -7.601   1.558  0.00  0.00    +0.065 C 
ATOM      8  O   UNL     1       0.106  -4.565  -2.195  0.00  0.00    -0.266 OA
ATOM      9  H   UNL     1      -0.009  -4.804   2.102  0.00  0.00    +0.187 HD
BRANCH   2  14
ATOM     10  C   UNL     1       0.023   1.459   0.246  0.00  0.00    +0.044 C 
ATOM     11  C   UNL     1       0.028  -0.047   0.198  0.00  0.00    -0.047 A 
ATOM     12  C   UNL     1       0.066  -0.699  -1.021  0.00  0.00    +0.006 A 
ATOM     13  C   UNL     1       0.070  -2.079  -1.069  0.00  0.00    +0.028 A 
ATOM     14  C   UNL     1       0.036  -2.813   0.110  0.00  0.00    +0.067 A 
ATOM     15  C   UNL     1      -0.001  -2.155   1.333  0.00  0.00    +0.031 A 
ATOM     16  C   UNL     1       0.000  -0.775   1.374  0.00  0.00    -0.046 A 
ATOM     17  C   UNL     1      -0.035  -0.060   2.700  0.00  0.00    +0.044 C 
ENDBRANCH   2  14
ENDBRANCH   1   4
BRANCH   1  18
ATOM     18  C   UNL     1      -1.198  -7.597  -2.328  0.00  0.00    -0.020 A 
ATOM     19  C   UNL     1      -1.498  -6.626  -3.264  0.00  0.00    +0.006 A 
ATOM     20  C   UNL     1      -2.682  -6.692  -3.974  0.00  0.00    +0.000 A 
ATOM     21  C   UNL     1      -3.567  -7.730  -3.748  0.00  0.00    +0.001 A 
ATOM     22  C   UNL     1      -3.268  -8.702  -2.812  0.00  0.00    +0.020 A 
ATOM     23  C   UNL     1      -2.080  -8.639  -2.105  0.00  0.00    +0.045 A 
ATOM     24 CL   UNL     1      -1.700  -9.863  -0.933  0.00  0.00    -0.083 Cl
ENDBRANCH   1  18
BRANCH   1  25
ATOM     25  C   UNL     1       1.266  -7.394  -2.528  0.00  0.00    +0.135 C 
ATOM     26  C   UNL     1       2.582  -7.372  -1.780  0.00  0.00    +0.047 C 
ATOM     27  N   UNL     1       3.254  -8.384  -2.169  0.00  0.00    -0.181 NA
ATOM     28  N   UNL     1       2.587  -9.152  -3.119  0.00  0.00    -0.160 N 
ATOM     29  C   UNL     1       1.371  -8.629  -3.403  0.00  0.00    +0.249 C 
ATOM     30  O   UNL     1       0.546  -9.053  -4.185  0.00  0.00    -0.273 OA
ATOM     31  C   UNL     1       3.016  -6.346  -0.765  0.00  0.00    +0.063 C 
BRANCH  28  32
ATOM     32  C   UNL     1       3.105 -10.312  -3.705  0.00  0.00    +0.060 A 
ATOM     33  C   UNL     1       2.362 -11.006  -4.651  0.00  0.00    +0.026 A 
ATOM     34  C   UNL     1       2.876 -12.151  -5.228  0.00  0.00    +0.005 A 
ATOM     35  C   UNL     1       4.130 -12.606  -4.864  0.00  0.00    -0.047 A 
ATOM     36  C   UNL     1       4.873 -11.918  -3.923  0.00  0.00    -0.046 A 
ATOM     37  C   UNL     1       4.367 -10.769  -3.347  0.00  0.00    +0.029 A 
ATOM     38  C   UNL     1       6.239 -12.418  -3.529  0.00  0.00    +0.044 C 
ATOM     39  C   UNL     1       4.689 -13.856  -5.494  0.00  0.00    +0.044 C 
ENDBRANCH  28  32
ENDBRANCH   1  25
TORSDOF 5
