REMARK  Name = ZINC01362119
REMARK  13 active torsions:
REMARK  status: ('A' for Active; 'I' for Inactive)
REMARK    1  A    between atoms: C_1  and  C_2
REMARK    2  A    between atoms: C_12  and  C_14
REMARK    3  A    between atoms: C_14  and  C_16
REMARK    4  A    between atoms: C_14  and  N_25
REMARK    5  A    between atoms: N_20  and  C_21
REMARK    6  A    between atoms: C_21  and  C_22
REMARK    7  A    between atoms: C_21  and  C_23
REMARK    8  A    between atoms: C_21  and  C_24
REMARK    9  A    between atoms: N_25  and  C_26
REMARK   10  A    between atoms: N_25  and  C_35
REMARK   11  A    between atoms: C_26  and  C_27
REMARK   12  A    between atoms: C_27  and  C_28
REMARK   13  A    between atoms: C_35  and  C_36
REMARK                            x       y       z     vdW  Elec       q    Type
REMARK                         _______ _______ _______ _____ _____    ______ ____
ROOT
ATOM      1  C   UNL     1       0.491  -2.595   5.126  0.00  0.00    +0.163 C 
ENDROOT
BRANCH   1  13
ATOM      2  C   UNL     1       0.418   1.543   0.020  0.00  0.00    +0.046 C 
ATOM      3  C   UNL     1       0.454   0.038   0.080  0.00  0.00    -0.026 A 
ATOM      4  C   UNL     1       0.473  -0.701  -1.083  0.00  0.00    +0.005 A 
ATOM      5  C   UNL     1       0.512  -2.088  -1.041  0.00  0.00    +0.001 A 
ATOM      6  C   UNL     1       0.522  -2.747   0.156  0.00  0.00    +0.010 A 
ATOM      7  C   UNL     1       0.497  -2.018   1.349  0.00  0.00    -0.001 A 
ATOM      8  C   UNL     1       0.464  -0.611   1.310  0.00  0.00    +0.052 A 
ATOM      9  N   UNL     1       0.441   0.103   2.490  0.00  0.00    -0.322 N 
ATOM     10  H   UNL     1       0.415   1.202   2.466  0.00  0.00    +0.169 HD
ATOM     11  C   UNL     1       0.449  -0.525   3.678  0.00  0.00    +0.254 A 
ATOM     12  O   UNL     1       0.428   0.138   4.701  0.00  0.00    -0.268 OA
ATOM     13  C   UNL     1       0.482  -1.933   3.772  0.00  0.00    +0.042 A 
ATOM     14  C   UNL     1       0.507  -2.692   2.649  0.00  0.00    +0.021 A 
ENDBRANCH   1  13
BRANCH   1  15
ATOM     15  C   UNL     1      -0.808  -2.308   5.834  0.00  0.00    +0.174 A 
ATOM     16  N   UNL     1      -1.172  -1.168   6.369  0.00  0.00    -0.111 NA
ATOM     17  N   UNL     1      -2.347  -1.322   6.875  0.00  0.00    -0.023 NA
ATOM     18  N   UNL     1      -2.738  -2.534   6.684  0.00  0.00    -0.043 NA
ATOM     19  N   UNL     1      -1.817  -3.173   6.045  0.00  0.00    -0.222 N 
BRANCH  19  20
ATOM     20  C   UNL     1      -1.861  -4.577   5.628  0.00  0.00    +0.059 C 
ATOM     21  C   UNL     1      -0.756  -5.356   6.343  0.00  0.00    +0.036 C 
ATOM     22  C   UNL     1      -3.223  -5.174   5.990  0.00  0.00    +0.036 C 
ATOM     23  C   UNL     1      -1.651  -4.666   4.115  0.00  0.00    +0.036 C 
ENDBRANCH  19  20
ENDBRANCH   1  15
BRANCH   1  24
ATOM     24  N   UNL     1       1.609  -2.070   5.921  0.00  0.00    -0.281 NA
BRANCH  24  25
ATOM     25  C   UNL     1       1.768  -2.827   7.170  0.00  0.00    +0.090 C 
BRANCH  25  26
ATOM     26  C   UNL     1       0.704  -2.383   8.175  0.00  0.00    +0.050 C 
BRANCH  26  27
ATOM     27  C   UNL     1       0.936  -3.076   9.492  0.00  0.00    -0.046 A 
ATOM     28  C   UNL     1       0.331  -4.293   9.748  0.00  0.00    +0.006 A 
ATOM     29  C   UNL     1       0.547  -4.932  10.954  0.00  0.00    +0.038 A 
ATOM     30  C   UNL     1       1.361  -4.349  11.910  0.00  0.00    +0.123 A 
ATOM     31  C   UNL     1       1.962  -3.128  11.655  0.00  0.00    +0.038 A 
ATOM     32  C   UNL     1       1.749  -2.493  10.446  0.00  0.00    +0.006 A 
ATOM     33  F   UNL     1       1.569  -4.971  13.091  0.00  0.00    -0.205 F 
ENDBRANCH  26  27
ENDBRANCH  25  26
ENDBRANCH  24  25
BRANCH  24  34
ATOM     34  C   UNL     1       2.855  -2.071   5.142  0.00  0.00    +0.159 C 
BRANCH  34  35
ATOM     35  C   UNL     1       3.873  -1.194   5.823  0.00  0.00    +0.119 A 
ATOM     36  C   UNL     1       4.830  -1.611   6.671  0.00  0.00    +0.046 A 
ATOM     37  C   UNL     1       5.555  -0.464   7.068  0.00  0.00    +0.041 A 
ATOM     38  C   UNL     1       4.997   0.586   6.439  0.00  0.00    +0.195 A 
ATOM     39  O   UNL     1       3.983   0.138   5.682  0.00  0.00    -0.467 OA
ENDBRANCH  34  35
ENDBRANCH  24  34
ENDBRANCH   1  24
TORSDOF 9
