REMARK  Name = ZINC35405100
REMARK  7 active torsions:
REMARK  status: ('A' for Active; 'I' for Inactive)
REMARK    1  A    between atoms: C_4  and  C_7
REMARK    2  A    between atoms: C_7  and  N_8
REMARK    3  A    between atoms: C_9  and  C_23
REMARK    4  A    between atoms: N_13  and  C_16
REMARK    5  A    between atoms: C_16  and  C_17
REMARK    6  A    between atoms: C_23  and  C_24
REMARK    7  A    between atoms: N_26  and  C_27
REMARK                            x       y       z     vdW  Elec       q    Type
REMARK                         _______ _______ _______ _____ _____    ______ ____
ROOT
ATOM      1  N   UNL     1       4.326  -1.334   1.599  0.00  0.00    -0.296 N 
ATOM      2  C   UNL     1       5.314  -0.600   2.409  0.00  0.00    +0.171 C 
ATOM      3  C   UNL     1       5.753  -1.617   3.443  0.00  0.00    +0.242 C 
ATOM      4  O   UNL     1       6.564  -1.457   4.330  0.00  0.00    -0.273 OA
ATOM      5  N   UNL     1       5.054  -2.737   3.172  0.00  0.00    -0.247 N 
ATOM      6  C   UNL     1       4.239  -2.569   2.125  0.00  0.00    +0.143 C 
ATOM      7  S   UNL     1       3.204  -3.791   1.518  0.00  0.00    -0.018 S 
ENDROOT
BRANCH   1   8
ATOM      8  C   UNL     1       3.578  -0.817   0.450  0.00  0.00    +0.142 C 
BRANCH   8  12
ATOM      9  C   UNL     1       0.106   1.257   1.824  0.00  0.00    +0.000 A 
ATOM     10  C   UNL     1       1.296   1.940   1.653  0.00  0.00    +0.000 A 
ATOM     11  C   UNL     1       2.419   1.268   1.208  0.00  0.00    +0.005 A 
ATOM     12  C   UNL     1       2.353  -0.085   0.936  0.00  0.00    -0.030 A 
ATOM     13  C   UNL     1       1.164  -0.768   1.109  0.00  0.00    +0.005 A 
ATOM     14  C   UNL     1       0.040  -0.096   1.552  0.00  0.00    +0.000 A 
ENDBRANCH   8  12
ENDBRANCH   1   8
BRANCH   5  15
ATOM     15  C   UNL     1       5.169  -3.983   3.934  0.00  0.00    +0.150 C 
BRANCH  15  16
ATOM     16  C   UNL     1       4.173  -3.974   5.065  0.00  0.00    -0.030 A 
ATOM     17  C   UNL     1       4.529  -3.454   6.295  0.00  0.00    +0.005 A 
ATOM     18  C   UNL     1       3.616  -3.446   7.333  0.00  0.00    +0.000 A 
ATOM     19  C   UNL     1       2.346  -3.958   7.140  0.00  0.00    +0.000 A 
ATOM     20  C   UNL     1       1.990  -4.477   5.910  0.00  0.00    +0.000 A 
ATOM     21  C   UNL     1       2.902  -4.481   4.871  0.00  0.00    +0.005 A 
ENDBRANCH  15  16
ENDBRANCH   5  15
BRANCH   2  22
ATOM     22  C   UNL     1       6.498  -0.161   1.544  0.00  0.00    +0.128 C 
BRANCH  22  23
ATOM     23  C   UNL     1       7.428   0.695   2.365  0.00  0.00    +0.219 C 
ATOM     24  O   UNL     1       7.123   1.011   3.495  0.00  0.00    -0.275 OA
ATOM     25  N   UNL     1       8.600   1.109   1.842  0.00  0.00    -0.285 N 
ATOM     26  H   UNL     1       8.878   0.796   0.967  0.00  0.00    +0.155 HD
BRANCH  25  27
ATOM     27  C   UNL     1       9.414   1.991   2.561  0.00  0.00    +0.033 A 
ATOM     28  C   UNL     1      10.796   1.919   2.438  0.00  0.00    +0.024 A 
ATOM     29  C   UNL     1      11.597   2.791   3.149  0.00  0.00    +0.017 A 
ATOM     30  C   UNL     1      11.024   3.736   3.982  0.00  0.00    +0.018 A 
ATOM     31  C   UNL     1       9.648   3.809   4.106  0.00  0.00    +0.017 A 
ATOM     32  C   UNL     1       8.842   2.943   3.394  0.00  0.00    +0.024 A 
ATOM     33 BR   UNL     1      12.125   4.928   4.954  0.00  0.00    -0.050 Br
ENDBRANCH  25  27
ENDBRANCH  22  23
ENDBRANCH   2  22
TORSDOF 7
