REMARK  Name = ZINC36011662
REMARK  11 active torsions:
REMARK  status: ('A' for Active; 'I' for Inactive)
REMARK    1  A    between atoms: C_1  and  C_2
REMARK    2  A    between atoms: C_5  and  C_9
REMARK    3  A    between atoms: C_7  and  C_8
REMARK    4  A    between atoms: C_12  and  C_36
REMARK    5  A    between atoms: C_17  and  C_19
REMARK    6  A    between atoms: N_21  and  N_22
REMARK    7  A    between atoms: N_22  and  C_23
REMARK    8  A    between atoms: C_23  and  N_25
REMARK    9  A    between atoms: N_25  and  C_26
REMARK   10  A    between atoms: C_26  and  C_28
REMARK   11  A    between atoms: C_26  and  C_29
REMARK                            x       y       z     vdW  Elec       q    Type
REMARK                         _______ _______ _______ _____ _____    ______ ____
ROOT
ATOM      1  C   UNL     1       0.059  -4.275  -0.021  0.00  0.00    +0.104 C 
ATOM      2  C   UNL     1      -1.355  -4.807  -0.277  0.00  0.00    +0.063 C 
ATOM      3  C   UNL     1      -1.898  -4.236  -1.591  0.00  0.00    +0.215 C 
ATOM      4  N   UNL     1      -0.899  -4.437  -2.644  0.00  0.00    -0.238 N 
ATOM      5  C   UNL     1       0.423  -4.680  -2.398  0.00  0.00    +0.119 A 
ATOM      6  C   UNL     1       1.052  -4.818  -3.582  0.00  0.00    +0.078 A 
ATOM      7  C   UNL     1       0.086  -4.652  -4.601  0.00  0.00    +0.150 A 
ATOM      8  N   UNL     1      -1.082  -4.423  -4.027  0.00  0.00    -0.164 NA
ATOM      9  N   UNL     1       0.947  -4.754  -1.100  0.00  0.00    -0.322 N 
ATOM     10  H   UNL     1       1.835  -5.099  -0.919  0.00  0.00    +0.148 HD
ENDROOT
BRANCH   1  15
ATOM     11  C   UNL     1      -0.018   1.503   0.010  0.00  0.00    +0.044 C 
ATOM     12  C   UNL     1       0.002  -0.004   0.002  0.00  0.00    -0.048 A 
ATOM     13  C   UNL     1       0.006  -0.689  -1.199  0.00  0.00    +0.004 A 
ATOM     14  C   UNL     1       0.025  -2.071  -1.207  0.00  0.00    +0.006 A 
ATOM     15  C   UNL     1       0.040  -2.768  -0.013  0.00  0.00    -0.027 A 
ATOM     16  C   UNL     1       0.037  -2.084   1.188  0.00  0.00    +0.009 A 
ATOM     17  C   UNL     1       0.023  -0.702   1.195  0.00  0.00    -0.047 A 
ATOM     18  C   UNL     1       0.025   0.045   2.504  0.00  0.00    +0.044 C 
ENDBRANCH   1  15
BRANCH   7  19
ATOM     19  C   UNL     1       0.339  -4.721  -6.054  0.00  0.00    +0.280 C 
ATOM     20  O   UNL     1       1.462  -4.938  -6.467  0.00  0.00    -0.267 OA
ATOM     21  N   UNL     1      -0.676  -4.544  -6.924  0.00  0.00    -0.230 N 
ATOM     22  H   UNL     1      -1.572  -4.371  -6.595  0.00  0.00    +0.173 HD
BRANCH  21  23
ATOM     23  N   UNL     1      -0.436  -4.609  -8.303  0.00  0.00    -0.246 N 
ATOM     24  H   UNL     1       0.460  -4.782  -8.632  0.00  0.00    +0.172 HD
BRANCH  23  25
ATOM     25  C   UNL     1      -1.451  -4.432  -9.172  0.00  0.00    +0.147 C 
ATOM     26  S   UNL     1      -1.158  -4.512 -10.857  0.00  0.00    -0.017 S 
BRANCH  25  27
ATOM     27  N   UNL     1      -2.696  -4.192  -8.715  0.00  0.00    -0.319 N 
ATOM     28  H   UNL     1      -2.862  -4.146  -7.760  0.00  0.00    +0.148 HD
BRANCH  27  29
ATOM     29  C   UNL     1      -3.798  -3.999  -9.660  0.00  0.00    +0.099 C 
ATOM     30  C   UNL     1      -4.368  -5.361 -10.064  0.00  0.00    +0.033 C 
BRANCH  29  31
ATOM     31  C   UNL     1      -4.880  -3.176  -9.009  0.00  0.00    -0.028 A 
ATOM     32  C   UNL     1      -5.206  -3.388  -7.683  0.00  0.00    +0.005 A 
ATOM     33  C   UNL     1      -6.198  -2.633  -7.086  0.00  0.00    +0.000 A 
ATOM     34  C   UNL     1      -6.863  -1.665  -7.815  0.00  0.00    +0.000 A 
ATOM     35  C   UNL     1      -6.536  -1.452  -9.141  0.00  0.00    +0.000 A 
ATOM     36  C   UNL     1      -5.541  -2.204  -9.737  0.00  0.00    +0.005 A 
ENDBRANCH  29  31
ENDBRANCH  27  29
ENDBRANCH  25  27
ENDBRANCH  23  25
ENDBRANCH  21  23
ENDBRANCH   7  19
BRANCH   3  37
ATOM     37  C   UNL     1      -3.194  -4.958  -1.967  0.00  0.00    +0.412 C 
ATOM     38  F   UNL     1      -4.141  -4.774  -0.954  0.00  0.00    -0.168 F 
ATOM     39  F   UNL     1      -3.688  -4.436  -3.167  0.00  0.00    -0.168 F 
ATOM     40  F   UNL     1      -2.938  -6.324  -2.123  0.00  0.00    -0.168 F 
ENDBRANCH   3  37
TORSDOF 8
