REMARK  Name = ZINC64985519
REMARK  11 active torsions:
REMARK  status: ('A' for Active; 'I' for Inactive)
REMARK    1  A    between atoms: C_1  and  C_2
REMARK    2  A    between atoms: C_2  and  O_3
REMARK    3  A    between atoms: O_3  and  C_4
REMARK    4  A    between atoms: C_9  and  N_10
REMARK    5  A    between atoms: C_11  and  C_13
REMARK    6  A    between atoms: N_16  and  S_28
REMARK    7  A    between atoms: C_19  and  C_24
REMARK    8  A    between atoms: C_24  and  C_25
REMARK    9  A    between atoms: C_24  and  C_26
REMARK   10  A    between atoms: C_24  and  C_27
REMARK   11  A    between atoms: S_28  and  C_31
REMARK                            x       y       z     vdW  Elec       q    Type
REMARK                         _______ _______ _______ _____ _____    ______ ____
ROOT
ATOM      1  C   UNL     1       3.553  -0.969  -5.432  0.00  0.00    +0.278 C 
ATOM      2  C   UNL     1       2.402  -0.175  -6.066  0.00  0.00    +0.186 C 
ATOM      3  N   UNL     1       2.966   0.621  -7.170  0.00  0.00    -0.195 N 
ATOM      4  C   UNL     1       3.912   0.003  -8.004  0.00  0.00    +0.093 A 
ATOM      5  C   UNL     1       4.260   0.588  -9.211  0.00  0.00    +0.032 A 
ATOM      6  C   UNL     1       5.195  -0.022 -10.027  0.00  0.00    -0.040 A 
ATOM      7  C   UNL     1       5.780  -1.214  -9.640  0.00  0.00    +0.008 A 
ATOM      8  C   UNL     1       5.434  -1.802  -8.437  0.00  0.00    +0.048 A 
ATOM      9  C   UNL     1       4.497  -1.198  -7.613  0.00  0.00    +0.144 A 
ATOM     10  O   UNL     1       4.160  -1.787  -6.435  0.00  0.00    -0.476 OA
ENDROOT
BRANCH   1  12
ATOM     11  N   UNL     1       2.484  -1.278  -3.223  0.00  0.00    -0.279 N 
ATOM     12  C   UNL     1       3.016  -1.840  -4.326  0.00  0.00    +0.260 C 
ATOM     13  O   UNL     1       3.063  -3.048  -4.428  0.00  0.00    -0.271 OA
ATOM     14  H   UNL     1       2.373  -0.315  -3.175  0.00  0.00    +0.155 HD
BRANCH  11  20
ATOM     15  C   UNL     1       1.195  -1.593  -1.198  0.00  0.00    +0.142 A 
ATOM     16  C   UNL     1       0.805  -2.396  -0.138  0.00  0.00    +0.047 A 
ATOM     17  C   UNL     1       1.310  -3.678  -0.019  0.00  0.00    +0.004 A 
ATOM     18  C   UNL     1       2.203  -4.163  -0.957  0.00  0.00    +0.002 A 
ATOM     19  C   UNL     1       2.596  -3.369  -2.017  0.00  0.00    +0.027 A 
ATOM     20  C   UNL     1       2.091  -2.083  -2.146  0.00  0.00    +0.076 A 
BRANCH  15  21
ATOM     21  O   UNL     1       0.700  -0.333  -1.316  0.00  0.00    -0.490 OA
BRANCH  21  23
ATOM     22  C   UNL     1      -0.660   1.535  -0.606  0.00  0.00    +0.048 C 
ATOM     23  C   UNL     1      -0.214   0.102  -0.307  0.00  0.00    +0.226 C 
ENDBRANCH  21  23
ENDBRANCH  15  21
ENDBRANCH  11  20
ENDBRANCH   1  12
BRANCH   6  24
ATOM     24  C   UNL     1       5.575   0.611 -11.340  0.00  0.00    -0.013 C 
ATOM     25  C   UNL     1       6.160   2.002 -11.085  0.00  0.00    +0.015 C 
ATOM     26  C   UNL     1       6.619  -0.259 -12.043  0.00  0.00    +0.015 C 
ATOM     27  C   UNL     1       4.334   0.735 -12.226  0.00  0.00    +0.015 C 
ENDBRANCH   6  24
BRANCH   3  28
ATOM     28  S   UNL     1       2.500   2.190  -7.419  0.00  0.00    +0.075 S 
ATOM     29  O   UNL     1       1.934   2.644  -6.197  0.00  0.00    -0.150 OA
ATOM     30  O   UNL     1       3.597   2.846  -8.040  0.00  0.00    -0.150 OA
BRANCH  28  31
ATOM     31  C   UNL     1       1.194   2.165  -8.601  0.00  0.00    +0.109 A 
ATOM     32  C   UNL     1       1.481   2.246  -9.950  0.00  0.00    +0.029 A 
ATOM     33  C   UNL     1       0.456   2.226 -10.878  0.00  0.00    +0.002 A 
ATOM     34  C   UNL     1      -0.857   2.124 -10.455  0.00  0.00    +0.000 A 
ATOM     35  C   UNL     1      -1.144   2.042  -9.105  0.00  0.00    +0.002 A 
ATOM     36  C   UNL     1      -0.118   2.058  -8.178  0.00  0.00    +0.029 A 
ENDBRANCH  28  31
ENDBRANCH   3  28
TORSDOF 7
