REMARK  Name = ZINC04955971
REMARK  5 active torsions:
REMARK  status: ('A' for Active; 'I' for Inactive)
REMARK    1  A    between atoms: C_1  and  C_2
REMARK    2  A    between atoms: C_2  and  C_3
REMARK    3  A    between atoms: C_10  and  N_23
REMARK    4  A    between atoms: C_11  and  C_21
REMARK    5  A    between atoms: C_12  and  C_14
REMARK                            x       y       z     vdW  Elec       q    Type
REMARK                         _______ _______ _______ _____ _____    ______ ____
ROOT
ATOM      1  C   UNL     1      -1.056  -0.175   0.157  0.00  0.00    +0.070 A 
ATOM      2  C   UNL     1      -1.917  -0.716   1.103  0.00  0.00    +0.046 A 
ATOM      3  C   UNL     1      -3.062  -1.101   0.462  0.00  0.00    +0.222 A 
ATOM      4  N   UNL     1      -2.916  -0.811  -0.841  0.00  0.00    -0.246 N 
ATOM      5  H   UNL     1      -3.569  -0.974  -1.539  0.00  0.00    +0.192 HD
ATOM      6  N   UNL     1      -1.652  -0.224  -1.011  0.00  0.00    -0.176 NA
ATOM      7  O   UNL     1      -4.109  -1.667   1.111  0.00  0.00    -0.423 OA
ATOM      8  C   UNL     1      -4.120  -1.599   2.458  0.00  0.00    +0.200 C 
ATOM      9  C   UNL     1      -3.049  -1.244   3.202  0.00  0.00    +0.094 C 
ATOM     10  C   UNL     1      -1.718  -0.889   2.586  0.00  0.00    +0.078 C 
ENDROOT
BRANCH  10  11
ATOM     11  C   UNL     1      -0.714  -2.014   2.844  0.00  0.00    +0.024 C 
ATOM     12  C   UNL     1      -0.382  -2.065   4.337  0.00  0.00    +0.009 C 
ATOM     13  C   UNL     1       0.413  -3.348   4.613  0.00  0.00    +0.005 C 
ATOM     14  C   UNL     1      -0.511  -4.547   4.393  0.00  0.00    +0.027 C 
ATOM     15  C   UNL     1      -1.213  -4.423   3.072  0.00  0.00    -0.031 C 
ATOM     16  C   UNL     1      -1.306  -3.321   2.404  0.00  0.00    -0.027 C 
ENDBRANCH  10  11
BRANCH   8  17
ATOM     17  N   UNL     1      -5.287  -1.908   3.112  0.00  0.00    -0.328 N 
ATOM     18  H   UNL     1      -6.072  -2.167   2.606  0.00  0.00    +0.145 HD
ATOM     19  H   UNL     1      -5.325  -1.868   4.081  0.00  0.00    +0.145 HD
ENDBRANCH   8  17
BRANCH   1  21
ATOM     20  C   UNL     1       0.232   1.891   0.624  0.00  0.00    +0.010 C 
ATOM     21  C   UNL     1       0.320   0.377   0.426  0.00  0.00    +0.054 C 
ENDBRANCH   1  21
BRANCH   9  22
ATOM     22  C   UNL     1      -3.181  -1.203   4.627  0.00  0.00    +0.100 C 
ATOM     23  N   UNL     1      -3.287  -1.171   5.758  0.00  0.00    -0.191 NA
ENDBRANCH   9  22
TORSDOF 4
