REMARK  Name = ZINC19892413
REMARK  13 active torsions:
REMARK  status: ('A' for Active; 'I' for Inactive)
REMARK    1  A    between atoms: C_1  and  C_2
REMARK    2  A    between atoms: C_2  and  C_3
REMARK    3  A    between atoms: C_3  and  C_5
REMARK    4  A    between atoms: C_3  and  O_6
REMARK    5  A    between atoms: O_6  and  C_7
REMARK    6  A    between atoms: C_7  and  C_9
REMARK    7  A    between atoms: C_10  and  C_39
REMARK    8  A    between atoms: C_14  and  C_16
REMARK    9  A    between atoms: C_26  and  C_29
REMARK   10  A    between atoms: C_32  and  O_37
REMARK   11  A    between atoms: C_33  and  O_35
REMARK   12  A    between atoms: O_35  and  C_36
REMARK   13  A    between atoms: O_37  and  C_38
REMARK                            x       y       z     vdW  Elec       q    Type
REMARK                         _______ _______ _______ _____ _____    ______ ____
ROOT
ATOM      1  C   UNL     1      -0.183   4.274   0.313  0.00  0.00    +0.065 C 
ATOM      2  C   UNL     1      -1.312   3.544   0.328  0.00  0.00    +0.016 C 
ATOM      3  N   UNL     1      -1.274   2.205   0.057  0.00  0.00    -0.321 N 
ATOM      4  C   UNL     1      -0.102   1.505   0.154  0.00  0.00    +0.016 C 
ATOM      5  C   UNL     1       1.084   2.150   0.131  0.00  0.00    +0.024 C 
ATOM      6  C   UNL     1       1.143   3.650  -0.010  0.00  0.00    +0.092 C 
ATOM      7  C   UNL     1       2.296   1.443   0.235  0.00  0.00    +0.162 C 
ATOM      8  O   UNL     1       3.345   2.055   0.231  0.00  0.00    -0.292 OA
ATOM      9  C   UNL     1       2.315  -0.056   0.351  0.00  0.00    +0.088 C 
ATOM     10  C   UNL     1       1.073  -0.626  -0.342  0.00  0.00    +0.032 C 
ATOM     11  C   UNL     1      -0.169   0.004   0.292  0.00  0.00    +0.059 C 
ATOM     12  C   UNL     1      -2.627   4.206   0.649  0.00  0.00    +0.061 C 
ATOM     13  H   UNL     1      -2.193   1.679  -0.243  0.00  0.00    +0.152 HD
ENDROOT
BRANCH   6  14
ATOM     14  C   UNL     1       1.522   3.998  -1.427  0.00  0.00    -0.035 A 
ATOM     15  C   UNL     1       0.724   3.585  -2.477  0.00  0.00    +0.007 A 
ATOM     16  C   UNL     1       1.067   3.909  -3.776  0.00  0.00    +0.038 A 
ATOM     17  C   UNL     1       2.218   4.638  -4.026  0.00  0.00    +0.123 A 
ATOM     18  C   UNL     1       3.019   5.046  -2.973  0.00  0.00    +0.038 A 
ATOM     19  C   UNL     1       2.671   4.726  -1.675  0.00  0.00    +0.007 A 
ATOM     20  F   UNL     1       2.557   4.950  -5.295  0.00  0.00    -0.205 F 
ENDBRANCH   6  14
BRANCH  10  21
ATOM     21  C   UNL     1       1.029  -2.122  -0.164  0.00  0.00    -0.040 A 
ATOM     22  C   UNL     1       0.994  -2.664   1.108  0.00  0.00    +0.008 A 
ATOM     23  C   UNL     1       0.953  -4.035   1.277  0.00  0.00    +0.049 A 
ATOM     24  C   UNL     1       0.948  -4.870   0.171  0.00  0.00    +0.161 A 
ATOM     25  C   UNL     1       0.983  -4.324  -1.109  0.00  0.00    +0.162 A 
ATOM     26  C   UNL     1       1.019  -2.949  -1.271  0.00  0.00    +0.053 A 
BRANCH  25  27
ATOM     27  O   UNL     1       0.978  -5.139  -2.197  0.00  0.00    -0.491 OA
ATOM     28  C   UNL     1       1.016  -4.510  -3.479  0.00  0.00    +0.277 C 
ENDBRANCH  25  27
BRANCH  24  29
ATOM     29  O   UNL     1       0.909  -6.219   0.336  0.00  0.00    -0.491 OA
ATOM     30  C   UNL     1       0.875  -6.708   1.678  0.00  0.00    +0.277 C 
ENDBRANCH  24  29
ENDBRANCH  10  21
BRANCH   1  31
ATOM     31  C   UNL     1      -0.246   5.656   0.607  0.00  0.00    +0.338 C 
ATOM     32  O   UNL     1       0.153   6.069   1.679  0.00  0.00    -0.245 OA
BRANCH  31  33
ATOM     33  O   UNL     1      -0.749   6.516  -0.303  0.00  0.00    -0.458 OA
BRANCH  33  34
ATOM     34  C   UNL     1      -0.782   7.898   0.060  0.00  0.00    +0.173 C 
ATOM     35  C   UNL     1      -2.112   8.212   0.749  0.00  0.00    +0.052 C 
BRANCH  34  37
ATOM     36  C   UNL     1       0.738   8.537  -1.817  0.00  0.00    +0.007 C 
ATOM     37  C   UNL     1      -0.643   8.759  -1.196  0.00  0.00    +0.041 C 
ENDBRANCH  34  37
ENDBRANCH  33  34
ENDBRANCH  31  33
ENDBRANCH   1  31
TORSDOF 8
