REMARK  Name = ZINC08709059
REMARK  8 active torsions:
REMARK  status: ('A' for Active; 'I' for Inactive)
REMARK    1  A    between atoms: C_4  and  C_7
REMARK    2  A    between atoms: C_8  and  S_9
REMARK    3  A    between atoms: S_9  and  N_12
REMARK    4  A    between atoms: C_18  and  C_20
REMARK    5  A    between atoms: C_20  and  N_59
REMARK    6  A    between atoms: C_21  and  C_23
REMARK    7  A    between atoms: C_21  and  C_29
REMARK    8  A    between atoms: C_21  and  N_59
REMARK                            x       y       z     vdW  Elec       q    Type
REMARK                         _______ _______ _______ _____ _____    ______ ____
ROOT
ATOM      1  N   UNL     1      -0.137  -0.282  -4.686  0.00  0.00    -0.174 NA
ATOM      2  C   UNL     1      -1.341   0.545  -4.521  0.00  0.00    +0.128 C 
ATOM      3  C   UNL     1      -0.989   1.752  -3.643  0.00  0.00    +0.125 C 
ATOM      4  N   UNL     1      -0.288   1.272  -2.443  0.00  0.00    -0.300 N 
ATOM      5  C   UNL     1       0.919   0.451  -2.609  0.00  0.00    +0.125 C 
ATOM      6  C   UNL     1       0.564  -0.761  -3.487  0.00  0.00    +0.128 C 
ATOM      7  C   UNL     1      -0.742   1.585  -1.213  0.00  0.00    +0.199 C 
ATOM      8  O   UNL     1      -1.736   2.268  -1.088  0.00  0.00    -0.278 OA
ENDROOT
BRANCH   1   9
ATOM      9  S   UNL     1       0.420  -0.665  -6.198  0.00  0.00    +0.054 S 
ATOM     10  O   UNL     1       1.183  -1.856  -6.060  0.00  0.00    -0.153 OA
ATOM     11  O   UNL     1      -0.692  -0.570  -7.077  0.00  0.00    -0.153 OA
BRANCH   9  13
ATOM     12  C   UNL     1       2.831   0.316  -6.851  0.00  0.00    +0.028 C 
ATOM     13  C   UNL     1       1.548   0.602  -6.674  0.00  0.00    +0.153 C 
BRANCH  12  17
ATOM     14  C   UNL     1       5.550   3.370  -7.999  0.00  0.00    +0.000 A 
ATOM     15  C   UNL     1       6.005   2.078  -7.811  0.00  0.00    +0.001 A 
ATOM     16  C   UNL     1       5.127   1.081  -7.438  0.00  0.00    +0.008 A 
ATOM     17  C   UNL     1       3.777   1.379  -7.251  0.00  0.00    -0.024 A 
ATOM     18  C   UNL     1       3.323   2.683  -7.448  0.00  0.00    +0.008 A 
ATOM     19  C   UNL     1       4.212   3.672  -7.815  0.00  0.00    +0.001 A 
ENDBRANCH  12  17
ENDBRANCH   9  13
ENDBRANCH   1   9
BRANCH   7  20
ATOM     20  C   UNL     1      -0.013   1.086   0.008  0.00  0.00    +0.016 C 
BRANCH  20  21
ATOM     21  N   UNL     1      -0.709   1.566   1.217  0.00  0.00    +0.392 N 
ATOM     22  H   UNL     1      -1.672   1.210   1.216  0.00  0.00    -0.084 HD
ATOM     23  H   UNL     1      -0.723   2.592   1.214  0.00  0.00    -0.084 HD
BRANCH  21  24
ATOM     24  C   UNL     1      -0.016   1.091   2.429  0.00  0.00    -0.003 C 
BRANCH  24  25
ATOM     25  C   UNL     1      -0.318   2.028   3.570  0.00  0.00    -0.057 A 
ATOM     26  C   UNL     1      -1.589   2.552   3.717  0.00  0.00    +0.002 A 
ATOM     27  C   UNL     1      -1.867   3.408   4.766  0.00  0.00    +0.000 A 
ATOM     28  C   UNL     1      -0.872   3.748   5.663  0.00  0.00    +0.000 A 
ATOM     29  C   UNL     1       0.401   3.229   5.513  0.00  0.00    +0.000 A 
ATOM     30  C   UNL     1       0.677   2.369   4.467  0.00  0.00    +0.002 A 
ENDBRANCH  24  25
BRANCH  24  31
ATOM     31  C   UNL     1      -0.499  -0.294   2.776  0.00  0.00    -0.020 A 
ATOM     32  C   UNL     1       0.209  -1.357   3.226  0.00  0.00    +0.010 A 
ATOM     33  C   UNL     1      -0.452  -2.543   3.484  0.00  0.00    +0.008 A 
ATOM     34  C   UNL     1      -1.789  -2.611   3.269  0.00  0.00    +0.045 A 
ATOM     35  S   UNL     1      -2.153  -0.961   2.691  0.00  0.00    -0.103 S 
ENDBRANCH  24  31
ENDBRANCH  21  24
ENDBRANCH  20  21
ENDBRANCH   7  20
TORSDOF 8
