REMARK  Name = ZINC40270405
REMARK  2 active torsions:
REMARK  status: ('A' for Active; 'I' for Inactive)
REMARK    1  A    between atoms: C_3  and  C_6
REMARK    2  A    between atoms: C_6  and  C_8
REMARK                            x       y       z     vdW  Elec       q    Type
REMARK                         _______ _______ _______ _____ _____    ______ ____
ROOT
ATOM      1  C   UNL     1       4.074   0.020  -1.325  0.00  0.00    -0.020 A 
ATOM      2  C   UNL     1       3.787  -1.304  -1.614  0.00  0.00    +0.007 A 
ATOM      3  C   UNL     1       4.219  -1.867  -2.799  0.00  0.00    +0.028 A 
ATOM      4  C   UNL     1       4.943  -1.104  -3.702  0.00  0.00    +0.067 A 
ATOM      5  C   UNL     1       5.232   0.230  -3.411  0.00  0.00    +0.067 A 
ATOM      6  C   UNL     1       4.790   0.789  -2.221  0.00  0.00    +0.033 A 
ATOM      7  N   UNL     1       5.959   0.729  -4.489  0.00  0.00    -0.306 N 
ATOM      8  H   UNL     1       6.302   1.633  -4.573  0.00  0.00    +0.170 HD
ATOM      9  C   UNL     1       6.105  -0.256  -5.395  0.00  0.00    +0.325 A 
ATOM     10  O   UNL     1       6.692  -0.152  -6.456  0.00  0.00    -0.247 OA
ATOM     11  N   UNL     1       5.503  -1.375  -4.949  0.00  0.00    -0.306 N 
ATOM     12  H   UNL     1       5.465  -2.224  -5.416  0.00  0.00    +0.170 HD
ENDROOT
BRANCH   1  13
ATOM     13  C   UNL     1       3.599   0.625  -0.029  0.00  0.00    +0.176 C 
ATOM     14 CL   UNL     1       4.191  -0.371   1.352  0.00  0.00    -0.108 Cl
BRANCH  13  17
ATOM     15  C   UNL     1      -0.016   1.341   0.009  0.00  0.00    +0.041 A 
ATOM     16  C   UNL     1       1.331   1.769  -0.001  0.00  0.00    +0.046 A 
ATOM     17  C   UNL     1       2.092   0.660  -0.014  0.00  0.00    +0.127 A 
ATOM     18  O   UNL     1       1.282  -0.411  -0.012  0.00  0.00    -0.466 OA
ATOM     19  C   UNL     1       0.002  -0.004   0.002  0.00  0.00    +0.195 A 
ENDBRANCH  13  17
ENDBRANCH   1  13
TORSDOF 2
