REMARK  Name = ZINC06196938
REMARK  8 active torsions:
REMARK  status: ('A' for Active; 'I' for Inactive)
REMARK    1  A    between atoms: C_1  and  C_2
REMARK    2  A    between atoms: C_2  and  O_3
REMARK    3  A    between atoms: O_3  and  C_4
REMARK    4  A    between atoms: C_11  and  C_16
REMARK    5  A    between atoms: C_16  and  C_18
REMARK    6  A    between atoms: C_16  and  N_67
REMARK    7  A    between atoms: N_22  and  C_23
REMARK    8  A    between atoms: C_31  and  C_34
REMARK                            x       y       z     vdW  Elec       q    Type
REMARK                         _______ _______ _______ _____ _____    ______ ____
ROOT
ATOM      1  C   UNL     1      -0.099   0.979   2.425  0.00  0.00    +0.039 C 
ENDROOT
BRANCH   1   9
ATOM      2  C   UNL     1      -2.918   1.213   7.941  0.00  0.00    +0.121 A 
ATOM      3  C   UNL     1      -3.010   2.602   8.003  0.00  0.00    +0.047 A 
ATOM      4  C   UNL     1      -2.522   3.384   6.980  0.00  0.00    +0.030 A 
ATOM      5  C   UNL     1      -1.932   2.788   5.870  0.00  0.00    +0.049 A 
ATOM      6  C   UNL     1      -1.838   1.385   5.803  0.00  0.00    +0.002 A 
ATOM      7  C   UNL     1      -2.337   0.602   6.849  0.00  0.00    +0.055 A 
ATOM      8  C   UNL     1      -1.214   0.771   4.630  0.00  0.00    +0.017 A 
ATOM      9  C   UNL     1      -0.747   1.579   3.646  0.00  0.00    +0.011 A 
ATOM     10  C   UNL     1      -0.860   2.981   3.764  0.00  0.00    +0.251 A 
ATOM     11  O   UNL     1      -0.429   3.689   2.871  0.00  0.00    -0.268 OA
ATOM     12  N   UNL     1      -1.436   3.554   4.835  0.00  0.00    -0.322 N 
ATOM     13  H   UNL     1      -1.507   4.551   4.882  0.00  0.00    +0.169 HD
BRANCH   2  14
ATOM     14  O   UNL     1      -3.406   0.457   8.960  0.00  0.00    -0.492 OA
BRANCH  14  16
ATOM     15  C   UNL     1      -4.483   0.142  11.101  0.00  0.00    +0.048 C 
ATOM     16  C   UNL     1      -3.995   1.153  10.060  0.00  0.00    +0.225 C 
ENDBRANCH  14  16
ENDBRANCH   2  14
ENDBRANCH   1   9
BRANCH   1  23
ATOM     17  C   UNL     1      -2.173   1.115   1.184  0.00  0.00    -0.077 C 
ATOM     18  C   UNL     1      -2.857   1.790  -0.006  0.00  0.00    -0.015 C 
ATOM     19  C   UNL     1      -2.163   1.358  -1.301  0.00  0.00    -0.018 C 
ATOM     20  C   UNL     1      -0.678   1.724  -1.220  0.00  0.00    -0.015 C 
ATOM     21  C   UNL     1      -0.057   1.050   0.006  0.00  0.00    -0.077 C 
ATOM     22  C   UNL     1      -2.803   2.077  -2.490  0.00  0.00    +0.007 C 
ATOM     23  N   UNL     1      -0.754   1.526   1.219  0.00  0.00    +0.389 N 
ATOM     24  H   UNL     1      -0.705   2.552   1.250  0.00  0.00    -0.080 HD
ENDBRANCH   1  23
BRANCH   1  25
ATOM     25  C   UNL     1       1.362   1.346   2.399  0.00  0.00    +0.143 A 
ATOM     26  N   UNL     1       1.870   2.513   2.083  0.00  0.00    -0.115 NA
ATOM     27  N   UNL     1       3.152   2.429   2.183  0.00  0.00    -0.023 NA
ATOM     28  N   UNL     1       3.475   1.237   2.547  0.00  0.00    -0.044 NA
ATOM     29  N   UNL     1       2.399   0.539   2.690  0.00  0.00    -0.227 N 
BRANCH  29  30
ATOM     30  C   UNL     1       2.321  -0.866   3.095  0.00  0.00    +0.111 C 
ATOM     31  C   UNL     1       2.948  -1.034   4.480  0.00  0.00    +0.027 C 
ATOM     32  C   UNL     1       2.866  -2.502   4.903  0.00  0.00    +0.002 C 
ATOM     33  C   UNL     1       3.623  -3.366   3.893  0.00  0.00    +0.000 C 
ATOM     34  C   UNL     1       2.997  -3.199   2.507  0.00  0.00    +0.002 C 
ATOM     35  C   UNL     1       3.078  -1.731   2.085  0.00  0.00    +0.027 C 
ENDBRANCH  29  30
ENDBRANCH   1  25
TORSDOF 6
