REMARK  Name = ZINC21038356
REMARK  8 active torsions:
REMARK  status: ('A' for Active; 'I' for Inactive)
REMARK    1  A    between atoms: C_1  and  C_2
REMARK    2  A    between atoms: C_9  and  C_12
REMARK    3  A    between atoms: C_12  and  S_13
REMARK    4  A    between atoms: S_13  and  C_14
REMARK    5  A    between atoms: N_19  and  N_20
REMARK    6  A    between atoms: C_21  and  C_22
REMARK    7  A    between atoms: C_26  and  O_28
REMARK    8  A    between atoms: O_28  and  C_29
REMARK                            x       y       z     vdW  Elec       q    Type
REMARK                         _______ _______ _______ _____ _____    ______ ____
ROOT
ATOM      1  C   UNL     1      -1.028   1.450  -1.230  0.00  0.00    +0.210 A 
ATOM      2  N   UNL     1       0.061   0.717  -0.853  0.00  0.00    -0.186 NA
ATOM      3  C   UNL     1       1.159   1.530  -0.911  0.00  0.00    +0.232 A 
ATOM      4  N   UNL     1       0.763   2.717  -1.302  0.00  0.00    -0.245 N 
ATOM      5  N   UNL     1      -0.623   2.668  -1.501  0.00  0.00    -0.144 NA
ATOM      6  N   UNL     1       2.462   1.164  -0.608  0.00  0.00    -0.205 N 
ATOM      7  H   UNL     1       2.684   0.135  -0.287  0.00  0.00    +0.177 HD
ATOM      8  H   UNL     1       1.495   3.531  -1.416  0.00  0.00    +0.192 HD
ENDROOT
BRANCH   6   9
ATOM      9  N   UNL     1       3.496   2.103  -0.711  0.00  0.00    -0.188 NA
ATOM     10  C   UNL     1       4.716   1.760  -0.427  0.00  0.00    +0.138 C 
BRANCH  10  11
ATOM     11  C   UNL     1       5.804   2.749  -0.536  0.00  0.00    -0.002 A 
ATOM     12  C   UNL     1       5.526   4.056  -0.948  0.00  0.00    +0.010 A 
ATOM     13  C   UNL     1       6.546   4.979  -1.043  0.00  0.00    +0.004 A 
ATOM     14  C   UNL     1       7.846   4.615  -0.741  0.00  0.00    +0.046 A 
ATOM     15  C   UNL     1       8.133   3.318  -0.336  0.00  0.00    +0.129 A 
ATOM     16  C   UNL     1       7.117   2.384  -0.232  0.00  0.00    +0.055 A 
BRANCH  15  17
ATOM     17  O   UNL     1       9.412   2.966  -0.042  0.00  0.00    -0.456 OA
BRANCH  17  18
ATOM     18  C   UNL     1      10.376   3.919  -0.145  0.00  0.00    +0.128 A 
ATOM     19  C   UNL     1      11.052   4.095  -1.344  0.00  0.00    +0.046 A 
ATOM     20  C   UNL     1      12.028   5.068  -1.448  0.00  0.00    +0.004 A 
ATOM     21  C   UNL     1      12.338   5.858  -0.356  0.00  0.00    +0.000 A 
ATOM     22  C   UNL     1      11.669   5.680   0.841  0.00  0.00    +0.004 A 
ATOM     23  C   UNL     1      10.689   4.713   0.949  0.00  0.00    +0.046 A 
ENDBRANCH  17  18
ENDBRANCH  15  17
ENDBRANCH  10  11
ENDBRANCH   6   9
BRANCH   1  24
ATOM     24  S   UNL     1      -2.687   0.864  -1.330  0.00  0.00    -0.077 S 
BRANCH  24  25
ATOM     25  C   UNL     1      -3.631   2.312  -1.882  0.00  0.00    +0.151 C 
BRANCH  25  34
ATOM     26  C   UNL     1     -10.383   0.096  -3.964  0.00  0.00    +0.044 C 
ATOM     27  C   UNL     1      -9.260   0.628  -3.111  0.00  0.00    -0.048 A 
ATOM     28  C   UNL     1      -9.508   0.989  -1.795  0.00  0.00    +0.005 A 
ATOM     29  C   UNL     1      -8.493   1.478  -1.000  0.00  0.00    +0.030 A 
ATOM     30  C   UNL     1      -7.214   1.610  -1.523  0.00  0.00    +0.089 A 
ATOM     31  C   UNL     1      -6.963   1.244  -2.857  0.00  0.00    +0.066 A 
ATOM     32  C   UNL     1      -8.007   0.751  -3.643  0.00  0.00    +0.031 A 
ATOM     33  N   UNL     1      -5.645   1.478  -3.089  0.00  0.00    -0.341 N 
ATOM     34  C   UNL     1      -5.086   1.943  -2.010  0.00  0.00    +0.118 A 
ATOM     35  N   UNL     1      -6.008   2.052  -1.016  0.00  0.00    -0.232 NA
ATOM     36  H   UNL     1      -5.046   1.333  -4.000  0.00  0.00    +0.167 HD
ENDBRANCH  25  34
ENDBRANCH  24  25
ENDBRANCH   1  24
TORSDOF 7
