REMARK  Name = ZINC45415720
REMARK  7 active torsions:
REMARK  status: ('A' for Active; 'I' for Inactive)
REMARK    1  A    between atoms: C_1  and  C_2
REMARK    2  A    between atoms: C_2  and  C_4
REMARK    3  A    between atoms: C_2  and  S_18
REMARK    4  A    between atoms: C_4  and  C_6
REMARK    5  A    between atoms: C_6  and  C_16
REMARK    6  A    between atoms: S_18  and  C_19
REMARK    7  A    between atoms: N_23  and  C_24
REMARK                            x       y       z     vdW  Elec       q    Type
REMARK                         _______ _______ _______ _____ _____    ______ ____
ROOT
ATOM      1  S   UNL     1       0.674  -0.929   1.474  0.00  0.00    -0.074 S 
ENDROOT
BRANCH   1   2
ATOM      2  C   UNL     1      -0.217  -0.216   2.817  0.00  0.00    +0.198 A 
ATOM      3  N   UNL     1      -1.178   0.671   2.720  0.00  0.00    -0.120 NA
ATOM      4  N   UNL     1      -1.620   0.975   4.014  0.00  0.00    -0.112 NA
ATOM      5  C   UNL     1      -0.916   0.266   4.861  0.00  0.00    +0.225 A 
ATOM      6  N   UNL     1      -0.032  -0.494   4.144  0.00  0.00    -0.259 N 
ATOM      7  N   UNL     1      -1.047   0.280   6.244  0.00  0.00    -0.295 N 
ATOM      8  C   UNL     1      -0.100  -0.450   7.102  0.00  0.00    +0.136 C 
ATOM      9  C   UNL     1       0.408   0.507   8.186  0.00  0.00    +0.179 C 
ATOM     10  O   UNL     1      -0.710   1.109   8.843  0.00  0.00    -0.377 OA
ATOM     11  C   UNL     1      -1.529   1.911   7.989  0.00  0.00    +0.179 C 
ATOM     12  C   UNL     1      -2.132   1.030   6.895  0.00  0.00    +0.136 C 
BRANCH   6  13
ATOM     13  C   UNL     1       0.900  -1.397   4.676  0.00  0.00    +0.052 A 
ATOM     14  C   UNL     1       0.471  -2.600   5.220  0.00  0.00    +0.026 A 
ATOM     15  C   UNL     1       1.392  -3.488   5.742  0.00  0.00    +0.002 A 
ATOM     16  C   UNL     1       2.740  -3.179   5.724  0.00  0.00    +0.000 A 
ATOM     17  C   UNL     1       3.170  -1.982   5.183  0.00  0.00    +0.002 A 
ATOM     18  C   UNL     1       2.254  -1.092   4.654  0.00  0.00    +0.026 A 
ENDBRANCH   6  13
ENDBRANCH   1   2
BRANCH   1  20
ATOM     19  C   UNL     1       0.259   1.353   0.025  0.00  0.00    +0.028 C 
ATOM     20  C   UNL     1      -0.045  -0.146   0.005  0.00  0.00    +0.123 C 
BRANCH  20  21
ATOM     21  C   UNL     1       0.549  -0.763  -1.235  0.00  0.00    +0.189 C 
ATOM     22  O   UNL     1       1.648  -1.282  -1.189  0.00  0.00    -0.290 OA
BRANCH  21  23
ATOM     23  C   UNL     1      -0.165  -0.738  -2.444  0.00  0.00    +0.123 C 
ATOM     24  C   UNL     1       0.390  -1.314  -3.602  0.00  0.00    +0.091 C 
ATOM     25  N   UNL     1       1.590  -1.934  -3.729  0.00  0.00    -0.307 N 
ATOM     26  C   UNL     1       1.974  -2.444  -4.954  0.00  0.00    +0.046 A 
ATOM     27  C   UNL     1       3.155  -3.114  -5.303  0.00  0.00    +0.024 A 
ATOM     28  C   UNL     1       3.357  -3.551  -6.591  0.00  0.00    +0.002 A 
ATOM     29  C   UNL     1       2.406  -3.344  -7.577  0.00  0.00    +0.001 A 
ATOM     30  C   UNL     1       1.231  -2.687  -7.258  0.00  0.00    +0.017 A 
ATOM     31  C   UNL     1       1.028  -2.249  -5.970  0.00  0.00    +0.035 A 
ATOM     32  S   UNL     1      -0.286  -1.396  -5.138  0.00  0.00    -0.071 S 
ATOM     33  H   UNL     1       2.177  -2.019  -2.961  0.00  0.00    +0.153 HD
BRANCH  23  34
ATOM     34  C   UNL     1      -1.459  -0.127  -2.498  0.00  0.00    +0.105 C 
ATOM     35  N   UNL     1      -2.486   0.358  -2.541  0.00  0.00    -0.191 NA
ENDBRANCH  23  34
ENDBRANCH  21  23
ENDBRANCH  20  21
ENDBRANCH   1  20
TORSDOF 6
