REMARK  Name = ZINC43250343
REMARK  7 active torsions:
REMARK  status: ('A' for Active; 'I' for Inactive)
REMARK    1  A    between atoms: C_1  and  C_2
REMARK    2  A    between atoms: C_6  and  C_7
REMARK    3  A    between atoms: C_7  and  C_9
REMARK    4  A    between atoms: C_7  and  O_13
REMARK    5  A    between atoms: C_9  and  C_11
REMARK    6  A    between atoms: C_9  and  N_12
REMARK    7  A    between atoms: O_13  and  C_14
REMARK                            x       y       z     vdW  Elec       q    Type
REMARK                         _______ _______ _______ _____ _____    ______ ____
ROOT
ATOM      1  C   UNL     1      -0.024  -0.155   2.542  0.00  0.00    +0.196 C 
ENDROOT
BRANCH   1   7
ATOM      2  C   UNL     1      -0.263   1.741   0.138  0.00  0.00    +0.045 C 
ATOM      3  C   UNL     1      -0.323   0.241   0.006  0.00  0.00    -0.037 A 
ATOM      4  C   UNL     1      -0.485  -0.348  -1.234  0.00  0.00    +0.011 A 
ATOM      5  C   UNL     1      -0.535  -1.700  -1.318  0.00  0.00    +0.046 A 
ATOM      6  S   UNL     1      -0.349  -2.183   0.391  0.00  0.00    -0.098 S 
ATOM      7  C   UNL     1      -0.212  -0.550   1.101  0.00  0.00    +0.031 A 
ENDBRANCH   1   7
BRANCH   1   8
ATOM      8  C   UNL     1       1.424  -0.422   2.960  0.00  0.00    -0.032 C 
ATOM      9  C   UNL     1       1.615  -0.021   4.424  0.00  0.00    -0.010 C 
BRANCH   8  10
ATOM     10  N   UNL     1       2.330   0.365   2.114  0.00  0.00    +0.382 N 
ATOM     11  H   UNL     1       2.125   1.347   2.223  0.00  0.00    -0.089 HD
ATOM     12  H   UNL     1       3.285   0.189   2.389  0.00  0.00    -0.089 HD
ATOM     13  H   UNL     1       2.204   0.101   1.148  0.00  0.00    -0.089 HD
ENDBRANCH   8  10
ENDBRANCH   1   8
BRANCH   1  14
ATOM     14  O   UNL     1      -0.906  -0.921   3.365  0.00  0.00    -0.484 OA
BRANCH  14  15
ATOM     15  C   UNL     1      -1.418  -0.304   4.463  0.00  0.00    +0.134 A 
ATOM     16  C   UNL     1      -1.109   1.024   4.721  0.00  0.00    +0.047 A 
ATOM     17  C   UNL     1      -1.630   1.649   5.837  0.00  0.00    +0.004 A 
ATOM     18  C   UNL     1      -2.459   0.953   6.697  0.00  0.00    +0.001 A 
ATOM     19  C   UNL     1      -2.769  -0.370   6.443  0.00  0.00    +0.018 A 
ATOM     20  C   UNL     1      -2.255  -0.999   5.324  0.00  0.00    +0.055 A 
ATOM     21  I   UNL     1      -2.731  -3.001   4.934  0.00  0.00    -0.040 I 
ENDBRANCH  14  15
ENDBRANCH   1  14
TORSDOF 5
