REMARK  Name = ZINC28527583
REMARK  8 active torsions:
REMARK  status: ('A' for Active; 'I' for Inactive)
REMARK    1  A    between atoms: C_1  and  C_2
REMARK    2  A    between atoms: C_5  and  C_8
REMARK    3  A    between atoms: C_12  and  C_27
REMARK    4  A    between atoms: N_15  and  C_16
REMARK    5  A    between atoms: C_16  and  N_18
REMARK    6  A    between atoms: N_18  and  C_19
REMARK    7  A    between atoms: C_21  and  C_26
REMARK    8  A    between atoms: C_24  and  C_25
REMARK                            x       y       z     vdW  Elec       q    Type
REMARK                         _______ _______ _______ _____ _____    ______ ____
ROOT
ATOM      1  C   UNL     1      -3.760   1.749   0.483  0.00  0.00    +0.078 A 
ATOM      2  C   UNL     1      -4.635   0.769   0.633  0.00  0.00    +0.051 A 
ATOM      3  N   UNL     1      -3.961  -0.397   0.309  0.00  0.00    -0.283 N 
ATOM      4  C   UNL     1      -4.287  -1.713   0.213  0.00  0.00    +0.053 A 
ATOM      5  C   UNL     1      -3.103  -2.345   0.175  0.00  0.00    +0.094 A 
ATOM      6  N   UNL     1      -2.120  -1.399   0.129  0.00  0.00    -0.211 NA
ATOM      7  C   UNL     1      -2.648  -0.193   0.145  0.00  0.00    +0.223 A 
ATOM      8  N   UNL     1      -2.518   1.183   0.132  0.00  0.00    -0.259 N 
ATOM      9  C   UNL     1      -5.730  -2.168   0.109  0.00  0.00    +0.056 C 
ATOM     10  C   UNL     1      -6.428  -1.138  -0.791  0.00  0.00    +0.007 C 
ATOM     11  C   UNL     1      -6.923   0.145  -0.106  0.00  0.00    +0.007 C 
ATOM     12  C   UNL     1      -6.077   0.645   1.050  0.00  0.00    +0.056 C 
ENDROOT
BRANCH   1  17
ATOM     13  C   UNL     1      -4.839   7.363   1.145  0.00  0.00    +0.044 C 
ATOM     14  C   UNL     1      -4.557   5.893   0.972  0.00  0.00    -0.050 A 
ATOM     15  C   UNL     1      -5.253   5.165   0.024  0.00  0.00    +0.004 A 
ATOM     16  C   UNL     1      -4.999   3.819  -0.140  0.00  0.00    +0.010 A 
ATOM     17  C   UNL     1      -4.037   3.192   0.653  0.00  0.00    +0.001 A 
ATOM     18  C   UNL     1      -3.342   3.931   1.611  0.00  0.00    +0.010 A 
ATOM     19  C   UNL     1      -3.602   5.277   1.761  0.00  0.00    +0.004 A 
ENDBRANCH   1  17
BRANCH   5  20
ATOM     20  C   UNL     1      -2.899  -3.814   0.183  0.00  0.00    +0.002 A 
ATOM     21  C   UNL     1      -3.751  -4.635   0.920  0.00  0.00    +0.011 A 
ATOM     22  C   UNL     1      -3.560  -6.001   0.920  0.00  0.00    +0.020 A 
ATOM     23  C   UNL     1      -2.518  -6.557   0.197  0.00  0.00    +0.041 A 
ATOM     24  C   UNL     1      -1.666  -5.746  -0.533  0.00  0.00    +0.020 A 
ATOM     25  C   UNL     1      -1.852  -4.378  -0.543  0.00  0.00    +0.011 A 
ATOM     26 CL   UNL     1      -2.279  -8.276   0.207  0.00  0.00    -0.084 Cl
ENDBRANCH   5  20
BRANCH   8  27
ATOM     27  C   UNL     1      -1.396   1.867  -0.170  0.00  0.00    +0.157 C 
ATOM     28  S   UNL     1      -1.376   3.575  -0.049  0.00  0.00    -0.015 S 
BRANCH  27  29
ATOM     29  N   UNL     1      -0.291   1.206  -0.568  0.00  0.00    -0.294 N 
ATOM     30  H   UNL     1      -0.324   0.117  -0.713  0.00  0.00    +0.154 HD
BRANCH  29  31
ATOM     31  C   UNL     1       0.899   1.907  -0.794  0.00  0.00    +0.036 A 
ATOM     32  C   UNL     1       0.885   3.078  -1.542  0.00  0.00    +0.027 A 
ATOM     33  C   UNL     1       2.061   3.766  -1.764  0.00  0.00    -0.049 A 
ATOM     34  C   UNL     1       3.252   3.292  -1.243  0.00  0.00    +0.004 A 
ATOM     35  C   UNL     1       3.268   2.126  -0.499  0.00  0.00    +0.005 A 
ATOM     36  C   UNL     1       2.095   1.435  -0.269  0.00  0.00    -0.029 A 
ATOM     37  C   UNL     1       2.113   0.169   0.548  0.00  0.00    +0.045 C 
ATOM     38  C   UNL     1       2.048   5.037  -2.574  0.00  0.00    +0.044 C 
ENDBRANCH  29  31
ENDBRANCH  27  29
ENDBRANCH   8  27
TORSDOF 5
