REMARK  Name = ZINC23858508
REMARK  9 active torsions:
REMARK  status: ('A' for Active; 'I' for Inactive)
REMARK    1  A    between atoms: C_1  and  N_2
REMARK    2  A    between atoms: C_10  and  C_12
REMARK    3  A    between atoms: C_12  and  C_14
REMARK    4  A    between atoms: C_12  and  N_30
REMARK    5  A    between atoms: C_14  and  N_15
REMARK    6  A    between atoms: C_16  and  C_18
REMARK    7  A    between atoms: C_18  and  N_19
REMARK    8  A    between atoms: N_30  and  C_31
REMARK    9  A    between atoms: N_30  and  C_32
REMARK                            x       y       z     vdW  Elec       q    Type
REMARK                         _______ _______ _______ _____ _____    ______ ____
ROOT
ATOM      1  C   UNL     1       3.894  -1.610   5.588  0.00  0.00    +0.093 C 
ENDROOT
BRANCH   1   2
ATOM      2  N   UNL     1       5.298  -2.003   5.732  0.00  0.00    -0.315 N 
ATOM      3  C   UNL     1       5.908  -1.898   6.929  0.00  0.00    +0.231 C 
ATOM      4  O   UNL     1       5.295  -1.477   7.887  0.00  0.00    -0.274 OA
ATOM      5  H   UNL     1       5.854  -2.385   4.863  0.00  0.00    +0.149 HD
BRANCH   3   6
ATOM      6  C   UNL     1       7.352  -2.302   7.077  0.00  0.00    +0.212 C 
BRANCH   6   7
ATOM      7  N   UNL     1       7.778  -2.094   8.463  0.00  0.00    -0.225 N 
ATOM      8  C   UNL     1       8.320  -0.955   8.930  0.00  0.00    +0.254 C 
ATOM      9  O   UNL     1       8.530   0.049   8.280  0.00  0.00    -0.270 OA
ATOM     10  C   UNL     1       8.614  -1.128  10.368  0.00  0.00    +0.049 A 
ATOM     11  C   UNL     1       9.161  -0.316  11.349  0.00  0.00    +0.014 A 
ATOM     12  C   UNL     1       9.309  -0.801  12.639  0.00  0.00    +0.001 A 
ATOM     13  C   UNL     1       8.915  -2.088  12.953  0.00  0.00    +0.001 A 
ATOM     14  C   UNL     1       8.367  -2.912  11.982  0.00  0.00    +0.014 A 
ATOM     15  C   UNL     1       8.213  -2.441  10.688  0.00  0.00    +0.049 A 
ATOM     16  C   UNL     1       7.684  -3.019   9.435  0.00  0.00    +0.254 C 
ATOM     17  O   UNL     1       7.239  -4.142   9.305  0.00  0.00    -0.270 OA
ENDBRANCH   6   7
ENDBRANCH   3   6
ENDBRANCH   1   2
BRANCH   1  18
ATOM     18  C   UNL     1       3.414  -1.941   4.173  0.00  0.00    -0.021 C 
BRANCH  18  28
ATOM     19  C   UNL     1      -2.691  -0.618   5.112  0.00  0.00    +0.129 C 
ATOM     20  N   UNL     1      -2.131  -0.803   3.766  0.00  0.00    -0.333 N 
ATOM     21  C   UNL     1      -2.474   0.323   2.896  0.00  0.00    +0.105 C 
ATOM     22  C   UNL     1      -1.842   0.089   1.518  0.00  0.00    +0.024 C 
ATOM     23  C   UNL     1      -0.323   0.202   1.671  0.00  0.00    +0.038 C 
ATOM     24  C   UNL     1       0.127  -0.608   2.861  0.00  0.00    -0.026 A 
ATOM     25  C   UNL     1      -0.761  -1.052   3.826  0.00  0.00    +0.033 A 
ATOM     26  C   UNL     1      -0.281  -1.784   4.913  0.00  0.00    +0.023 A 
ATOM     27  C   UNL     1       1.063  -2.068   5.025  0.00  0.00    +0.004 A 
ATOM     28  C   UNL     1       1.945  -1.628   4.055  0.00  0.00    -0.059 A 
ATOM     29  C   UNL     1       1.477  -0.901   2.979  0.00  0.00    +0.007 A 
ENDBRANCH  18  28
BRANCH  18  30
ATOM     30  N   UNL     1       3.634  -3.368   3.903  0.00  0.00    +0.382 N 
ATOM     31  C   UNL     1       2.756  -4.202   4.734  0.00  0.00    -0.096 C 
ATOM     32  C   UNL     1       3.450  -3.668   2.477  0.00  0.00    -0.096 C 
ATOM     33  H   UNL     1       4.675  -3.605   4.167  0.00  0.00    -0.082 HD
ENDBRANCH  18  30
ENDBRANCH   1  18
TORSDOF 6
