REMARK  Name = ZINC16613417
REMARK  11 active torsions:
REMARK  status: ('A' for Active; 'I' for Inactive)
REMARK    1  A    between atoms: C_1  and  C_2
REMARK    2  A    between atoms: C_2  and  C_3
REMARK    3  A    between atoms: C_3  and  C_4
REMARK    4  A    between atoms: C_4  and  C_5
REMARK    5  A    between atoms: C_5  and  C_6
REMARK    6  A    between atoms: N_8  and  C_9
REMARK    7  A    between atoms: N_8  and  C_12
REMARK    8  A    between atoms: C_9  and  C_10
REMARK    9  A    between atoms: C_12  and  C_13
REMARK   10  A    between atoms: C_20  and  C_22
REMARK   11  A    between atoms: C_24  and  C_27
REMARK                            x       y       z     vdW  Elec       q    Type
REMARK                         _______ _______ _______ _____ _____    ______ ____
ROOT
ATOM      1  C   UNL     1      -2.931   1.401  -2.505  0.00  0.00    +0.234 C 
ATOM      2  O   UNL     1      -4.040   0.912  -2.447  0.00  0.00    -0.274 OA
ATOM      3  N   UNL     1      -2.260   1.686  -1.372  0.00  0.00    -0.288 N 
ATOM      4  C   UNL     1      -0.878   2.182  -1.425  0.00  0.00    +0.108 C 
ATOM      5  C   UNL     1      -0.001   1.291  -0.540  0.00  0.00    +0.019 C 
ATOM      6  C   UNL     1      -0.595   1.235   0.870  0.00  0.00    +0.004 C 
ATOM      7  C   UNL     1      -1.998   0.625   0.810  0.00  0.00    +0.032 C 
ATOM      8  C   UNL     1      -2.898   1.509  -0.060  0.00  0.00    +0.165 C 
ENDROOT
BRANCH   8   9
ATOM      9  C   UNL     1      -4.239   0.845  -0.236  0.00  0.00    +0.248 A 
ATOM     10  N   UNL     1      -5.412   1.407  -0.079  0.00  0.00    -0.190 NA
ATOM     11  C   UNL     1      -6.317   0.438  -0.342  0.00  0.00    +0.202 A 
ATOM     12  N   UNL     1      -5.648  -0.648  -0.632  0.00  0.00    -0.056 NA
ATOM     13  O   UNL     1      -4.456  -0.430  -0.575  0.00  0.00    -0.336 OA
BRANCH  11  14
ATOM     14  C   UNL     1      -7.794   0.578  -0.304  0.00  0.00    +0.023 A 
ATOM     15  C   UNL     1      -8.372   1.802   0.029  0.00  0.00    +0.013 A 
ATOM     16  C   UNL     1      -9.745   1.928   0.059  0.00  0.00    +0.016 A 
ATOM     17  C   UNL     1     -10.550   0.839  -0.230  0.00  0.00    +0.018 A 
ATOM     18  C   UNL     1      -9.980  -0.380  -0.556  0.00  0.00    +0.016 A 
ATOM     19  C   UNL     1      -8.608  -0.515  -0.594  0.00  0.00    +0.013 A 
ATOM     20 BR   UNL     1     -12.431   1.017  -0.179  0.00  0.00    -0.050 Br
ENDBRANCH  11  14
ENDBRANCH   8   9
BRANCH   1  21
ATOM     21  C   UNL     1      -2.304   1.688  -3.845  0.00  0.00    +0.204 C 
BRANCH  21  24
ATOM     22  C   UNL     1      -3.180   0.040  -5.411  0.00  0.00    +0.216 C 
ATOM     23  O   UNL     1      -2.375  -0.757  -4.978  0.00  0.00    -0.276 OA
ATOM     24  N   UNL     1      -3.226   1.291  -4.912  0.00  0.00    -0.289 N 
BRANCH  22  25
ATOM     25  C   UNL     1      -4.129  -0.369  -6.508  0.00  0.00    +0.096 C 
BRANCH  25  26
ATOM     26  C   UNL     1      -3.869  -1.827  -6.891  0.00  0.00    +0.009 C 
BRANCH  26  27
ATOM     27  C   UNL     1      -4.832  -2.242  -8.005  0.00  0.00    +0.000 C 
BRANCH  27  29
ATOM     28  C   UNL     1      -5.535  -4.115  -9.501  0.00  0.00    +0.004 C 
ATOM     29  C   UNL     1      -4.571  -3.700  -8.387  0.00  0.00    -0.003 C 
ENDBRANCH  27  29
ENDBRANCH  26  27
ENDBRANCH  25  26
ENDBRANCH  22  25
BRANCH  24  30
ATOM     30  C   UNL     1      -4.199   2.253  -5.435  0.00  0.00    +0.135 C 
BRANCH  30  31
ATOM     31  C   UNL     1      -3.589   3.007  -6.588  0.00  0.00    -0.016 C 
ATOM     32  C   UNL     1      -4.194   3.030  -7.750  0.00  0.00    +0.005 C 
ENDBRANCH  30  31
ENDBRANCH  24  30
ENDBRANCH  21  24
ENDBRANCH   1  21
TORSDOF 10
