REMARK  Name = ZINC40363388
REMARK  10 active torsions:
REMARK  status: ('A' for Active; 'I' for Inactive)
REMARK    1  A    between atoms: C_1  and  C_2
REMARK    2  A    between atoms: C_5  and  C_8
REMARK    3  A    between atoms: C_22  and  C_24
REMARK    4  A    between atoms: C_24  and  N_25
REMARK    5  A    between atoms: N_25  and  C_26
REMARK    6  A    between atoms: C_29  and  C_31
REMARK    7  A    between atoms: C_34  and  C_37
REMARK    8  A    between atoms: C_37  and  C_38
REMARK    9  A    between atoms: C_37  and  C_39
REMARK   10  A    between atoms: C_37  and  C_40
REMARK                            x       y       z     vdW  Elec       q    Type
REMARK                         _______ _______ _______ _____ _____    ______ ____
ROOT
ATOM      1  C   UNL     1      -0.598  -4.888   3.659  0.00  0.00    +0.159 C 
ATOM      2  C   UNL     1       0.359  -3.723   3.722  0.00  0.00    +0.049 A 
ATOM      3  C   UNL     1       0.418  -2.715   4.599  0.00  0.00    +0.025 A 
ATOM      4  C   UNL     1       1.501  -1.890   4.222  0.00  0.00    +0.020 A 
ATOM      5  C   UNL     1       2.062  -2.433   3.118  0.00  0.00    +0.092 A 
ATOM      6  N   UNL     1       1.370  -3.554   2.800  0.00  0.00    -0.316 N 
ATOM      7  C   UNL     1       1.550  -4.459   1.744  0.00  0.00    +0.068 A 
ATOM      8  C   UNL     1       2.693  -4.457   0.970  0.00  0.00    +0.028 A 
ATOM      9  C   UNL     1       2.829  -5.376  -0.056  0.00  0.00    +0.002 A 
ATOM     10  C   UNL     1       1.823  -6.293  -0.304  0.00  0.00    +0.002 A 
ATOM     11  C   UNL     1       0.675  -6.298   0.465  0.00  0.00    +0.025 A 
ATOM     12  C   UNL     1       0.526  -5.379   1.492  0.00  0.00    +0.061 A 
ATOM     13  N   UNL     1      -0.644  -5.357   2.264  0.00  0.00    -0.255 N 
ATOM     14  C   UNL     1      -1.812  -5.765   1.730  0.00  0.00    +0.238 C 
ATOM     15  O   UNL     1      -1.869  -6.072   0.558  0.00  0.00    -0.273 OA
ENDROOT
BRANCH   1  20
ATOM     16  C   UNL     1       1.265  -9.146   7.094  0.00  0.00    +0.044 C 
ATOM     17  C   UNL     1       0.779  -8.035   6.199  0.00  0.00    -0.050 A 
ATOM     18  C   UNL     1      -0.233  -7.196   6.625  0.00  0.00    +0.004 A 
ATOM     19  C   UNL     1      -0.678  -6.177   5.803  0.00  0.00    +0.006 A 
ATOM     20  C   UNL     1      -0.112  -5.998   4.556  0.00  0.00    -0.021 A 
ATOM     21  C   UNL     1       0.901  -6.837   4.129  0.00  0.00    +0.006 A 
ATOM     22  C   UNL     1       1.350  -7.853   4.953  0.00  0.00    +0.004 A 
ENDBRANCH   1  20
BRANCH  14  23
ATOM     23  C   UNL     1      -3.049  -5.840   2.589  0.00  0.00    +0.204 C 
BRANCH  23  24
ATOM     24  N   UNL     1      -4.148  -6.419   1.813  0.00  0.00    -0.286 N 
ATOM     25  C   UNL     1      -5.182  -5.646   1.428  0.00  0.00    +0.247 C 
ATOM     26  O   UNL     1      -6.131  -6.142   0.853  0.00  0.00    -0.270 OA
BRANCH  25  27
ATOM     27  C   UNL     1      -5.162  -4.194   1.705  0.00  0.00    +0.037 A 
ATOM     28  C   UNL     1      -3.947  -3.514   1.796  0.00  0.00    +0.013 A 
ATOM     29  C   UNL     1      -3.935  -2.159   2.054  0.00  0.00    +0.005 A 
ATOM     30  C   UNL     1      -5.125  -1.474   2.223  0.00  0.00    -0.042 A 
ATOM     31  C   UNL     1      -6.334  -2.141   2.134  0.00  0.00    +0.005 A 
ATOM     32  C   UNL     1      -6.359  -3.495   1.870  0.00  0.00    +0.013 A 
BRANCH  30  33
ATOM     33  C   UNL     1      -5.105   0.007   2.505  0.00  0.00    -0.013 C 
ATOM     34  C   UNL     1      -4.416   0.737   1.350  0.00  0.00    +0.015 C 
ATOM     35  C   UNL     1      -6.540   0.518   2.648  0.00  0.00    +0.015 C 
ATOM     36  C   UNL     1      -4.339   0.268   3.803  0.00  0.00    +0.015 C 
ENDBRANCH  30  33
ENDBRANCH  25  27
BRANCH  24  37
ATOM     37  C   UNL     1      -4.123  -7.840   1.456  0.00  0.00    +0.077 C 
ATOM     38  C   UNL     1      -5.059  -8.304   0.338  0.00  0.00    +0.024 C 
ATOM     39  C   UNL     1      -5.360  -8.675   1.792  0.00  0.00    +0.024 C 
ENDBRANCH  24  37
ENDBRANCH  23  24
ENDBRANCH  14  23
TORSDOF 6
