REMARK  Name = ZINC08385645
REMARK  9 active torsions:
REMARK  status: ('A' for Active; 'I' for Inactive)
REMARK    1  A    between atoms: C_4  and  C_7
REMARK    2  A    between atoms: C_7  and  C_8
REMARK    3  A    between atoms: C_7  and  C_14
REMARK    4  A    between atoms: C_7  and  N_58
REMARK    5  A    between atoms: C_20  and  C_21
REMARK    6  A    between atoms: C_20  and  N_58
REMARK    7  A    between atoms: C_21  and  N_22
REMARK    8  A    between atoms: C_23  and  C_25
REMARK    9  A    between atoms: C_29  and  N_31
REMARK                            x       y       z     vdW  Elec       q    Type
REMARK                         _______ _______ _______ _____ _____    ______ ____
ROOT
ATOM      1  C   UNL     1       5.979   2.415  -0.162  0.00  0.00    +0.010 C 
ENDROOT
BRANCH   1   5
ATOM      2  C   UNL     1       5.208   3.999   3.730  0.00  0.00    +0.000 A 
ATOM      3  C   UNL     1       6.000   2.876   3.586  0.00  0.00    +0.000 A 
ATOM      4  C   UNL     1       6.249   2.363   2.326  0.00  0.00    +0.003 A 
ATOM      5  C   UNL     1       5.707   2.974   1.211  0.00  0.00    -0.050 A 
ATOM      6  C   UNL     1       4.919   4.100   1.355  0.00  0.00    +0.003 A 
ATOM      7  C   UNL     1       4.665   4.610   2.615  0.00  0.00    +0.000 A 
ENDBRANCH   1   5
BRANCH   1   8
ATOM      8  C   UNL     1       7.233   1.581  -0.125  0.00  0.00    -0.050 A 
ATOM      9  C   UNL     1       8.418   2.135   0.322  0.00  0.00    +0.003 A 
ATOM     10  C   UNL     1       9.568   1.369   0.360  0.00  0.00    +0.000 A 
ATOM     11  C   UNL     1       9.536   0.052  -0.058  0.00  0.00    +0.000 A 
ATOM     12  C   UNL     1       8.352  -0.500  -0.511  0.00  0.00    +0.000 A 
ATOM     13  C   UNL     1       7.201   0.264  -0.544  0.00  0.00    +0.003 A 
ENDBRANCH   1   8
BRANCH   1  14
ATOM     14  C   UNL     1       6.157   3.548  -1.139  0.00  0.00    -0.050 A 
ATOM     15  C   UNL     1       6.665   4.759  -0.708  0.00  0.00    +0.003 A 
ATOM     16  C   UNL     1       6.833   5.797  -1.606  0.00  0.00    +0.000 A 
ATOM     17  C   UNL     1       6.483   5.627  -2.932  0.00  0.00    +0.000 A 
ATOM     18  C   UNL     1       5.969   4.418  -3.362  0.00  0.00    +0.000 A 
ATOM     19  C   UNL     1       5.806   3.378  -2.465  0.00  0.00    +0.003 A 
ENDBRANCH   1  14
BRANCH   1  20
ATOM     20  N   UNL     1       4.848   1.568  -0.585  0.00  0.00    +0.392 N 
ATOM     21  H   UNL     1       4.755   0.777   0.063  0.00  0.00    -0.084 HD
ATOM     22  H   UNL     1       5.026   1.214  -1.533  0.00  0.00    -0.084 HD
BRANCH  20  23
ATOM     23  C   UNL     1       3.595   2.348  -0.585  0.00  0.00    -0.061 C 
BRANCH  23  24
ATOM     24  C   UNL     1       2.471   1.490  -1.169  0.00  0.00    +0.085 C 
BRANCH  24  25
ATOM     25  N   UNL     1       1.223   2.258  -1.171  0.00  0.00    -0.313 N 
ATOM     26  C   UNL     1       0.090   1.701  -1.644  0.00  0.00    +0.244 C 
ATOM     27  O   UNL     1       0.104   0.562  -2.070  0.00  0.00    -0.270 OA
ATOM     28  H   UNL     1       1.212   3.166  -0.832  0.00  0.00    +0.149 HD
BRANCH  26  29
ATOM     29  C   UNL     1      -1.167   2.477  -1.652  0.00  0.00    +0.039 A 
ATOM     30  C   UNL     1      -1.188   3.783  -1.159  0.00  0.00    +0.014 A 
ATOM     31  C   UNL     1      -2.363   4.505  -1.174  0.00  0.00    +0.023 A 
ATOM     32  C   UNL     1      -3.524   3.932  -1.666  0.00  0.00    +0.071 A 
ATOM     33  C   UNL     1      -3.511   2.634  -2.151  0.00  0.00    +0.145 A 
ATOM     34  C   UNL     1      -2.341   1.905  -2.147  0.00  0.00    +0.047 A 
ATOM     35 CL   UNL     1      -5.002   4.843  -1.676  0.00  0.00    -0.081 Cl
BRANCH  33  36
ATOM     36  N   UNL     1      -4.756   2.030  -2.675  0.00  0.00    +0.058 N 
ATOM     37  O   UNL     1      -4.746   0.889  -3.102  0.00  0.00    -0.126 OA
ATOM     38  O   UNL     1      -5.791   2.672  -2.680  0.00  0.00    -0.126 OA
ENDBRANCH  33  36
ENDBRANCH  26  29
ENDBRANCH  24  25
ENDBRANCH  23  24
ENDBRANCH  20  23
ENDBRANCH   1  20
TORSDOF 9
