REMARK  Name = ZINC67584716
REMARK  11 active torsions:
REMARK  status: ('A' for Active; 'I' for Inactive)
REMARK    1  A    between atoms: C_1  and  C_2
REMARK    2  A    between atoms: C_2  and  C_3
REMARK    3  A    between atoms: C_3  and  C_4
REMARK    4  A    between atoms: N_6  and  C_7
REMARK    5  A    between atoms: C_11  and  N_14
REMARK    6  A    between atoms: C_12  and  C_13
REMARK    7  A    between atoms: N_17  and  C_18
REMARK    8  A    between atoms: C_18  and  C_20
REMARK    9  A    between atoms: C_18  and  C_28
REMARK   10  A    between atoms: C_23  and  O_26
REMARK   11  A    between atoms: O_26  and  C_27
REMARK                            x       y       z     vdW  Elec       q    Type
REMARK                         _______ _______ _______ _____ _____    ______ ____
ROOT
ATOM      1  N   UNL     1       2.895  -6.705  -4.154  0.00  0.00    -0.269 N 
ATOM      2  C   UNL     1       2.912  -8.053  -4.171  0.00  0.00    +0.304 C 
ATOM      3  O   UNL     1       2.391  -8.678  -3.268  0.00  0.00    -0.252 OA
ATOM      4  N   UNL     1       3.506  -8.707  -5.188  0.00  0.00    -0.292 N 
ATOM      5  H   UNL     1       3.369  -6.206  -4.837  0.00  0.00    +0.156 HD
ATOM      6  H   UNL     1       3.921  -8.207  -5.909  0.00  0.00    +0.151 HD
ENDROOT
BRANCH   1  11
ATOM      7  C   UNL     1       0.858  -4.160  -2.443  0.00  0.00    +0.038 A 
ATOM      8  C   UNL     1       0.806  -4.689  -1.160  0.00  0.00    +0.024 A 
ATOM      9  C   UNL     1       1.444  -5.880  -0.875  0.00  0.00    +0.004 A 
ATOM     10  C   UNL     1       2.137  -6.550  -1.866  0.00  0.00    +0.024 A 
ATOM     11  C   UNL     1       2.193  -6.027  -3.151  0.00  0.00    +0.039 A 
ATOM     12  C   UNL     1       1.547  -4.833  -3.442  0.00  0.00    -0.008 A 
ATOM     13  C   UNL     1       1.600  -4.266  -4.837  0.00  0.00    +0.047 C 
BRANCH   7  16
ATOM     14  C   UNL     1      -0.837  -2.556  -1.982  0.00  0.00    +0.217 C 
ATOM     15  O   UNL     1      -1.283  -3.289  -1.125  0.00  0.00    -0.275 OA
ATOM     16  N   UNL     1       0.211  -2.953  -2.731  0.00  0.00    -0.285 N 
ATOM     17  H   UNL     1       0.516  -2.403  -3.469  0.00  0.00    +0.155 HD
BRANCH  14  18
ATOM     18  C   UNL     1      -1.455  -1.200  -2.210  0.00  0.00    +0.096 C 
BRANCH  18  20
ATOM     19  C   UNL     1      -3.245   0.377  -1.468  0.00  0.00    +0.004 C 
ATOM     20  C   UNL     1      -2.618  -0.999  -1.236  0.00  0.00    +0.006 C 
ENDBRANCH  18  20
ENDBRANCH  14  18
ENDBRANCH   7  16
ENDBRANCH   1  11
BRANCH   4  21
ATOM     21  C   UNL     1       3.525 -10.171  -5.206  0.00  0.00    +0.108 C 
BRANCH  21  22
ATOM     22  C   UNL     1       3.658 -10.655  -6.628  0.00  0.00    -0.027 A 
ATOM     23  C   UNL     1       4.506 -10.001  -7.502  0.00  0.00    +0.009 A 
ATOM     24  C   UNL     1       4.630 -10.442  -8.806  0.00  0.00    +0.046 A 
ATOM     25  C   UNL     1       3.902 -11.541  -9.237  0.00  0.00    +0.120 A 
ATOM     26  C   UNL     1       3.052 -12.196  -8.357  0.00  0.00    +0.046 A 
ATOM     27  C   UNL     1       2.936 -11.754  -7.053  0.00  0.00    +0.009 A 
BRANCH  25  28
ATOM     28  O   UNL     1       4.021 -11.977 -10.518  0.00  0.00    -0.495 OA
ATOM     29  C   UNL     1       3.242 -13.114 -10.893  0.00  0.00    +0.277 C 
ENDBRANCH  25  28
ENDBRANCH  21  22
BRANCH  21  30
ATOM     30  C   UNL     1       4.711 -10.677  -4.383  0.00  0.00    +0.014 C 
ATOM     31  C   UNL     1       4.428 -11.728  -3.308  0.00  0.00    +0.006 C 
ATOM     32  C   UNL     1       4.760 -10.290  -2.903  0.00  0.00    +0.006 C 
ENDBRANCH  21  30
ENDBRANCH   4  21
TORSDOF 8
