REMARK  Name = ZINC14972921
REMARK  8 active torsions:
REMARK  status: ('A' for Active; 'I' for Inactive)
REMARK    1  A    between atoms: C_1  and  C_2
REMARK    2  A    between atoms: C_2  and  C_4
REMARK    3  A    between atoms: C_2  and  N_27
REMARK    4  A    between atoms: C_13  and  C_14
REMARK    5  A    between atoms: C_13  and  N_70
REMARK    6  A    between atoms: C_28  and  C_30
REMARK    7  A    between atoms: C_30  and  C_31
REMARK    8  A    between atoms: C_31  and  C_32
REMARK                            x       y       z     vdW  Elec       q    Type
REMARK                         _______ _______ _______ _____ _____    ______ ____
ROOT
ATOM      1  C   UNL     1       7.356   1.496  -1.689  0.00  0.00    +0.154 A 
ATOM      2  N   UNL     1       7.625   2.256  -2.718  0.00  0.00    -0.132 NA
ATOM      3  N   UNL     1       6.549   2.473  -3.392  0.00  0.00    -0.134 NA
ATOM      4  C   UNL     1       5.551   1.858  -2.828  0.00  0.00    +0.132 A 
ATOM      5  N   UNL     1       6.031   1.236  -1.723  0.00  0.00    -0.315 N 
ATOM      6  C   UNL     1       5.246   0.462  -0.761  0.00  0.00    +0.106 C 
ATOM      7  C   UNL     1       4.025  -0.131  -1.471  0.00  0.00    -0.056 C 
ATOM      8  C   UNL     1       3.205   2.078  -2.082  0.00  0.00    -0.071 C 
ATOM      9  C   UNL     1       4.116   1.815  -3.286  0.00  0.00    +0.058 C 
ATOM     10  N   UNL     1       2.872   0.799  -1.418  0.00  0.00    +0.384 N 
ATOM     11  H   UNL     1       2.079   0.369  -1.908  0.00  0.00    -0.081 HD
ENDROOT
BRANCH   1  13
ATOM     12  C   UNL     1       8.704   2.149   0.287  0.00  0.00    +0.036 C 
ATOM     13  C   UNL     1       8.338   1.003  -0.659  0.00  0.00    +0.138 C 
BRANCH  13  14
ATOM     14  N   UNL     1       9.547   0.519  -1.330  0.00  0.00    -0.306 N 
ATOM     15  C   UNL     1      10.330  -0.399  -0.729  0.00  0.00    +0.214 C 
ATOM     16  O   UNL     1      10.033  -0.824   0.368  0.00  0.00    -0.276 OA
ATOM     17  H   UNL     1       9.784   0.859  -2.207  0.00  0.00    +0.149 HD
BRANCH  15  18
ATOM     18  C   UNL     1      11.573  -0.898  -1.419  0.00  0.00    +0.100 C 
BRANCH  18  19
ATOM     19  C   UNL     1      12.274  -1.925  -0.528  0.00  0.00    +0.044 C 
BRANCH  19  20
ATOM     20  C   UNL     1      13.518  -2.424  -1.218  0.00  0.00    -0.047 A 
ATOM     21  C   UNL     1      13.454  -3.532  -2.042  0.00  0.00    +0.003 A 
ATOM     22  C   UNL     1      14.594  -3.986  -2.679  0.00  0.00    +0.000 A 
ATOM     23  C   UNL     1      15.799  -3.338  -2.484  0.00  0.00    +0.000 A 
ATOM     24  C   UNL     1      15.864  -2.233  -1.656  0.00  0.00    +0.000 A 
ATOM     25  C   UNL     1      14.723  -1.776  -1.023  0.00  0.00    +0.003 A 
ENDBRANCH  19  20
ENDBRANCH  18  19
ENDBRANCH  15  18
ENDBRANCH  13  14
ENDBRANCH   1  13
BRANCH  10  26
ATOM     26  C   UNL     1       2.491   1.046  -0.016  0.00  0.00    -0.043 C 
BRANCH  26  27
ATOM     27  C   UNL     1       1.176   1.783   0.000  0.00  0.00    -0.064 A 
ATOM     28  C   UNL     1       1.160   3.167   0.007  0.00  0.00    +0.002 A 
ATOM     29  C   UNL     1      -0.039   3.848   0.022  0.00  0.00    +0.009 A 
ATOM     30  C   UNL     1      -1.243   3.140   0.030  0.00  0.00    -0.014 A 
ATOM     31  C   UNL     1      -1.216   1.748   0.017  0.00  0.00    -0.035 A 
ATOM     32  C   UNL     1      -0.013   1.076   0.008  0.00  0.00    +0.006 A 
ATOM     33  C   UNL     1      -2.646   1.266   0.034  0.00  0.00    +0.071 C 
ATOM     34  C   UNL     1      -3.504   2.508   0.048  0.00  0.00    -0.035 A 
ATOM     35  C   UNL     1      -2.651   3.607   0.045  0.00  0.00    -0.014 A 
ATOM     36  C   UNL     1      -3.193   4.894   0.057  0.00  0.00    +0.009 A 
ATOM     37  C   UNL     1      -4.562   5.065   0.071  0.00  0.00    +0.001 A 
ATOM     38  C   UNL     1      -5.402   3.966   0.072  0.00  0.00    +0.000 A 
ATOM     39  C   UNL     1      -4.871   2.688   0.061  0.00  0.00    +0.004 A 
ENDBRANCH  26  27
ENDBRANCH  10  26
TORSDOF 7
