REMARK  Name = ZINC64793325
REMARK  8 active torsions:
REMARK  status: ('A' for Active; 'I' for Inactive)
REMARK    1  A    between atoms: C_1  and  C_2
REMARK    2  A    between atoms: C_5  and  C_8
REMARK    3  A    between atoms: C_11  and  C_29
REMARK    4  A    between atoms: N_12  and  C_18
REMARK    5  A    between atoms: C_18  and  C_19
REMARK    6  A    between atoms: N_21  and  C_22
REMARK    7  A    between atoms: C_22  and  C_23
REMARK    8  A    between atoms: C_32  and  C_35
REMARK                            x       y       z     vdW  Elec       q    Type
REMARK                         _______ _______ _______ _____ _____    ______ ____
ROOT
ATOM      1  C   UNL     1       0.156  -4.341  -0.057  0.00  0.00    +0.167 C 
ATOM      2  C   UNL     1      -1.130  -4.807   0.571  0.00  0.00    +0.028 C 
ATOM      3  C   UNL     1      -1.206  -5.293   1.803  0.00  0.00    +0.043 C 
ATOM      4  N   UNL     1      -0.077  -5.418   2.624  0.00  0.00    -0.259 N 
ATOM      5  C   UNL     1       1.162  -5.262   2.021  0.00  0.00    +0.243 A 
ATOM      6  N   UNL     1       1.284  -4.764   0.763  0.00  0.00    -0.202 N 
ATOM      7  N   UNL     1       2.652  -4.763   0.495  0.00  0.00    -0.042 NA
ATOM      8  N   UNL     1       3.234  -5.230   1.553  0.00  0.00    -0.021 NA
ATOM      9  N   UNL     1       2.362  -5.523   2.453  0.00  0.00    -0.092 NA
ENDROOT
BRANCH   1  14
ATOM     10  C   UNL     1       0.119   1.424  -0.456  0.00  0.00    +0.044 C 
ATOM     11  C   UNL     1       0.129  -0.079  -0.352  0.00  0.00    -0.050 A 
ATOM     12  C   UNL     1       0.241  -0.850  -1.494  0.00  0.00    +0.004 A 
ATOM     13  C   UNL     1       0.250  -2.229  -1.398  0.00  0.00    +0.006 A 
ATOM     14  C   UNL     1       0.147  -2.837  -0.161  0.00  0.00    -0.019 A 
ATOM     15  C   UNL     1       0.036  -2.066   0.981  0.00  0.00    +0.006 A 
ATOM     16  C   UNL     1       0.031  -0.687   0.886  0.00  0.00    +0.004 A 
ENDBRANCH   1  14
BRANCH   3  17
ATOM     17  C   UNL     1      -2.525  -5.716   2.327  0.00  0.00    -0.004 A 
ATOM     18  C   UNL     1      -3.617  -4.853   2.252  0.00  0.00    +0.010 A 
ATOM     19  C   UNL     1      -4.844  -5.252   2.742  0.00  0.00    +0.004 A 
ATOM     20  C   UNL     1      -4.990  -6.506   3.307  0.00  0.00    -0.050 A 
ATOM     21  C   UNL     1      -3.910  -7.367   3.385  0.00  0.00    +0.004 A 
ATOM     22  C   UNL     1      -2.680  -6.981   2.893  0.00  0.00    +0.010 A 
ATOM     23  C   UNL     1      -6.332  -6.937   3.841  0.00  0.00    +0.044 C 
ENDBRANCH   3  17
BRANCH   4  24
ATOM     24  C   UNL     1      -0.200  -5.700   4.056  0.00  0.00    +0.209 C 
BRANCH  24  25
ATOM     25  C   UNL     1      -0.045  -7.181   4.291  0.00  0.00    +0.231 C 
ATOM     26  O   UNL     1       0.255  -7.913   3.372  0.00  0.00    -0.274 OA
ATOM     27  N   UNL     1      -0.240  -7.691   5.523  0.00  0.00    -0.310 N 
ATOM     28  H   UNL     1      -0.480  -7.105   6.258  0.00  0.00    +0.149 HD
BRANCH  27  29
ATOM     29  C   UNL     1      -0.090  -9.130   5.752  0.00  0.00    +0.139 C 
BRANCH  29  30
ATOM     30  C   UNL     1      -0.360  -9.439   7.202  0.00  0.00    -0.030 A 
ATOM     31  C   UNL     1       0.674  -9.414   8.119  0.00  0.00    +0.005 A 
ATOM     32  C   UNL     1       0.426  -9.698   9.449  0.00  0.00    +0.000 A 
ATOM     33  C   UNL     1      -0.856 -10.005   9.863  0.00  0.00    +0.000 A 
ATOM     34  C   UNL     1      -1.891 -10.029   8.946  0.00  0.00    +0.000 A 
ATOM     35  C   UNL     1      -1.644  -9.742   7.617  0.00  0.00    +0.005 A 
ENDBRANCH  29  30
ENDBRANCH  27  29
ENDBRANCH  24  25
ENDBRANCH   4  24
TORSDOF 6
