REMARK  Name = ZINC20807573
REMARK  5 active torsions:
REMARK  status: ('A' for Active; 'I' for Inactive)
REMARK    1  A    between atoms: C_1  and  C_2
REMARK    2  A    between atoms: C_5  and  S_15
REMARK    3  A    between atoms: N_6  and  C_9
REMARK    4  A    between atoms: S_15  and  C_16
REMARK    5  A    between atoms: C_16  and  C_17
REMARK                            x       y       z     vdW  Elec       q    Type
REMARK                         _______ _______ _______ _____ _____    ______ ____
ROOT
ATOM      1  C   UNL     1       7.450  -6.215  -1.109  0.00  0.00    +0.055 C 
ATOM      2  C   UNL     1       7.152  -4.842  -0.564  0.00  0.00    +0.080 A 
ATOM      3  C   UNL     1       5.903  -4.547  -0.043  0.00  0.00    +0.281 A 
ATOM      4  N   UNL     1       5.657  -3.327   0.442  0.00  0.00    -0.184 NA
ATOM      5  C   UNL     1       6.580  -2.386   0.425  0.00  0.00    +0.180 A 
ATOM      6  N   UNL     1       7.822  -2.623  -0.087  0.00  0.00    -0.256 N 
ATOM      7  C   UNL     1       8.130  -3.841  -0.579  0.00  0.00    +0.266 A 
ATOM      8  O   UNL     1       9.240  -4.064  -1.035  0.00  0.00    -0.267 OA
ATOM      9  O   UNL     1       4.938  -5.496  -0.014  0.00  0.00    -0.265 OA
ENDROOT
BRANCH   6  10
ATOM     10  C   UNL     1       8.781  -1.601  -0.096  0.00  0.00    +0.052 A 
ATOM     11  C   UNL     1       8.880  -0.749  -1.187  0.00  0.00    +0.026 A 
ATOM     12  C   UNL     1       9.822   0.260  -1.191  0.00  0.00    +0.002 A 
ATOM     13  C   UNL     1      10.675   0.415  -0.113  0.00  0.00    +0.000 A 
ATOM     14  C   UNL     1      10.583  -0.435   0.973  0.00  0.00    +0.002 A 
ATOM     15  C   UNL     1       9.639  -1.443   0.985  0.00  0.00    +0.026 A 
ENDBRANCH   6  10
BRANCH   5  16
ATOM     16  S   UNL     1       6.202  -0.793   1.076  0.00  0.00    -0.078 S 
BRANCH  16  17
ATOM     17  C   UNL     1       4.487  -1.062   1.589  0.00  0.00    +0.173 C 
BRANCH  17  18
ATOM     18  C   UNL     1       3.939   0.205   2.194  0.00  0.00    +0.230 C 
ATOM     19  O   UNL     1       4.640   1.193   2.271  0.00  0.00    -0.274 OA
ATOM     20  N   UNL     1       2.671   0.241   2.650  0.00  0.00    -0.270 N 
ATOM     21  C   UNL     1       2.030   1.411   3.255  0.00  0.00    +0.118 C 
ATOM     22  C   UNL     1       0.604   0.953   3.606  0.00  0.00    +0.056 C 
ATOM     23  C   UNL     1       0.547  -0.490   3.156  0.00  0.00    -0.024 A 
ATOM     24  C   UNL     1       1.776  -0.832   2.614  0.00  0.00    +0.040 A 
ATOM     25  C   UNL     1       1.965  -2.126   2.125  0.00  0.00    +0.024 A 
ATOM     26  C   UNL     1       0.941  -3.048   2.184  0.00  0.00    +0.002 A 
ATOM     27  C   UNL     1      -0.281  -2.696   2.726  0.00  0.00    +0.000 A 
ATOM     28  C   UNL     1      -0.476  -1.417   3.212  0.00  0.00    +0.005 A 
ENDBRANCH  17  18
ENDBRANCH  16  17
ENDBRANCH   5  16
TORSDOF 4
