REMARK  Name = ZINC40322747
REMARK  11 active torsions:
REMARK  status: ('A' for Active; 'I' for Inactive)
REMARK    1  A    between atoms: C_1  and  C_2
REMARK    2  A    between atoms: C_5  and  S_8
REMARK    3  A    between atoms: S_8  and  C_11
REMARK    4  A    between atoms: C_14  and  C_16
REMARK    5  A    between atoms: N_18  and  C_19
REMARK    6  A    between atoms: C_19  and  C_20
REMARK    7  A    between atoms: C_20  and  C_22
REMARK    8  A    between atoms: C_20  and  N_31
REMARK    9  A    between atoms: C_25  and  C_28
REMARK   10  A    between atoms: C_28  and  C_29
REMARK   11  A    between atoms: C_28  and  C_30
REMARK                            x       y       z     vdW  Elec       q    Type
REMARK                         _______ _______ _______ _____ _____    ______ ____
ROOT
ATOM      1  C   UNL     1       6.868  -7.881  -2.522  0.00  0.00    +0.279 C 
ATOM      2  O   UNL     1       7.140  -7.024  -1.701  0.00  0.00    -0.267 OA
ATOM      3  N   UNL     1       6.277  -7.538  -3.683  0.00  0.00    -0.310 N 
ATOM      4  H   UNL     1       6.060  -8.221  -4.337  0.00  0.00    +0.149 HD
ENDROOT
BRANCH   1   8
ATOM      5  C   UNL     1       7.359 -11.460  -2.485  0.00  0.00    +0.246 A 
ATOM      6  C   UNL     1       7.887 -11.158  -1.278  0.00  0.00    +0.070 A 
ATOM      7  C   UNL     1       7.779  -9.768  -1.116  0.00  0.00    +0.056 A 
ATOM      8  C   UNL     1       7.184  -9.286  -2.246  0.00  0.00    +0.192 A 
ATOM      9  O   UNL     1       6.941 -10.329  -3.067  0.00  0.00    -0.433 OA
BRANCH   5  10
ATOM     10  S   UNL     1       7.247 -13.075  -3.181  0.00  0.00    +0.058 S 
ATOM     11  O   UNL     1       8.252 -13.858  -2.553  0.00  0.00    -0.161 OA
ATOM     12  O   UNL     1       7.181 -12.906  -4.590  0.00  0.00    -0.161 OA
BRANCH  10  17
ATOM     13  C   UNL     1       1.942 -15.390  -1.475  0.00  0.00    +0.044 C 
ATOM     14  C   UNL     1       3.267 -14.812  -1.901  0.00  0.00    -0.050 A 
ATOM     15  C   UNL     1       3.360 -14.088  -3.075  0.00  0.00    +0.005 A 
ATOM     16  C   UNL     1       4.575 -13.557  -3.466  0.00  0.00    +0.028 A 
ATOM     17  C   UNL     1       5.698 -13.750  -2.682  0.00  0.00    +0.097 A 
ATOM     18  C   UNL     1       5.605 -14.473  -1.508  0.00  0.00    +0.028 A 
ATOM     19  C   UNL     1       4.389 -15.000  -1.115  0.00  0.00    +0.005 A 
ENDBRANCH  10  17
ENDBRANCH   5  10
ENDBRANCH   1   8
BRANCH   3  20
ATOM     20  C   UNL     1       5.961  -6.134  -3.958  0.00  0.00    +0.094 C 
BRANCH  20  21
ATOM     21  C   UNL     1       5.424  -6.002  -5.385  0.00  0.00    -0.020 C 
BRANCH  21  22
ATOM     22  C   UNL     1       6.513  -6.354  -6.366  0.00  0.00    -0.059 A 
ATOM     23  C   UNL     1       7.488  -5.427  -6.678  0.00  0.00    +0.002 A 
ATOM     24  C   UNL     1       8.487  -5.750  -7.578  0.00  0.00    +0.004 A 
ATOM     25  C   UNL     1       8.509  -7.001  -8.165  0.00  0.00    -0.045 A 
ATOM     26  C   UNL     1       7.534  -7.929  -7.852  0.00  0.00    +0.004 A 
ATOM     27  C   UNL     1       6.538  -7.608  -6.949  0.00  0.00    +0.002 A 
BRANCH  25  28
ATOM     28  C   UNL     1       9.597  -7.353  -9.147  0.00  0.00    +0.013 C 
ATOM     29  C   UNL     1      10.386  -8.556  -8.624  0.00  0.00    +0.012 C 
ATOM     30  C   UNL     1       8.971  -7.702 -10.498  0.00  0.00    +0.012 C 
ENDBRANCH  25  28
ENDBRANCH  21  22
BRANCH  21  31
ATOM     31  N   UNL     1       4.985  -4.620  -5.617  0.00  0.00    +0.385 N 
ATOM     32  C   UNL     1       4.446  -4.478  -6.994  0.00  0.00    -0.078 C 
ATOM     33  C   UNL     1       3.548  -3.219  -6.895  0.00  0.00    -0.020 C 
ATOM     34  C   UNL     1       2.916  -3.354  -5.491  0.00  0.00    -0.020 C 
ATOM     35  C   UNL     1       3.867  -4.281  -4.710  0.00  0.00    -0.078 C 
ATOM     36  H   UNL     1       5.753  -3.982  -5.475  0.00  0.00    -0.081 HD
ENDBRANCH  21  31
ENDBRANCH  20  21
ENDBRANCH   3  20
TORSDOF 8
