REMARK  Name = ZINC64871019
REMARK  7 active torsions:
REMARK  status: ('A' for Active; 'I' for Inactive)
REMARK    1  A    between atoms: C_1  and  C_2
REMARK    2  A    between atoms: C_2  and  O_3
REMARK    3  A    between atoms: O_3  and  C_4
REMARK    4  A    between atoms: C_9  and  C_10
REMARK    5  A    between atoms: C_13  and  C_17
REMARK    6  A    between atoms: N_27  and  C_30
REMARK    7  A    between atoms: C_30  and  C_31
REMARK                            x       y       z     vdW  Elec       q    Type
REMARK                         _______ _______ _______ _____ _____    ______ ____
ROOT
ATOM      1  C   UNL     1       5.251  -1.045  -5.010  0.00  0.00    -0.000 A 
ATOM      2  C   UNL     1       4.749  -1.202  -6.293  0.00  0.00    +0.008 A 
ATOM      3  C   UNL     1       5.591  -1.144  -7.384  0.00  0.00    +0.016 A 
ATOM      4  C   UNL     1       6.952  -0.926  -7.188  0.00  0.00    +0.063 A 
ATOM      5  C   UNL     1       7.460  -0.767  -5.887  0.00  0.00    +0.056 A 
ATOM      6  C   UNL     1       6.598  -0.824  -4.803  0.00  0.00    +0.034 A 
ATOM      7  N   UNL     1       8.821  -0.551  -5.723  0.00  0.00    -0.307 N 
ATOM      8  H   UNL     1       9.185  -0.441  -4.831  0.00  0.00    +0.170 HD
ATOM      9  C   UNL     1       9.639  -0.495  -6.788  0.00  0.00    +0.330 A 
ATOM     10  O   UNL     1      10.825  -0.304  -6.601  0.00  0.00    -0.246 OA
ATOM     11  N   UNL     1       9.202  -0.640  -8.049  0.00  0.00    -0.256 N 
ATOM     12  C   UNL     1       7.896  -0.855  -8.319  0.00  0.00    +0.265 A 
ATOM     13  O   UNL     1       7.509  -0.985  -9.464  0.00  0.00    -0.267 OA
ENDROOT
BRANCH   1  16
ATOM     14  C   UNL     1       1.990  -1.397  -3.491  0.00  0.00    +0.184 C 
ATOM     15  N   UNL     1       3.177  -2.011  -4.124  0.00  0.00    -0.265 NA
ATOM     16  C   UNL     1       4.316  -1.112  -3.830  0.00  0.00    +0.242 C 
ATOM     17  O   UNL     1       3.712   0.179  -3.589  0.00  0.00    -0.274 OA
ATOM     18  N   UNL     1       2.473  -0.151  -2.849  0.00  0.00    -0.177 NA
ATOM     19  H   UNL     1       3.343  -2.937  -3.759  0.00  0.00    +0.127 HD
ATOM     20  H   UNL     1       1.791   0.587  -2.935  0.00  0.00    +0.156 HD
BRANCH  14  26
ATOM     21  C   UNL     1       0.458  -3.264  -2.818  0.00  0.00    +0.126 A 
ATOM     22  C   UNL     1      -0.067  -4.122  -1.862  0.00  0.00    +0.046 A 
ATOM     23  C   UNL     1       0.360  -4.038  -0.551  0.00  0.00    +0.004 A 
ATOM     24  C   UNL     1       1.309  -3.099  -0.191  0.00  0.00    +0.001 A 
ATOM     25  C   UNL     1       1.833  -2.243  -1.141  0.00  0.00    +0.010 A 
ATOM     26  C   UNL     1       1.414  -2.327  -2.455  0.00  0.00    +0.028 A 
BRANCH  21  27
ATOM     27  O   UNL     1       0.040  -3.345  -4.108  0.00  0.00    -0.492 OA
BRANCH  27  29
ATOM     28  C   UNL     1      -1.288  -4.276  -5.900  0.00  0.00    +0.048 C 
ATOM     29  C   UNL     1      -0.946  -4.334  -4.410  0.00  0.00    +0.225 C 
ENDBRANCH  27  29
ENDBRANCH  21  27
ENDBRANCH  14  26
ENDBRANCH   1  16
BRANCH  11  30
ATOM     30  C   UNL     1      10.161  -0.565  -9.154  0.00  0.00    +0.165 C 
BRANCH  30  31
ATOM     31  C   UNL     1      10.701  -1.941  -9.445  0.00  0.00    -0.024 A 
ATOM     32  C   UNL     1      11.834  -2.390  -8.791  0.00  0.00    +0.009 A 
ATOM     33  C   UNL     1      12.333  -3.651  -9.054  0.00  0.00    +0.050 A 
ATOM     34  C   UNL     1      11.700  -4.470  -9.975  0.00  0.00    +0.166 A 
ATOM     35  C   UNL     1      10.559  -4.018 -10.634  0.00  0.00    +0.167 A 
ATOM     36  C   UNL     1      10.061  -2.754 -10.361  0.00  0.00    +0.055 A 
ATOM     37  O   UNL     1      10.127  -4.998 -11.480  0.00  0.00    -0.453 OA
ATOM     38  C   UNL     1      11.245  -5.893 -11.635  0.00  0.00    +0.466 C 
ATOM     39  O   UNL     1      11.983  -5.733 -10.409  0.00  0.00    -0.453 OA
ENDBRANCH  30  31
ENDBRANCH  11  30
TORSDOF 6
