REMARK  Name = ZINC35840645
REMARK  17 active torsions:
REMARK  status: ('A' for Active; 'I' for Inactive)
REMARK    1  A    between atoms: C_1  and  C_2
REMARK    2  A    between atoms: C_2  and  C_3
REMARK    3  A    between atoms: C_2  and  C_4
REMARK    4  A    between atoms: C_2  and  C_5
REMARK    5  A    between atoms: C_8  and  C_11
REMARK    6  A    between atoms: C_11  and  N_12
REMARK    7  A    between atoms: C_16  and  C_17
REMARK    8  A    between atoms: C_17  and  N_18
REMARK    9  A    between atoms: N_18  and  C_19
REMARK   10  A    between atoms: N_18  and  C_33
REMARK   11  A    between atoms: C_19  and  C_20
REMARK   12  A    between atoms: C_20  and  C_22
REMARK   13  A    between atoms: C_20  and  O_32
REMARK   14  A    between atoms: C_22  and  O_23
REMARK   15  A    between atoms: O_23  and  C_24
REMARK   16  A    between atoms: C_27  and  O_30
REMARK   17  A    between atoms: O_30  and  C_31
REMARK                            x       y       z     vdW  Elec       q    Type
REMARK                         _______ _______ _______ _____ _____    ______ ____
ROOT
ATOM      1  N   UNL     1       4.003   1.230  -4.162  0.00  0.00    +0.387 N 
ATOM      2  H   UNL     1       3.200   1.688  -4.566  0.00  0.00    -0.081 HD
ENDROOT
BRANCH   1   3
ATOM      3  C   UNL     1       3.554   0.187  -3.229  0.00  0.00    -0.068 C 
ATOM      4  C   UNL     1       4.763  -0.607  -2.731  0.00  0.00    -0.015 C 
ATOM      5  C   UNL     1       4.295  -1.693  -1.760  0.00  0.00    -0.002 C 
ATOM      6  C   UNL     1       3.327  -2.635  -2.477  0.00  0.00    -0.000 C 
ATOM      7  C   UNL     1       2.117  -1.842  -2.975  0.00  0.00    -0.002 C 
ATOM      8  C   UNL     1       2.585  -0.756  -3.946  0.00  0.00    -0.015 C 
ENDBRANCH   1   3
BRANCH   1   9
ATOM      9  C   UNL     1       4.807   0.619  -5.229  0.00  0.00    -0.024 C 
BRANCH   9  14
ATOM     10  N   UNL     1       6.273   1.648  -7.053  0.00  0.00    -0.348 N 
ATOM     11  C   UNL     1       6.263   2.765  -7.835  0.00  0.00    +0.086 A 
ATOM     12  C   UNL     1       5.172   3.492  -7.517  0.00  0.00    +0.019 A 
ATOM     13  C   UNL     1       4.484   2.797  -6.502  0.00  0.00    +0.021 A 
ATOM     14  C   UNL     1       5.177   1.670  -6.243  0.00  0.00    +0.003 A 
BRANCH  10  15
ATOM     15  C   UNL     1       7.291   0.594  -7.084  0.00  0.00    +0.156 C 
BRANCH  15  19
ATOM     16  C   UNL     1       5.969  -2.591  -9.606  0.00  0.00    -0.042 A 
ATOM     17  C   UNL     1       6.735  -1.566 -10.130  0.00  0.00    +0.004 A 
ATOM     18  C   UNL     1       7.163  -0.535  -9.314  0.00  0.00    +0.005 A 
ATOM     19  C   UNL     1       6.824  -0.529  -7.974  0.00  0.00    -0.028 A 
ATOM     20  C   UNL     1       6.057  -1.553  -7.450  0.00  0.00    +0.005 A 
ATOM     21  C   UNL     1       5.626  -2.581  -8.267  0.00  0.00    +0.004 A 
BRANCH  16  23
ATOM     22  C   UNL     1       3.977  -3.683 -10.600  0.00  0.00    +0.015 C 
ATOM     23  C   UNL     1       5.503  -3.714 -10.496  0.00  0.00    -0.013 C 
ATOM     24  C   UNL     1       5.946  -5.053  -9.902  0.00  0.00    +0.015 C 
ATOM     25  C   UNL     1       6.113  -3.548 -11.889  0.00  0.00    +0.015 C 
ENDBRANCH  16  23
ENDBRANCH  15  19
ENDBRANCH  10  15
ENDBRANCH   9  14
ENDBRANCH   1   9
BRANCH   1  26
ATOM     26  C   UNL     1       4.817   2.216  -3.438  0.00  0.00    -0.043 C 
BRANCH  26  27
ATOM     27  C   UNL     1       3.944   2.946  -2.416  0.00  0.00    +0.135 C 
BRANCH  27  28
ATOM     28  O   UNL     1       2.880   3.619  -3.093  0.00  0.00    -0.390 OA
ATOM     29  H   UNL     1       3.176   4.276  -3.737  0.00  0.00    +0.210 HD
ENDBRANCH  27  28
BRANCH  27  30
ATOM     30  C   UNL     1       4.793   3.969  -1.659  0.00  0.00    +0.258 C 
BRANCH  30  31
ATOM     31  O   UNL     1       4.008   4.569  -0.627  0.00  0.00    -0.489 OA
BRANCH  31  32
ATOM     32  C   UNL     1       4.618   5.508   0.146  0.00  0.00    +0.121 A 
ATOM     33  C   UNL     1       5.942   5.847  -0.090  0.00  0.00    +0.049 A 
ATOM     34  C   UNL     1       6.561   6.800   0.695  0.00  0.00    +0.049 A 
ATOM     35  C   UNL     1       5.858   7.418   1.718  0.00  0.00    +0.120 A 
ATOM     36  C   UNL     1       4.534   7.080   1.954  0.00  0.00    +0.049 A 
ATOM     37  C   UNL     1       3.914   6.130   1.166  0.00  0.00    +0.049 A 
BRANCH  35  38
ATOM     38  O   UNL     1       6.468   8.356   2.492  0.00  0.00    -0.495 OA
ATOM     39  C   UNL     1       5.685   8.952   3.528  0.00  0.00    +0.277 C 
ENDBRANCH  35  38
ENDBRANCH  31  32
ENDBRANCH  30  31
ENDBRANCH  27  30
ENDBRANCH  26  27
ENDBRANCH   1  26
TORSDOF 13
