REMARK  Name = ZINC37632946
REMARK  8 active torsions:
REMARK  status: ('A' for Active; 'I' for Inactive)
REMARK    1  A    between atoms: C_3  and  N_23
REMARK    2  A    between atoms: C_6  and  N_7
REMARK    3  A    between atoms: N_7  and  N_8
REMARK    4  A    between atoms: N_9  and  C_10
REMARK    5  A    between atoms: C_12  and  N_20
REMARK    6  A    between atoms: C_15  and  S_16
REMARK    7  A    between atoms: N_24  and  C_25
REMARK    8  A    between atoms: C_28  and  S_31
REMARK                            x       y       z     vdW  Elec       q    Type
REMARK                         _______ _______ _______ _____ _____    ______ ____
ROOT
ATOM      1  C   UNL     1      -0.017   1.388   0.010  0.00  0.00    +0.027 A 
ATOM      2  C   UNL     1       1.165   2.094   0.002  0.00  0.00    +0.031 A 
ATOM      3  C   UNL     1       2.386   1.411  -0.013  0.00  0.00    +0.086 A 
ATOM      4  C   UNL     1       2.401   0.012  -0.021  0.00  0.00    +0.031 A 
ATOM      5  C   UNL     1       1.215  -0.687  -0.013  0.00  0.00    +0.027 A 
ATOM      6  C   UNL     1       0.002  -0.004   0.002  0.00  0.00    +0.050 A 
ENDROOT
BRANCH   6   7
ATOM      7  N   UNL     1      -1.196  -0.715   0.010  0.00  0.00    -0.219 N 
ATOM      8  H   UNL     1      -2.042  -0.240   0.020  0.00  0.00    +0.176 HD
BRANCH   7   9
ATOM      9  N   UNL     1      -1.179  -2.116   0.002  0.00  0.00    -0.076 NA
ATOM     10  N   UNL     1      -2.288  -2.775   0.009  0.00  0.00    -0.132 NA
BRANCH  10  11
ATOM     11  C   UNL     1      -2.272  -4.146   0.001  0.00  0.00    +0.117 A 
ATOM     12  C   UNL     1      -1.056  -4.832  -0.008  0.00  0.00    +0.064 A 
ATOM     13  C   UNL     1      -1.046  -6.211  -0.016  0.00  0.00    +0.128 A 
ATOM     14  C   UNL     1      -2.238  -6.915  -0.014  0.00  0.00    +0.035 A 
ATOM     15  C   UNL     1      -3.446  -6.241  -0.004  0.00  0.00    +0.034 A 
ATOM     16  C   UNL     1      -3.470  -4.861   0.009  0.00  0.00    +0.147 A 
BRANCH  16  17
ATOM     17  S   UNL     1      -5.009  -4.005   0.028  0.00  0.00    +0.142 S 
ATOM     18  O   UNL     1      -5.392  -3.792  -1.359  0.00  0.00    -0.140 OA
ATOM     19  O   UNL     1      -5.958  -4.856   0.729  0.00  0.00    -0.140 OA
ATOM     20  O   UNL     1      -4.786  -2.749   0.729  0.00  0.00    -0.043 OA
ENDBRANCH  16  17
BRANCH  13  21
ATOM     21  N   UNL     1       0.242  -6.941  -0.026  0.00  0.00    +0.056 N 
ATOM     22  O   UNL     1       1.284  -6.328  -0.028  0.00  0.00    -0.126 OA
ATOM     23  O   UNL     1       0.252  -8.150  -0.033  0.00  0.00    -0.126 OA
ENDBRANCH  13  21
ENDBRANCH  10  11
ENDBRANCH   7   9
ENDBRANCH   6   7
BRANCH   3  24
ATOM     24  N   UNL     1       3.559   2.107  -0.021  0.00  0.00    -0.149 NA
ATOM     25  N   UNL     1       4.684   1.476  -0.035  0.00  0.00    -0.149 NA
BRANCH  25  26
ATOM     26  C   UNL     1       5.859   2.174  -0.043  0.00  0.00    +0.086 A 
ATOM     27  C   UNL     1       5.846   3.571  -0.030  0.00  0.00    +0.031 A 
ATOM     28  C   UNL     1       7.036   4.269  -0.038  0.00  0.00    +0.032 A 
ATOM     29  C   UNL     1       8.241   3.588  -0.058  0.00  0.00    +0.120 A 
ATOM     30  C   UNL     1       8.262   2.204  -0.071  0.00  0.00    +0.032 A 
ATOM     31  C   UNL     1       7.080   1.493  -0.058  0.00  0.00    +0.031 A 
BRANCH  29  32
ATOM     32  S   UNL     1       9.756   4.487  -0.068  0.00  0.00    +0.140 S 
ATOM     33  O   UNL     1      10.726   3.672  -0.783  0.00  0.00    -0.140 OA
ATOM     34  O   UNL     1       9.496   5.746  -0.750  0.00  0.00    -0.140 OA
ATOM     35  O   UNL     1      10.136   4.691   1.321  0.00  0.00    -0.043 OA
ENDBRANCH  29  32
ENDBRANCH  25  26
ENDBRANCH   3  24
TORSDOF 8
