REMARK  Name = ZINC47138820
REMARK  12 active torsions:
REMARK  status: ('A' for Active; 'I' for Inactive)
REMARK    1  A    between atoms: C_1  and  C_2
REMARK    2  A    between atoms: C_2  and  C_10
REMARK    3  A    between atoms: C_3  and  C_4
REMARK    4  A    between atoms: N_11  and  N_12
REMARK    5  A    between atoms: N_14  and  C_31
REMARK    6  A    between atoms: C_18  and  C_19
REMARK    7  A    between atoms: C_21  and  O_28
REMARK    8  A    between atoms: C_22  and  O_27
REMARK    9  A    between atoms: C_23  and  O_25
REMARK   10  A    between atoms: O_25  and  C_26
REMARK   11  A    between atoms: O_28  and  C_29
REMARK   12  A    between atoms: C_31  and  C_32
REMARK                            x       y       z     vdW  Elec       q    Type
REMARK                         _______ _______ _______ _____ _____    ______ ____
ROOT
ATOM      1  N   UNL     1       2.184  -1.773  -1.899  0.00  0.00    -0.126 NA
ATOM      2  C   UNL     1       2.158  -0.949  -2.930  0.00  0.00    +0.190 C 
ATOM      3  N   UNL     1       1.816  -1.221  -4.235  0.00  0.00    -0.237 N 
ATOM      4  C   UNL     1       1.845  -0.270  -5.153  0.00  0.00    +0.259 C 
ATOM      5  O   UNL     1       1.545  -0.493  -6.311  0.00  0.00    -0.269 OA
ATOM      6  C   UNL     1       2.257   1.075  -4.709  0.00  0.00    +0.078 C 
ATOM      7  C   UNL     1       2.375   2.222  -5.428  0.00  0.00    +0.028 C 
ATOM      8  S   UNL     1       2.553   0.792  -2.970  0.00  0.00    -0.047 S 
ENDROOT
BRANCH   7   9
ATOM      9  C   UNL     1       2.958   3.419  -4.811  0.00  0.00    -0.017 A 
ATOM     10  C   UNL     1       3.724   3.305  -3.644  0.00  0.00    +0.057 A 
ATOM     11  C   UNL     1       4.272   4.434  -3.066  0.00  0.00    +0.166 A 
ATOM     12  C   UNL     1       4.062   5.685  -3.642  0.00  0.00    +0.201 A 
ATOM     13  C   UNL     1       3.301   5.803  -4.802  0.00  0.00    +0.166 A 
ATOM     14  C   UNL     1       2.755   4.678  -5.389  0.00  0.00    +0.057 A 
BRANCH  13  15
ATOM     15  O   UNL     1       3.099   7.027  -5.360  0.00  0.00    -0.491 OA
ATOM     16  C   UNL     1       2.308   7.075  -6.549  0.00  0.00    +0.277 C 
ENDBRANCH  13  15
BRANCH  12  17
ATOM     17  O   UNL     1       4.603   6.794  -3.069  0.00  0.00    -0.501 OA
ATOM     18  H   UNL     1       5.488   7.011  -3.392  0.00  0.00    +0.292 HD
ENDBRANCH  12  17
BRANCH  11  19
ATOM     19  O   UNL     1       5.016   4.324  -1.933  0.00  0.00    -0.491 OA
ATOM     20  C   UNL     1       5.190   3.012  -1.395  0.00  0.00    +0.277 C 
ENDBRANCH  11  19
ENDBRANCH   7   9
BRANCH   1  22
ATOM     21  C   UNL     1       1.889  -3.832  -1.031  0.00  0.00    +0.138 C 
ATOM     22  N   UNL     1       1.863  -3.013  -2.056  0.00  0.00    -0.155 NA
BRANCH  21  24
ATOM     23  C   UNL     1       3.047  -2.036   0.319  0.00  0.00    +0.045 C 
ATOM     24  C   UNL     1       2.415  -3.399   0.205  0.00  0.00    -0.030 C 
ATOM     25  C   UNL     1       2.351  -4.209   1.287  0.00  0.00    +0.012 C 
BRANCH  25  26
ATOM     26  C   UNL     1       2.757  -3.704   2.607  0.00  0.00    -0.025 A 
ATOM     27  C   UNL     1       3.458  -4.531   3.491  0.00  0.00    +0.008 A 
ATOM     28  C   UNL     1       3.835  -4.050   4.727  0.00  0.00    +0.001 A 
ATOM     29  C   UNL     1       3.522  -2.753   5.095  0.00  0.00    +0.000 A 
ATOM     30  C   UNL     1       2.829  -1.928   4.226  0.00  0.00    +0.001 A 
ATOM     31  C   UNL     1       2.450  -2.392   2.984  0.00  0.00    +0.008 A 
ENDBRANCH  25  26
ENDBRANCH  21  24
ENDBRANCH   1  22
BRANCH   3  32
ATOM     32  C   UNL     1       1.415  -2.579  -4.611  0.00  0.00    +0.190 C 
BRANCH  32  33
ATOM     33  C   UNL     1      -0.077  -2.725  -4.452  0.00  0.00    +0.123 A 
ATOM     34  C   UNL     1      -0.997  -2.478  -5.401  0.00  0.00    +0.046 A 
ATOM     35  C   UNL     1      -2.261  -2.743  -4.825  0.00  0.00    +0.041 A 
ATOM     36  C   UNL     1      -2.037  -3.135  -3.558  0.00  0.00    +0.195 A 
ATOM     37  O   UNL     1      -0.712  -3.128  -3.339  0.00  0.00    -0.466 OA
ENDBRANCH  32  33
ENDBRANCH   3  32
TORSDOF 9
