REMARK  Name = ZINC64540694
REMARK  9 active torsions:
REMARK  status: ('A' for Active; 'I' for Inactive)
REMARK    1  A    between atoms: C_1  and  C_2
REMARK    2  A    between atoms: C_2  and  C_4
REMARK    3  A    between atoms: C_2  and  C_22
REMARK    4  A    between atoms: C_10  and  C_12
REMARK    5  A    between atoms: N_24  and  C_25
REMARK    6  A    between atoms: C_25  and  C_26
REMARK    7  A    between atoms: C_29  and  N_32
REMARK    8  A    between atoms: N_32  and  C_33
REMARK    9  A    between atoms: N_32  and  C_34
REMARK                            x       y       z     vdW  Elec       q    Type
REMARK                         _______ _______ _______ _____ _____    ______ ____
ROOT
ATOM      1  C   UNL     1       0.770  -0.485   1.239  0.00  0.00    +0.004 C 
ATOM      2  C   UNL     1       0.065   0.024   2.498  0.00  0.00    +0.023 C 
ATOM      3  C   UNL     1       0.829  -0.457   3.736  0.00  0.00    +0.108 C 
ATOM      4  N   UNL     1       0.966  -1.919   3.669  0.00  0.00    -0.300 N 
ATOM      5  C   UNL     1       1.548  -2.519   2.461  0.00  0.00    +0.108 C 
ATOM      6  C   UNL     1       0.776  -2.015   1.238  0.00  0.00    +0.023 C 
ATOM      7  C   UNL     1       0.564  -2.693   4.696  0.00  0.00    +0.242 C 
ATOM      8  O   UNL     1       0.085  -2.185   5.688  0.00  0.00    -0.273 OA
ENDROOT
BRANCH   7   9
ATOM      9  C   UNL     1       0.710  -4.191   4.613  0.00  0.00    +0.190 C 
ATOM     10  C   UNL     1      -0.123  -4.733   3.473  0.00  0.00    +0.016 C 
ATOM     11  C   UNL     1      -1.018  -5.579   4.033  0.00  0.00    -0.004 A 
ATOM     12  C   UNL     1      -2.089  -6.409   3.469  0.00  0.00    +0.010 A 
ATOM     13  C   UNL     1      -2.837  -7.169   4.300  0.00  0.00    +0.001 A 
ATOM     14  C   UNL     1      -2.615  -7.184   5.684  0.00  0.00    +0.002 A 
ATOM     15  C   UNL     1      -1.650  -6.449   6.276  0.00  0.00    +0.026 A 
ATOM     16  C   UNL     1      -0.804  -5.613   5.497  0.00  0.00    +0.043 A 
ATOM     17  N   UNL     1       0.186  -4.819   5.831  0.00  0.00    -0.370 N 
ATOM     18  H   UNL     1       0.517  -4.671   6.731  0.00  0.00    +0.161 HD
ENDBRANCH   7   9
BRANCH   1  20
ATOM     19  C   UNL     1       0.023   1.552   0.000  0.00  0.00    +0.017 C 
ATOM     20  C   UNL     1       0.029   0.022   0.000  0.00  0.00    +0.075 C 
BRANCH  20  21
ATOM     21  C   UNL     1       0.724  -0.477  -1.240  0.00  0.00    +0.216 C 
ATOM     22  O   UNL     1       1.714  -1.170  -1.143  0.00  0.00    -0.276 OA
ATOM     23  N   UNL     1       0.245  -0.153  -2.458  0.00  0.00    -0.311 N 
ATOM     24  H   UNL     1      -0.547   0.402  -2.536  0.00  0.00    +0.149 HD
BRANCH  23  25
ATOM     25  C   UNL     1       0.920  -0.638  -3.664  0.00  0.00    +0.139 C 
BRANCH  25  26
ATOM     26  C   UNL     1       0.190  -0.139  -4.884  0.00  0.00    -0.030 A 
ATOM     27  C   UNL     1      -0.836  -0.889  -5.429  0.00  0.00    +0.007 A 
ATOM     28  C   UNL     1      -1.506  -0.434  -6.548  0.00  0.00    +0.023 A 
ATOM     29  C   UNL     1      -1.150   0.779  -7.124  0.00  0.00    +0.029 A 
ATOM     30  C   UNL     1      -0.119   1.529  -6.574  0.00  0.00    +0.023 A 
ATOM     31  C   UNL     1       0.544   1.071  -5.452  0.00  0.00    +0.007 A 
BRANCH  29  32
ATOM     32  N   UNL     1      -1.826   1.242  -8.255  0.00  0.00    -0.336 N 
ATOM     33  C   UNL     1      -2.826   0.394  -8.909  0.00  0.00    +0.129 C 
ATOM     34  C   UNL     1      -1.535   2.575  -8.788  0.00  0.00    +0.129 C 
ENDBRANCH  29  32
ENDBRANCH  25  26
ENDBRANCH  23  25
ENDBRANCH  20  21
ENDBRANCH   1  20
TORSDOF 6
