REMARK  Name = ZINC40082274
REMARK  18 active torsions:
REMARK  status: ('A' for Active; 'I' for Inactive)
REMARK    1  A    between atoms: C_1  and  C_2
REMARK    2  A    between atoms: C_2  and  C_3
REMARK    3  A    between atoms: C_3  and  O_4
REMARK    4  A    between atoms: O_4  and  C_5
REMARK    5  A    between atoms: C_8  and  C_12
REMARK    6  A    between atoms: C_9  and  C_11
REMARK    7  A    between atoms: C_12  and  C_14
REMARK    8  A    between atoms: N_18  and  C_31
REMARK    9  A    between atoms: C_19  and  C_21
REMARK   10  A    between atoms: C_26  and  O_27
REMARK   11  A    between atoms: O_27  and  C_28
REMARK   12  A    between atoms: C_28  and  C_29
REMARK   13  A    between atoms: C_29  and  C_30
REMARK   14  A    between atoms: C_31  and  C_32
REMARK   15  A    between atoms: C_32  and  O_33
REMARK   16  A    between atoms: O_33  and  C_34
REMARK   17  A    between atoms: C_34  and  C_35
REMARK   18  A    between atoms: C_35  and  O_36
REMARK                            x       y       z     vdW  Elec       q    Type
REMARK                         _______ _______ _______ _____ _____    ______ ____
ROOT
ATOM      1  C   UNL     1       5.066  -4.566  -7.140  0.00  0.00    +0.076 C 
ATOM      2  C   UNL     1       5.798  -4.365  -8.261  0.00  0.00    +0.249 C 
ATOM      3  C   UNL     1       6.204  -2.945  -8.327  0.00  0.00    +0.288 C 
ATOM      4  O   UNL     1       6.870  -2.451  -9.214  0.00  0.00    -0.266 OA
ATOM      5  N   UNL     1       5.726  -2.281  -7.259  0.00  0.00    -0.281 N 
ATOM      6  C   UNL     1       4.973  -3.233  -6.435  0.00  0.00    +0.148 C 
ATOM      7  O   UNL     1       6.110  -5.313  -9.175  0.00  0.00    -0.282 OA
ENDROOT
BRANCH   6   8
ATOM      8  C   UNL     1       3.532  -2.804  -6.327  0.00  0.00    +0.019 A 
ATOM      9  C   UNL     1       2.640  -3.120  -7.334  0.00  0.00    +0.009 A 
ATOM     10  C   UNL     1       1.318  -2.726  -7.236  0.00  0.00    +0.001 A 
ATOM     11  C   UNL     1       0.886  -2.016  -6.130  0.00  0.00    +0.004 A 
ATOM     12  C   UNL     1       1.774  -1.698  -5.121  0.00  0.00    +0.046 A 
ATOM     13  C   UNL     1       3.100  -2.097  -5.215  0.00  0.00    +0.126 A 
BRANCH  13  14
ATOM     14  O   UNL     1       3.975  -1.791  -4.221  0.00  0.00    -0.492 OA
BRANCH  14  15
ATOM     15  C   UNL     1       3.440  -1.150  -3.061  0.00  0.00    +0.229 C 
BRANCH  15  16
ATOM     16  C   UNL     1       4.579  -0.802  -2.100  0.00  0.00    +0.038 C 
ATOM     17  C   UNL     1       3.997  -0.228  -0.806  0.00  0.00    +0.007 C 
ENDBRANCH  15  16
ENDBRANCH  14  15
ENDBRANCH  13  14
ENDBRANCH   6   8
BRANCH   1  18
ATOM     18  C   UNL     1       4.473  -5.833  -6.700  0.00  0.00    +0.195 C 
ATOM     19  O   UNL     1       4.619  -6.839  -7.368  0.00  0.00    -0.287 OA
BRANCH  18  23
ATOM     20  C   UNL     1       2.242  -5.990  -3.089  0.00  0.00    +0.121 A 
ATOM     21  C   UNL     1       1.580  -5.925  -4.311  0.00  0.00    +0.046 A 
ATOM     22  C   UNL     1       2.300  -5.874  -5.483  0.00  0.00    +0.015 A 
ATOM     23  C   UNL     1       3.697  -5.887  -5.445  0.00  0.00    +0.025 A 
ATOM     24  C   UNL     1       4.359  -5.952  -4.215  0.00  0.00    -0.036 A 
ATOM     25  C   UNL     1       3.632  -5.998  -3.046  0.00  0.00    +0.049 A 
ATOM     26  C   UNL     1       5.865  -5.967  -4.167  0.00  0.00    +0.044 C 
BRANCH  20  27
ATOM     27  O   UNL     1       1.529  -6.040  -1.935  0.00  0.00    -0.492 OA
BRANCH  27  28
ATOM     28  C   UNL     1       0.110  -6.152  -2.054  0.00  0.00    +0.229 C 
BRANCH  28  30
ATOM     29  C   UNL     1      -2.027  -6.435  -0.791  0.00  0.00    +0.007 C 
ATOM     30  C   UNL     1      -0.507  -6.315  -0.664  0.00  0.00    +0.038 C 
ENDBRANCH  28  30
ENDBRANCH  27  28
ENDBRANCH  20  27
ENDBRANCH  18  23
ENDBRANCH   1  18
BRANCH   5  31
ATOM     31  C   UNL     1       5.918  -0.857  -6.972  0.00  0.00    +0.137 C 
BRANCH  31  32
ATOM     32  C   UNL     1       5.019  -0.026  -7.890  0.00  0.00    +0.179 C 
BRANCH  32  33
ATOM     33  O   UNL     1       3.653  -0.209  -7.511  0.00  0.00    -0.376 OA
BRANCH  33  34
ATOM     34  C   UNL     1       2.743   0.671  -8.174  0.00  0.00    +0.187 C 
BRANCH  34  35
ATOM     35  C   UNL     1       1.350   0.520  -7.560  0.00  0.00    +0.184 C 
BRANCH  35  36
ATOM     36  O   UNL     1       1.366   1.006  -6.216  0.00  0.00    -0.393 OA
ATOM     37  H   UNL     1       0.514   0.941  -5.764  0.00  0.00    +0.209 HD
ENDBRANCH  35  36
ENDBRANCH  34  35
ENDBRANCH  33  34
ENDBRANCH  32  33
ENDBRANCH  31  32
ENDBRANCH   5  31
TORSDOF 15
