REMARK  Name = ZINC45834872
REMARK  6 active torsions:
REMARK  status: ('A' for Active; 'I' for Inactive)
REMARK    1  A    between atoms: C_1  and  C_2
REMARK    2  A    between atoms: C_2  and  C_4
REMARK    3  A    between atoms: C_2  and  N_14
REMARK    4  A    between atoms: C_7  and  N_10
REMARK    5  A    between atoms: C_15  and  C_17
REMARK    6  A    between atoms: C_17  and  C_18
REMARK                            x       y       z     vdW  Elec       q    Type
REMARK                         _______ _______ _______ _____ _____    ______ ____
ROOT
ATOM      1  C   UNL     1       0.162   1.539  -0.084  0.00  0.00    +0.033 C 
ATOM      2  C   UNL     1       0.000   0.020   0.013  0.00  0.00    +0.100 C 
ENDROOT
BRANCH   2   3
ATOM      3  C   UNL     1       0.730  -0.485   1.231  0.00  0.00    -0.027 A 
ATOM      4  C   UNL     1       0.143  -0.382   2.479  0.00  0.00    +0.007 A 
ATOM      5  C   UNL     1       0.809  -0.845   3.597  0.00  0.00    +0.023 A 
ATOM      6  C   UNL     1       2.069  -1.414   3.467  0.00  0.00    +0.035 A 
ATOM      7  C   UNL     1       2.655  -1.516   2.213  0.00  0.00    +0.023 A 
ATOM      8  C   UNL     1       1.982  -1.057   1.098  0.00  0.00    +0.007 A 
BRANCH   6   9
ATOM      9  N   UNL     1       2.746  -1.883   4.598  0.00  0.00    -0.270 N 
ATOM     10  C   UNL     1       2.054  -2.412   5.627  0.00  0.00    +0.301 C 
ATOM     11  O   UNL     1       0.853  -2.571   5.534  0.00  0.00    -0.253 OA
ATOM     12  N   UNL     1       2.695  -2.765   6.759  0.00  0.00    -0.313 N 
ATOM     13  H   UNL     1       3.713  -1.827   4.642  0.00  0.00    +0.156 HD
ATOM     14  H   UNL     1       3.654  -2.639   6.833  0.00  0.00    +0.146 HD
ATOM     15  H   UNL     1       2.197  -3.146   7.499  0.00  0.00    +0.146 HD
ENDBRANCH   6   9
ENDBRANCH   2   3
BRANCH   2  16
ATOM     16  N   UNL     1      -1.422  -0.313   0.122  0.00  0.00    -0.308 N 
ATOM     17  C   UNL     1      -2.173  -0.434  -0.990  0.00  0.00    +0.218 C 
ATOM     18  O   UNL     1      -1.671  -0.267  -2.082  0.00  0.00    -0.275 OA
ATOM     19  H   UNL     1      -1.823  -0.447   0.995  0.00  0.00    +0.149 HD
BRANCH  17  20
ATOM     20  C   UNL     1      -3.636  -0.777  -0.878  0.00  0.00    +0.132 C 
BRANCH  20  21
ATOM     21  C   UNL     1      -4.242  -0.852  -2.256  0.00  0.00    -0.020 A 
ATOM     22  C   UNL     1      -4.875   0.253  -2.794  0.00  0.00    +0.007 A 
ATOM     23  C   UNL     1      -5.430   0.184  -4.058  0.00  0.00    +0.020 A 
ATOM     24  C   UNL     1      -5.352  -0.990  -4.786  0.00  0.00    +0.042 A 
ATOM     25  C   UNL     1      -4.718  -2.095  -4.248  0.00  0.00    +0.040 A 
ATOM     26  C   UNL     1      -4.159  -2.025  -2.985  0.00  0.00    +0.046 A 
ATOM     27 CL   UNL     1      -3.357  -3.411  -2.312  0.00  0.00    -0.083 Cl
ATOM     28 CL   UNL     1      -6.051  -1.075  -6.373  0.00  0.00    -0.083 Cl
ENDBRANCH  20  21
ENDBRANCH  17  20
ENDBRANCH   2  16
TORSDOF 5
