REMARK  Name = ZINC44785913
REMARK  6 active torsions:
REMARK  status: ('A' for Active; 'I' for Inactive)
REMARK    1  A    between atoms: C_1  and  C_2
REMARK    2  A    between atoms: C_7  and  N_10
REMARK    3  A    between atoms: N_10  and  C_11
REMARK    4  A    between atoms: C_12  and  C_14
REMARK    5  A    between atoms: C_14  and  C_19
REMARK    6  A    between atoms: N_20  and  O_21
REMARK                            x       y       z     vdW  Elec       q    Type
REMARK                         _______ _______ _______ _____ _____    ______ ____
ROOT
ATOM      1  C   UNL     1       3.063  -4.262   3.468  0.00  0.00    +0.105 C 
ATOM      2  C   UNL     1       4.346  -5.014   3.059  0.00  0.00    +0.024 C 
ATOM      3  C   UNL     1       5.496  -4.103   3.555  0.00  0.00    +0.001 C 
ATOM      4  C   UNL     1       4.951  -3.569   4.904  0.00  0.00    +0.001 C 
ATOM      5  C   UNL     1       3.448  -3.343   4.641  0.00  0.00    +0.024 C 
ENDROOT
BRANCH   1   6
ATOM      6  C   UNL     1       2.006  -5.243   3.906  0.00  0.00    +0.147 C 
ATOM      7  N   UNL     1       1.633  -5.281   5.142  0.00  0.00    -0.076 NA
ATOM      8  N   UNL     1       1.438  -6.098   2.988  0.00  0.00    -0.343 N 
ATOM      9  H   UNL     1       1.775  -6.127   2.079  0.00  0.00    +0.144 HD
ATOM     10  H   UNL     1       0.700  -6.670   3.250  0.00  0.00    +0.144 HD
BRANCH   7  11
ATOM     11  O   UNL     1       0.639  -6.203   5.553  0.00  0.00    -0.408 OA
ATOM     12  H   UNL     1       0.426  -6.157   6.495  0.00  0.00    +0.328 HD
ENDBRANCH   7  11
ENDBRANCH   1   6
BRANCH   1  15
ATOM     13  N   UNL     1       1.397  -2.761   2.425  0.00  0.00    -0.301 N 
ATOM     14  C   UNL     1       0.690  -2.726   3.708  0.00  0.00    +0.132 C 
ATOM     15  C   UNL     1       2.557  -3.438   2.312  0.00  0.00    +0.229 C 
ATOM     16  O   UNL     1       3.192  -3.386   1.281  0.00  0.00    -0.275 OA
BRANCH  13  22
ATOM     17  C   UNL     1       0.027   1.660   0.686  0.00  0.00    +0.007 C 
ATOM     18  C   UNL     1       0.147   0.168   0.369  0.00  0.00    -0.012 C 
ATOM     19  C   UNL     1      -1.238  -0.397   0.044  0.00  0.00    +0.003 C 
ATOM     20  C   UNL     1      -1.118  -1.889  -0.273  0.00  0.00    +0.002 C 
ATOM     21  C   UNL     1      -0.540  -2.623   0.939  0.00  0.00    +0.022 C 
ATOM     22  C   UNL     1       0.844  -2.058   1.264  0.00  0.00    +0.076 C 
ATOM     23  C   UNL     1       0.725  -0.566   1.581  0.00  0.00    +0.025 C 
ENDBRANCH  13  22
ENDBRANCH   1  15
TORSDOF 4
