REMARK  Name = ZINC36288251
REMARK  3 active torsions:
REMARK  status: ('A' for Active; 'I' for Inactive)
REMARK    1  A    between atoms: C_6  and  N_7
REMARK    2  A    between atoms: N_7  and  S_8
REMARK    3  A    between atoms: S_8  and  C_11
REMARK                            x       y       z     vdW  Elec       q    Type
REMARK                         _______ _______ _______ _____ _____    ______ ____
ROOT
ATOM      1  N   UNL     1      -1.131  -0.679  -0.067  0.00  0.00    -0.216 N 
ATOM      2  H   UNL     1      -1.183  -1.414   0.564  0.00  0.00    +0.174 HD
ENDROOT
BRANCH   1   8
ATOM      3  C   UNL     1       0.135   1.365  -0.310  0.00  0.00    +0.026 A 
ATOM      4  C   UNL     1       1.334   2.013  -0.516  0.00  0.00    +0.025 A 
ATOM      5  C   UNL     1       2.510   1.281  -0.693  0.00  0.00    +0.031 A 
ATOM      6  C   UNL     1       2.455  -0.104  -0.659  0.00  0.00    -0.023 A 
ATOM      7  C   UNL     1       1.254  -0.754  -0.451  0.00  0.00    +0.030 A 
ATOM      8  C   UNL     1       0.087  -0.022  -0.277  0.00  0.00    +0.048 A 
ATOM      9  C   UNL     1       3.850  -0.646  -0.875  0.00  0.00    +0.055 C 
ATOM     10  C   UNL     1       4.730   0.603  -1.041  0.00  0.00    +0.106 C 
ATOM     11  N   UNL     1       3.813   1.739  -0.913  0.00  0.00    -0.343 N 
ATOM     12  H   UNL     1       4.072   2.672  -0.972  0.00  0.00    +0.146 HD
ENDBRANCH   1   8
BRANCH   1  13
ATOM     13  S   UNL     1      -2.482  -0.202  -0.897  0.00  0.00    +0.074 S 
ATOM     14  O   UNL     1      -2.096  -0.066  -2.258  0.00  0.00    -0.150 OA
ATOM     15  O   UNL     1      -3.536  -1.063  -0.487  0.00  0.00    -0.150 OA
BRANCH  13  16
ATOM     16  C   UNL     1      -2.901   1.412  -0.328  0.00  0.00    +0.131 A 
ATOM     17  C   UNL     1      -2.860   2.493  -1.190  0.00  0.00    +0.053 A 
ATOM     18  C   UNL     1      -3.188   3.721  -0.720  0.00  0.00    +0.058 A 
ATOM     19  S   UNL     1      -3.570   3.373   0.989  0.00  0.00    -0.073 S 
ATOM     20  C   UNL     1      -3.272   1.613   0.960  0.00  0.00    +0.082 A 
ATOM     21 BR   UNL     1      -3.432   0.355   2.363  0.00  0.00    -0.040 Br
ATOM     22 BR   UNL     1      -3.229   5.375  -1.636  0.00  0.00    -0.042 Br
ENDBRANCH  13  16
ENDBRANCH   1  13
TORSDOF 3
