REMARK  Name = ZINC20782414
REMARK  8 active torsions:
REMARK  status: ('A' for Active; 'I' for Inactive)
REMARK    1  A    between atoms: C_1  and  C_2
REMARK    2  A    between atoms: C_2  and  N_3
REMARK    3  A    between atoms: C_9  and  C_11
REMARK    4  A    between atoms: C_11  and  C_12
REMARK    5  A    between atoms: C_12  and  C_13
REMARK    6  A    between atoms: C_19  and  C_21
REMARK    7  A    between atoms: C_22  and  C_32
REMARK    8  A    between atoms: C_25  and  C_31
REMARK                            x       y       z     vdW  Elec       q    Type
REMARK                         _______ _______ _______ _____ _____    ______ ____
ROOT
ATOM      1  C   UNL     1      -1.555  -4.392  -1.813  0.00  0.00    -0.008 C 
ATOM      2  C   UNL     1      -0.145  -4.864  -2.173  0.00  0.00    +0.022 C 
ATOM      3  C   UNL     1      -0.118  -6.396  -2.212  0.00  0.00    +0.108 C 
ATOM      4  N   UNL     1      -1.164  -6.864  -3.131  0.00  0.00    -0.296 N 
ATOM      5  C   UNL     1      -2.542  -6.396  -2.929  0.00  0.00    +0.108 C 
ATOM      6  C   UNL     1      -2.542  -4.865  -2.882  0.00  0.00    +0.022 C 
ATOM      7  C   UNL     1      -0.865  -7.705  -4.140  0.00  0.00    +0.263 C 
ATOM      8  O   UNL     1      -1.753  -8.156  -4.840  0.00  0.00    -0.268 OA
ENDROOT
BRANCH   7   9
ATOM      9  C   UNL     1       0.534  -8.079  -4.396  0.00  0.00    +0.106 A 
ATOM     10  C   UNL     1       1.257  -8.971  -3.669  0.00  0.00    -0.013 A 
ATOM     11  C   UNL     1       2.550  -9.045  -4.240  0.00  0.00    +0.004 A 
ATOM     12  C   UNL     1       3.700  -9.780  -3.925  0.00  0.00    +0.013 A 
ATOM     13  C   UNL     1       4.827  -9.634  -4.680  0.00  0.00    -0.050 A 
ATOM     14  C   UNL     1       4.846  -8.762  -5.761  0.00  0.00    +0.005 A 
ATOM     15  C   UNL     1       3.729  -8.028  -6.091  0.00  0.00    +0.026 A 
ATOM     16  C   UNL     1       2.567  -8.160  -5.336  0.00  0.00    +0.047 A 
ATOM     17  N   UNL     1       1.321  -7.584  -5.417  0.00  0.00    -0.350 N 
ATOM     18  H   UNL     1       0.908  -6.848  -6.123  0.00  0.00    +0.166 HD
ATOM     19  C   UNL     1       6.063 -10.427  -4.338  0.00  0.00    +0.044 C 
ATOM     20  C   UNL     1       0.769  -9.743  -2.471  0.00  0.00    +0.047 C 
ENDBRANCH   7   9
BRANCH   1  21
ATOM     21  C   UNL     1      -1.577  -2.864  -1.739  0.00  0.00    +0.013 C 
BRANCH  21  22
ATOM     22  C   UNL     1      -0.685  -2.396  -0.588  0.00  0.00    +0.096 C 
BRANCH  22  29
ATOM     23  N   UNL     1       2.173   1.026   1.637  0.00  0.00    -0.300 NA
ATOM     24  C   UNL     1       1.454   1.710   0.554  0.00  0.00    +0.103 C 
ATOM     25  C   UNL     1       0.003   1.217   0.518  0.00  0.00    +0.123 C 
ATOM     26  N   UNL     1       0.011  -0.251   0.429  0.00  0.00    -0.299 N 
ATOM     27  C   UNL     1       0.822  -1.002   1.399  0.00  0.00    +0.123 C 
ATOM     28  C   UNL     1       2.240  -0.422   1.401  0.00  0.00    +0.103 C 
ATOM     29  C   UNL     1      -0.707  -0.890  -0.515  0.00  0.00    +0.216 C 
ATOM     30  O   UNL     1      -1.371  -0.255  -1.306  0.00  0.00    -0.276 OA
BRANCH  23  32
ATOM     31  C   UNL     1       3.430   3.120   1.811  0.00  0.00    +0.020 C 
ATOM     32  C   UNL     1       3.516   1.593   1.817  0.00  0.00    +0.081 C 
ENDBRANCH  23  32
ENDBRANCH  22  29
ENDBRANCH  21  22
ENDBRANCH   1  21
TORSDOF 5
