REMARK  Name = ZINC05603884
REMARK  2 active torsions:
REMARK  status: ('A' for Active; 'I' for Inactive)
REMARK    1  A    between atoms: C_4  and  C_7
REMARK    2  A    between atoms: C_25  and  C_27
REMARK                            x       y       z     vdW  Elec       q    Type
REMARK                         _______ _______ _______ _____ _____    ______ ____
ROOT
ATOM      1  C   UNL     1       3.711  -0.707  -0.038  0.00  0.00    +0.111 C 
ATOM      2  C   UNL     1       4.019  -1.174  -1.466  0.00  0.00    +0.056 C 
ATOM      3  C   UNL     1       2.847  -2.010  -1.981  0.00  0.00    +0.009 C 
ATOM      4  C   UNL     1       3.161  -2.515  -3.391  0.00  0.00    +0.001 C 
ATOM      5  C   UNL     1       4.413  -3.394  -3.342  0.00  0.00    +0.009 C 
ATOM      6  C   UNL     1       5.593  -2.577  -2.823  0.00  0.00    +0.056 C 
ATOM      7  C   UNL     1       5.300  -2.013  -1.432  0.00  0.00    +0.113 C 
ATOM      8  N   UNL     1       5.130  -3.115  -0.486  0.00  0.00    -0.278 N 
ATOM      9  C   UNL     1       4.327  -2.994   0.583  0.00  0.00    +0.302 C 
ATOM     10  O   UNL     1       4.227  -3.933   1.348  0.00  0.00    -0.253 OA
ATOM     11  N   UNL     1       3.631  -1.875   0.841  0.00  0.00    -0.292 N 
ATOM     12  N   UNL     1       6.415  -1.163  -1.002  0.00  0.00    -0.278 N 
ATOM     13  C   UNL     1       7.151  -0.485  -1.895  0.00  0.00    +0.302 C 
ATOM     14  O   UNL     1       8.054   0.222  -1.489  0.00  0.00    -0.253 OA
ATOM     15  N   UNL     1       6.935  -0.554  -3.217  0.00  0.00    -0.292 N 
ATOM     16  C   UNL     1       5.870  -1.402  -3.764  0.00  0.00    +0.111 C 
ATOM     17  H   UNL     1       5.606  -3.947  -0.633  0.00  0.00    +0.152 HD
ATOM     18  H   UNL     1       3.061  -1.841   1.625  0.00  0.00    +0.151 HD
ATOM     19  H   UNL     1       6.623  -1.089  -0.057  0.00  0.00    +0.152 HD
ATOM     20  H   UNL     1       7.498  -0.042  -3.818  0.00  0.00    +0.151 HD
ENDROOT
BRANCH   1  24
ATOM     21  C   UNL     1      -0.017   1.378   0.010  0.00  0.00    +0.000 A 
ATOM     22  C   UNL     1       1.171   2.086   0.002  0.00  0.00    +0.000 A 
ATOM     23  C   UNL     1       2.377   1.411  -0.013  0.00  0.00    +0.005 A 
ATOM     24  C   UNL     1       2.396   0.029  -0.020  0.00  0.00    -0.027 A 
ATOM     25  C   UNL     1       1.208  -0.679  -0.012  0.00  0.00    +0.005 A 
ATOM     26  C   UNL     1       0.002  -0.004   0.002  0.00  0.00    +0.000 A 
ENDBRANCH   1  24
BRANCH  16  27
ATOM     27  C   UNL     1       6.284  -1.925  -5.116  0.00  0.00    -0.027 A 
ATOM     28  C   UNL     1       7.581  -2.357  -5.323  0.00  0.00    +0.005 A 
ATOM     29  C   UNL     1       7.960  -2.837  -6.562  0.00  0.00    +0.000 A 
ATOM     30  C   UNL     1       7.042  -2.885  -7.595  0.00  0.00    +0.000 A 
ATOM     31  C   UNL     1       5.745  -2.454  -7.388  0.00  0.00    +0.000 A 
ATOM     32  C   UNL     1       5.365  -1.978  -6.147  0.00  0.00    +0.005 A 
ENDBRANCH  16  27
TORSDOF 2
