REMARK  Name = ZINC59427798
REMARK  8 active torsions:
REMARK  status: ('A' for Active; 'I' for Inactive)
REMARK    1  A    between atoms: N_15  and  C_16
REMARK    2  A    between atoms: C_16  and  C_17
REMARK    3  A    between atoms: N_19  and  N_20
REMARK    4  A    between atoms: C_21  and  C_22
REMARK    5  A    between atoms: C_25  and  O_28
REMARK    6  A    between atoms: O_28  and  C_29
REMARK    7  A    between atoms: C_29  and  C_30
REMARK    8  A    between atoms: C_33  and  N_36
REMARK                            x       y       z     vdW  Elec       q    Type
REMARK                         _______ _______ _______ _____ _____    ______ ____
ROOT
ATOM      1  C   UNL     1       5.558   0.758   0.460  0.00  0.00    +0.252 C 
ATOM      2  O   UNL     1       5.130   0.755   1.595  0.00  0.00    -0.272 OA
ATOM      3  N   UNL     1       6.689   1.430   0.169  0.00  0.00    -0.206 N 
ATOM      4  H   UNL     1       7.031   1.433  -0.739  0.00  0.00    +0.177 HD
ENDROOT
BRANCH   3   5
ATOM      5  N   UNL     1       7.372   2.123   1.177  0.00  0.00    -0.188 NA
ATOM      6  C   UNL     1       8.462   2.769   0.896  0.00  0.00    +0.138 C 
BRANCH   6   7
ATOM      7  C   UNL     1       9.180   3.499   1.957  0.00  0.00    -0.005 A 
ATOM      8  C   UNL     1       8.692   3.491   3.266  0.00  0.00    +0.013 A 
ATOM      9  C   UNL     1       9.367   4.175   4.255  0.00  0.00    +0.046 A 
ATOM     10  C   UNL     1      10.530   4.870   3.951  0.00  0.00    +0.121 A 
ATOM     11  C   UNL     1      11.019   4.881   2.651  0.00  0.00    +0.046 A 
ATOM     12  C   UNL     1      10.354   4.196   1.657  0.00  0.00    +0.013 A 
BRANCH  10  13
ATOM     13  O   UNL     1      11.192   5.542   4.928  0.00  0.00    -0.487 OA
BRANCH  13  14
ATOM     14  C   UNL     1      12.382   6.236   4.547  0.00  0.00    +0.264 C 
BRANCH  14  15
ATOM     15  C   UNL     1      12.975   6.917   5.754  0.00  0.00    -0.010 A 
ATOM     16  C   UNL     1      12.595   8.207   6.075  0.00  0.00    +0.009 A 
ATOM     17  C   UNL     1      13.139   8.832   7.182  0.00  0.00    +0.033 A 
ATOM     18  C   UNL     1      14.062   8.167   7.968  0.00  0.00    +0.126 A 
ATOM     19  C   UNL     1      14.440   6.877   7.646  0.00  0.00    +0.033 A 
ATOM     20  C   UNL     1      13.893   6.250   6.542  0.00  0.00    +0.009 A 
BRANCH  18  21
ATOM     21  N   UNL     1      14.644   8.836   9.152  0.00  0.00    +0.056 N 
ATOM     22  O   UNL     1      14.313   9.965   9.432  0.00  0.00    -0.126 OA
ATOM     23  O   UNL     1      15.451   8.255   9.839  0.00  0.00    -0.126 OA
ENDBRANCH  18  21
ENDBRANCH  14  15
ENDBRANCH  13  14
ENDBRANCH  10  13
ENDBRANCH   6   7
ENDBRANCH   3   5
BRANCH   1  24
ATOM     24  C   UNL     1       4.823   0.012  -0.624  0.00  0.00    +0.219 C 
BRANCH  24  39
ATOM     25  C   UNL     1      -0.017   1.364   0.009  0.00  0.00    +0.001 A 
ATOM     26  C   UNL     1       1.169   2.085   0.002  0.00  0.00    +0.002 A 
ATOM     27  C   UNL     1       2.388   1.440  -0.017  0.00  0.00    +0.026 A 
ATOM     28  C   UNL     1       2.430   0.050  -0.028  0.00  0.00    +0.054 A 
ATOM     29  C   UNL     1       1.223  -0.674  -0.015  0.00  0.00    +0.046 A 
ATOM     30  C   UNL     1       0.002  -0.004   0.002  0.00  0.00    +0.014 A 
ATOM     31  C   UNL     1       1.299  -2.151  -0.014  0.00  0.00    +0.197 A 
ATOM     32  O   UNL     1       0.378  -2.848  -0.399  0.00  0.00    -0.287 OA
ATOM     33  C   UNL     1       2.567  -2.724   0.484  0.00  0.00    +0.046 A 
ATOM     34  C   UNL     1       2.639  -4.026   0.975  0.00  0.00    +0.014 A 
ATOM     35  C   UNL     1       3.835  -4.510   1.428  0.00  0.00    +0.001 A 
ATOM     36  C   UNL     1       4.973  -3.716   1.403  0.00  0.00    +0.002 A 
ATOM     37  C   UNL     1       4.922  -2.425   0.920  0.00  0.00    +0.026 A 
ATOM     38  C   UNL     1       3.718  -1.913   0.450  0.00  0.00    +0.054 A 
ATOM     39  N   UNL     1       3.635  -0.629  -0.057  0.00  0.00    -0.331 N 
ENDBRANCH  24  39
ENDBRANCH   1  24
TORSDOF 8
