REMARK  Name = ZINC22795392
REMARK  8 active torsions:
REMARK  status: ('A' for Active; 'I' for Inactive)
REMARK    1  A    between atoms: C_1  and  C_2
REMARK    2  A    between atoms: C_6  and  C_8
REMARK    3  A    between atoms: C_8  and  C_10
REMARK    4  A    between atoms: C_8  and  N_24
REMARK    5  A    between atoms: C_11  and  O_23
REMARK    6  A    between atoms: C_16  and  C_18
REMARK    7  A    between atoms: N_27  and  C_30
REMARK    8  A    between atoms: C_30  and  C_31
REMARK                            x       y       z     vdW  Elec       q    Type
REMARK                         _______ _______ _______ _____ _____    ______ ____
ROOT
ATOM      1  C   UNL     1       0.054  -2.845   2.489  0.00  0.00    +0.129 C 
ENDROOT
BRANCH   1   2
ATOM      2  C   UNL     1       1.460  -3.293   2.790  0.00  0.00    +0.076 A 
ATOM      3  C   UNL     1       2.262  -2.935   3.800  0.00  0.00    +0.228 A 
ATOM      4  N   UNL     1       3.527  -3.457   3.911  0.00  0.00    -0.173 N 
ATOM      5  C   UNL     1       3.920  -4.348   2.950  0.00  0.00    +0.200 A 
ATOM      6  S   UNL     1       2.491  -4.447   1.898  0.00  0.00    -0.047 S 
ATOM      7  N   UNL     1       5.136  -4.751   3.192  0.00  0.00    -0.197 NA
ATOM      8  C   UNL     1       5.587  -4.152   4.303  0.00  0.00    +0.218 A 
ATOM      9  N   UNL     1       4.649  -3.358   4.774  0.00  0.00    -0.138 NA
BRANCH   8  10
ATOM     10  C   UNL     1       6.923  -4.350   4.902  0.00  0.00    +0.173 A 
ATOM     11  C   UNL     1       7.901  -5.162   4.420  0.00  0.00    +0.053 A 
ATOM     12  C   UNL     1       8.997  -5.044   5.298  0.00  0.00    +0.042 A 
ATOM     13  C   UNL     1       8.637  -4.175   6.263  0.00  0.00    +0.196 A 
ATOM     14  O   UNL     1       7.386  -3.754   6.018  0.00  0.00    -0.460 OA
ENDBRANCH   8  10
BRANCH   3  15
ATOM     15  O   UNL     1       1.819  -2.043   4.727  0.00  0.00    -0.492 OA
ATOM     16  H   UNL     1       2.463  -1.843   5.420  0.00  0.00    +0.294 HD
ENDBRANCH   3  15
ENDBRANCH   1   2
BRANCH   1  22
ATOM     17  C   UNL     1      -0.018   1.503   0.010  0.00  0.00    +0.044 C 
ATOM     18  C   UNL     1       0.002  -0.004   0.002  0.00  0.00    -0.050 A 
ATOM     19  C   UNL     1       0.006  -0.689  -1.199  0.00  0.00    +0.003 A 
ATOM     20  C   UNL     1       0.025  -2.071  -1.207  0.00  0.00    +0.001 A 
ATOM     21  C   UNL     1       0.040  -2.768  -0.013  0.00  0.00    +0.005 A 
ATOM     22  C   UNL     1       0.037  -2.084   1.188  0.00  0.00    -0.025 A 
ATOM     23  C   UNL     1       0.023  -0.702   1.195  0.00  0.00    +0.009 A 
ENDBRANCH   1  22
BRANCH   1  24
ATOM     24  N   UNL     1      -0.822  -4.019   2.380  0.00  0.00    -0.295 NA
ATOM     25  C   UNL     1      -2.186  -3.626   1.999  0.00  0.00    +0.067 C 
ATOM     26  C   UNL     1      -3.049  -4.879   1.839  0.00  0.00    -0.063 C 
ATOM     27  N   UNL     1      -3.071  -5.623   3.106  0.00  0.00    +0.384 N 
ATOM     28  C   UNL     1      -1.705  -6.030   3.460  0.00  0.00    -0.063 C 
ATOM     29  C   UNL     1      -0.831  -4.787   3.634  0.00  0.00    +0.067 C 
ATOM     30  H   UNL     1      -3.447  -5.035   3.834  0.00  0.00    -0.081 HD
BRANCH  27  31
ATOM     31  C   UNL     1      -3.914  -6.817   2.957  0.00  0.00    -0.043 C 
BRANCH  31  32
ATOM     32  C   UNL     1      -4.037  -7.514   4.287  0.00  0.00    -0.064 A 
ATOM     33  C   UNL     1      -3.120  -8.484   4.646  0.00  0.00    +0.002 A 
ATOM     34  C   UNL     1      -3.232  -9.124   5.867  0.00  0.00    +0.000 A 
ATOM     35  C   UNL     1      -4.262  -8.793   6.728  0.00  0.00    +0.000 A 
ATOM     36  C   UNL     1      -5.178  -7.823   6.369  0.00  0.00    +0.000 A 
ATOM     37  C   UNL     1      -5.064  -7.180   5.151  0.00  0.00    +0.002 A 
ENDBRANCH  31  32
ENDBRANCH  27  31
ENDBRANCH   1  24
TORSDOF 7
