REMARK  Name = ZINC11909035
REMARK  10 active torsions:
REMARK  status: ('A' for Active; 'I' for Inactive)
REMARK    1  A    between atoms: C_1  and  C_2
REMARK    2  A    between atoms: C_3  and  C_4
REMARK    3  A    between atoms: C_4  and  N_5
REMARK    4  A    between atoms: C_8  and  C_12
REMARK    5  A    between atoms: C_8  and  C_20
REMARK    6  A    between atoms: C_12  and  C_13
REMARK    7  A    between atoms: C_13  and  C_14
REMARK    8  A    between atoms: C_25  and  C_26
REMARK    9  A    between atoms: C_25  and  N_70
REMARK   10  A    between atoms: C_35  and  O_36
REMARK                            x       y       z     vdW  Elec       q    Type
REMARK                         _______ _______ _______ _____ _____    ______ ____
ROOT
ATOM      1  N   UNL     1       1.590  -1.218  -4.418  0.00  0.00    -0.212 N 
ATOM      2  C   UNL     1       1.896  -0.040  -3.832  0.00  0.00    +0.248 C 
ATOM      3  O   UNL     1       1.545   1.068  -4.179  0.00  0.00    -0.273 OA
ATOM      4  C   UNL     1       2.770  -0.392  -2.645  0.00  0.00    +0.115 C 
ATOM      5  N   UNL     1       2.867  -1.861  -2.706  0.00  0.00    -0.285 N 
ATOM      6  C   UNL     1       2.146  -2.250  -3.773  0.00  0.00    +0.310 C 
ATOM      7  O   UNL     1       2.015  -3.409  -4.114  0.00  0.00    -0.252 OA
ATOM      8  H   UNL     1       3.356  -2.436  -2.096  0.00  0.00    +0.151 HD
ENDROOT
BRANCH   4   9
ATOM      9  C   UNL     1       2.108   0.049  -1.338  0.00  0.00    +0.018 C 
ATOM     10  C   UNL     1       0.680  -0.499  -1.278  0.00  0.00    -0.013 C 
ATOM     11  C   UNL     1       0.002  -0.004   0.002  0.00  0.00    -0.078 C 
ATOM     12  C   UNL     1       1.344   2.014   0.000  0.00  0.00    -0.078 C 
ATOM     13  C   UNL     1       2.062   1.579  -1.280  0.00  0.00    -0.013 C 
ATOM     14  N   UNL     1      -0.032   1.474  -0.014  0.00  0.00    +0.382 N 
ATOM     15  H   UNL     1      -0.504   1.786  -0.871  0.00  0.00    -0.081 HD
BRANCH  14  16
ATOM     16  C   UNL     1      -0.783   1.974   1.156  0.00  0.00    -0.039 C 
BRANCH  16  17
ATOM     17  C   UNL     1      -0.580   3.463   1.273  0.00  0.00    -0.015 A 
ATOM     18  C   UNL     1       0.470   3.973   2.056  0.00  0.00    -0.013 A 
ATOM     19  C   UNL     1       1.349   3.118   2.743  0.00  0.00    +0.009 A 
ATOM     20  C   UNL     1       2.354   3.646   3.493  0.00  0.00    +0.001 A 
ATOM     21  C   UNL     1       2.527   5.026   3.590  0.00  0.00    +0.001 A 
ATOM     22  C   UNL     1       1.702   5.884   2.930  0.00  0.00    +0.008 A 
ATOM     23  C   UNL     1       0.649   5.375   2.151  0.00  0.00    -0.017 A 
ATOM     24  C   UNL     1      -0.233   6.232   1.469  0.00  0.00    +0.012 A 
ATOM     25  C   UNL     1      -1.242   5.707   0.724  0.00  0.00    +0.046 A 
ATOM     26  C   UNL     1      -1.418   4.324   0.624  0.00  0.00    +0.119 A 
BRANCH  26  27
ATOM     27  O   UNL     1      -2.435   3.829  -0.128  0.00  0.00    -0.507 OA
ATOM     28  H   UNL     1      -3.260   3.703   0.360  0.00  0.00    +0.292 HD
ENDBRANCH  26  27
ENDBRANCH  16  17
ENDBRANCH  14  16
ENDBRANCH   4   9
BRANCH   1  29
ATOM     29  C   UNL     1       0.753  -1.349  -5.613  0.00  0.00    +0.206 C 
BRANCH  29  32
ATOM     30  C   UNL     1      -3.186  -1.773  -4.490  0.00  0.00    +0.106 C 
ATOM     31  C   UNL     1      -1.778  -1.621  -4.891  0.00  0.00    -0.104 C 
ATOM     32  C   UNL     1      -0.655  -1.500  -5.212  0.00  0.00    -0.083 C 
ENDBRANCH  29  32
ENDBRANCH   1  29
BRANCH   4  33
ATOM     33  C   UNL     1       4.154   0.245  -2.787  0.00  0.00    +0.040 C 
BRANCH  33  34
ATOM     34  C   UNL     1       4.793  -0.212  -4.100  0.00  0.00    +0.038 C 
BRANCH  34  35
ATOM     35  C   UNL     1       6.156   0.415  -4.240  0.00  0.00    -0.047 A 
ATOM     36  C   UNL     1       6.293   1.636  -4.874  0.00  0.00    +0.003 A 
ATOM     37  C   UNL     1       7.543   2.214  -4.999  0.00  0.00    +0.000 A 
ATOM     38  C   UNL     1       8.657   1.566  -4.498  0.00  0.00    +0.000 A 
ATOM     39  C   UNL     1       8.521   0.343  -3.869  0.00  0.00    +0.000 A 
ATOM     40  C   UNL     1       7.270  -0.233  -3.740  0.00  0.00    +0.003 A 
ENDBRANCH  34  35
ENDBRANCH  33  34
ENDBRANCH   4  33
TORSDOF 9
