REMARK  Name = ZINC63221879
REMARK  13 active torsions:
REMARK  status: ('A' for Active; 'I' for Inactive)
REMARK    1  A    between atoms: C_1  and  C_2
REMARK    2  A    between atoms: C_2  and  C_3
REMARK    3  A    between atoms: C_3  and  C_4
REMARK    4  A    between atoms: C_7  and  C_10
REMARK    5  A    between atoms: C_10  and  C_12
REMARK    6  A    between atoms: C_12  and  C_14
REMARK    7  A    between atoms: C_12  and  S_15
REMARK    8  A    between atoms: S_15  and  C_16
REMARK    9  A    between atoms: C_19  and  C_30
REMARK   10  A    between atoms: N_20  and  C_21
REMARK   11  A    between atoms: C_24  and  O_27
REMARK   12  A    between atoms: O_27  and  C_28
REMARK   13  A    between atoms: C_28  and  C_29
REMARK                            x       y       z     vdW  Elec       q    Type
REMARK                         _______ _______ _______ _____ _____    ______ ____
ROOT
ATOM      1  C   UNL     1      -0.515  -9.373   2.634  0.00  0.00    +0.197 A 
ATOM      2  N   UNL     1      -0.922  -8.800   3.757  0.00  0.00    -0.122 NA
ATOM      3  N   UNL     1      -0.717  -9.584   4.755  0.00  0.00    -0.128 NA
ATOM      4  C   UNL     1      -0.164 -10.712   4.332  0.00  0.00    +0.168 A 
ATOM      5  N   UNL     1      -0.027 -10.604   2.958  0.00  0.00    -0.270 N 
ENDROOT
BRANCH   4   6
ATOM      6  C   UNL     1       0.206 -11.809   5.125  0.00  0.00    +0.025 C 
ATOM      7  C   UNL     1       0.065 -11.937   6.507  0.00  0.00    +0.006 A 
ATOM      8  C   UNL     1      -0.458 -11.075   7.495  0.00  0.00    +0.010 A 
ATOM      9  C   UNL     1      -0.470 -11.470   8.794  0.00  0.00    +0.001 A 
ATOM     10  C   UNL     1       0.024 -12.717   9.185  0.00  0.00    +0.002 A 
ATOM     11  C   UNL     1       0.541 -13.594   8.289  0.00  0.00    +0.026 A 
ATOM     12  C   UNL     1       0.587 -13.252   6.913  0.00  0.00    +0.043 A 
ATOM     13  N   UNL     1       1.030 -13.916   5.864  0.00  0.00    -0.380 N 
ATOM     14  C   UNL     1       0.838 -13.102   4.659  0.00  0.00    +0.152 C 
ATOM     15  H   UNL     1       1.419 -14.804   5.885  0.00  0.00    +0.160 HD
ENDBRANCH   4   6
BRANCH   5  16
ATOM     16  C   UNL     1       0.506 -11.560   2.082  0.00  0.00    +0.051 A 
ATOM     17  C   UNL     1      -0.143 -12.774   1.900  0.00  0.00    +0.030 A 
ATOM     18  C   UNL     1       0.382 -13.715   1.037  0.00  0.00    +0.047 A 
ATOM     19  C   UNL     1       1.559 -13.449   0.353  0.00  0.00    +0.121 A 
ATOM     20  C   UNL     1       2.209 -12.236   0.534  0.00  0.00    +0.047 A 
ATOM     21  C   UNL     1       1.681 -11.292   1.392  0.00  0.00    +0.030 A 
BRANCH  19  22
ATOM     22  O   UNL     1       2.077 -14.376  -0.496  0.00  0.00    -0.492 OA
BRANCH  22  23
ATOM     23  C   UNL     1       3.291 -14.035  -1.168  0.00  0.00    +0.225 C 
ATOM     24  C   UNL     1       3.716 -15.194  -2.072  0.00  0.00    +0.048 C 
ENDBRANCH  22  23
ENDBRANCH  19  22
ENDBRANCH   5  16
BRANCH   1  25
ATOM     25  S   UNL     1      -0.598  -8.676   1.018  0.00  0.00    -0.075 S 
BRANCH  25  26
ATOM     26  C   UNL     1      -1.340  -7.042   1.282  0.00  0.00    +0.122 C 
ATOM     27  C   UNL     1      -2.773  -7.210   1.793  0.00  0.00    +0.028 C 
BRANCH  26  28
ATOM     28  C   UNL     1      -1.357  -6.282  -0.019  0.00  0.00    +0.176 C 
ATOM     29  O   UNL     1      -1.354  -6.882  -1.072  0.00  0.00    -0.291 OA
BRANCH  28  33
ATOM     30  C   UNL     1      -1.413  -2.041   0.005  0.00  0.00    -0.047 A 
ATOM     31  C   UNL     1      -1.409  -2.722  -1.200  0.00  0.00    +0.004 A 
ATOM     32  C   UNL     1      -1.391  -4.101  -1.216  0.00  0.00    +0.011 A 
ATOM     33  C   UNL     1      -1.376  -4.810  -0.011  0.00  0.00    +0.019 A 
ATOM     34  C   UNL     1      -1.379  -4.114   1.202  0.00  0.00    +0.011 A 
ATOM     35  C   UNL     1      -1.392  -2.735   1.201  0.00  0.00    +0.004 A 
BRANCH  30  36
ATOM     36  C   UNL     1      -1.433  -0.534   0.013  0.00  0.00    +0.035 C 
BRANCH  36  38
ATOM     37  C   UNL     1      -0.019   1.526   0.010  0.00  0.00    +0.004 C 
ATOM     38  C   UNL     1       0.002  -0.004   0.002  0.00  0.00    +0.001 C 
ENDBRANCH  36  38
ENDBRANCH  30  36
ENDBRANCH  28  33
ENDBRANCH  26  28
ENDBRANCH  25  26
ENDBRANCH   1  25
TORSDOF 10
