REMARK  Name = ZINC02192333
REMARK  10 active torsions:
REMARK  status: ('A' for Active; 'I' for Inactive)
REMARK    1  A    between atoms: C_1  and  C_2
REMARK    2  A    between atoms: C_2  and  O_3
REMARK    3  A    between atoms: O_3  and  C_4
REMARK    4  A    between atoms: C_4  and  C_6
REMARK    5  A    between atoms: C_9  and  O_30
REMARK    6  A    between atoms: N_13  and  C_23
REMARK    7  A    between atoms: C_14  and  C_15
REMARK    8  A    between atoms: C_15  and  N_60
REMARK    9  A    between atoms: C_20  and  C_22
REMARK   10  A    between atoms: O_30  and  C_31
REMARK                            x       y       z     vdW  Elec       q    Type
REMARK                         _______ _______ _______ _____ _____    ______ ____
ROOT
ATOM      1  C   UNL     1      -2.653   3.557   0.045  0.00  0.00    +0.086 A 
ATOM      2  C   UNL     1      -1.232   3.158   0.030  0.00  0.00    +0.018 A 
ATOM      3  C   UNL     1      -0.031   3.863   0.023  0.00  0.00    +0.057 A 
ATOM      4  C   UNL     1       1.166   3.174   0.008  0.00  0.00    +0.135 A 
ATOM      5  C   UNL     1       1.171   1.781   0.000  0.00  0.00    +0.061 A 
ATOM      6  C   UNL     1      -0.013   1.076   0.008  0.00  0.00    +0.045 A 
ATOM      7  C   UNL     1      -1.226   1.755   0.017  0.00  0.00    +0.056 A 
ATOM      8  N   UNL     1      -2.544   1.335   0.032  0.00  0.00    -0.314 N 
ATOM      9  C   UNL     1      -3.380   2.402   0.045  0.00  0.00    +0.022 A 
ATOM     10 BR   UNL     1       2.817   0.850  -0.020  0.00  0.00    -0.046 Br
ENDROOT
BRANCH   8  11
ATOM     11  C   UNL     1      -2.957  -0.004   0.028  0.00  0.00    +0.047 A 
ATOM     12  C   UNL     1      -3.633  -0.527   1.122  0.00  0.00    +0.026 A 
ATOM     13  C   UNL     1      -4.043  -1.846   1.113  0.00  0.00    +0.002 A 
ATOM     14  C   UNL     1      -3.771  -2.648   0.020  0.00  0.00    +0.000 A 
ATOM     15  C   UNL     1      -3.094  -2.131  -1.069  0.00  0.00    +0.002 A 
ATOM     16  C   UNL     1      -2.686  -0.812  -1.068  0.00  0.00    +0.026 A 
ENDBRANCH   8  11
BRANCH   1  17
ATOM     17  C   UNL     1      -3.180   4.926   0.057  0.00  0.00    +0.341 C 
ATOM     18  O   UNL     1      -3.407   5.499  -0.992  0.00  0.00    -0.245 OA
BRANCH  17  19
ATOM     19  O   UNL     1      -3.412   5.550   1.230  0.00  0.00    -0.461 OA
BRANCH  19  21
ATOM     20  C   UNL     1      -4.131   7.441   2.584  0.00  0.00    +0.048 C 
ATOM     21  C   UNL     1      -3.933   6.903   1.165  0.00  0.00    +0.229 C 
ENDBRANCH  19  21
ENDBRANCH  17  19
ENDBRANCH   1  17
BRANCH   4  22
ATOM     22  O   UNL     1       2.342   3.856   0.001  0.00  0.00    -0.494 OA
ATOM     23  C   UNL     1       2.264   5.283   0.010  0.00  0.00    +0.277 C 
ENDBRANCH   4  22
BRANCH   9  24
ATOM     24  C   UNL     1      -4.885   2.325   0.058  0.00  0.00    -0.023 C 
BRANCH  24  31
ATOM     25  C   UNL     1      -4.680   3.306   2.262  0.00  0.00    -0.078 C 
ATOM     26  C   UNL     1      -5.092   3.147   3.727  0.00  0.00    -0.019 C 
ATOM     27  C   UNL     1      -6.610   3.308   3.845  0.00  0.00    -0.003 C 
ATOM     28  C   UNL     1      -7.296   2.272   2.950  0.00  0.00    -0.016 C 
ATOM     29  C   UNL     1      -6.820   2.456   1.507  0.00  0.00    -0.071 C 
ATOM     30  C   UNL     1      -7.487   1.409   0.613  0.00  0.00    -0.013 C 
ATOM     31  N   UNL     1      -5.355   2.265   1.458  0.00  0.00    +0.385 N 
ATOM     32  H   UNL     1      -5.125   1.343   1.847  0.00  0.00    -0.081 HD
ENDBRANCH  24  31
ENDBRANCH   9  24
TORSDOF 7
