REMARK  Name = ZINC60103431
REMARK  8 active torsions:
REMARK  status: ('A' for Active; 'I' for Inactive)
REMARK    1  A    between atoms: C_1  and  N_2
REMARK    2  A    between atoms: N_2  and  C_3
REMARK    3  A    between atoms: N_2  and  S_15
REMARK    4  A    between atoms: C_3  and  C_4
REMARK    5  A    between atoms: N_6  and  C_7
REMARK    6  A    between atoms: S_15  and  C_18
REMARK    7  A    between atoms: C_21  and  S_24
REMARK    8  A    between atoms: S_24  and  C_25
REMARK                            x       y       z     vdW  Elec       q    Type
REMARK                         _______ _______ _______ _____ _____    ______ ____
ROOT
ATOM      1  C   UNL     1      -0.018   1.461   0.010  0.00  0.00    +0.132 C 
ATOM      2  N   UNL     1       0.002  -0.004   0.002  0.00  0.00    -0.171 NA
ENDROOT
BRANCH   2   3
ATOM      3  S   UNL     1      -0.000  -0.824  -1.437  0.00  0.00    +0.061 S 
ATOM      4  O   UNL     1      -0.531  -2.115  -1.167  0.00  0.00    -0.153 OA
ATOM      5  O   UNL     1      -0.572   0.049  -2.401  0.00  0.00    -0.153 OA
BRANCH   3   6
ATOM      6  C   UNL     1       1.682  -1.059  -1.905  0.00  0.00    +0.106 A 
ATOM      7  C   UNL     1       2.322  -0.107  -2.677  0.00  0.00    +0.029 A 
ATOM      8  C   UNL     1       3.640  -0.289  -3.047  0.00  0.00    +0.017 A 
ATOM      9  C   UNL     1       4.324  -1.429  -2.641  0.00  0.00    +0.016 A 
ATOM     10  C   UNL     1       3.677  -2.383  -1.865  0.00  0.00    +0.017 A 
ATOM     11  C   UNL     1       2.360  -2.193  -1.495  0.00  0.00    +0.029 A 
BRANCH   9  12
ATOM     12  S   UNL     1       6.005  -1.665  -3.111  0.00  0.00    -0.016 S 
BRANCH  12  13
ATOM     13  C   UNL     1       6.451  -3.256  -2.362  0.00  0.00    +0.448 C 
ATOM     14  F   UNL     1       5.617  -4.259  -2.868  0.00  0.00    -0.160 F 
ATOM     15  F   UNL     1       7.782  -3.558  -2.668  0.00  0.00    -0.160 F 
ATOM     16  F   UNL     1       6.297  -3.178  -0.974  0.00  0.00    -0.160 F 
ENDBRANCH  12  13
ENDBRANCH   9  12
ENDBRANCH   3   6
ENDBRANCH   2   3
BRANCH   2  17
ATOM     17  C   UNL     1       0.024  -0.743   1.267  0.00  0.00    +0.204 C 
BRANCH  17  18
ATOM     18  C   UNL     1      -1.384  -0.909   1.776  0.00  0.00    +0.229 C 
ATOM     19  O   UNL     1      -2.315  -0.455   1.145  0.00  0.00    -0.274 OA
ATOM     20  N   UNL     1      -1.610  -1.563   2.933  0.00  0.00    -0.310 N 
ATOM     21  H   UNL     1      -0.866  -1.926   3.438  0.00  0.00    +0.149 HD
BRANCH  20  22
ATOM     22  C   UNL     1      -2.979  -1.724   3.429  0.00  0.00    +0.095 C 
ATOM     23  C   UNL     1      -3.381  -0.491   4.256  0.00  0.00    +0.046 C 
ATOM     24  C   UNL     1      -4.682  -0.784   5.041  0.00  0.00    +0.168 C 
ATOM     25  S   UNL     1      -4.607  -2.606   5.281  0.00  0.00    -0.029 S 
ATOM     26  O   UNL     1      -5.706  -3.206   4.608  0.00  0.00    -0.174 OA
ATOM     27  O   UNL     1      -4.396  -2.883   6.659  0.00  0.00    -0.174 OA
ATOM     28  C   UNL     1      -3.060  -2.974   4.351  0.00  0.00    +0.188 C 
ENDBRANCH  20  22
ENDBRANCH  17  18
ENDBRANCH   2  17
TORSDOF 7
