REMARK  Name = ZINC02656438
REMARK  9 active torsions:
REMARK  status: ('A' for Active; 'I' for Inactive)
REMARK    1  A    between atoms: C_1  and  C_2
REMARK    2  A    between atoms: C_5  and  N_8
REMARK    3  A    between atoms: C_9  and  C_27
REMARK    4  A    between atoms: C_12  and  S_13
REMARK    5  A    between atoms: S_13  and  C_14
REMARK    6  A    between atoms: C_14  and  C_15
REMARK    7  A    between atoms: C_24  and  O_26
REMARK    8  A    between atoms: C_32  and  O_33
REMARK    9  A    between atoms: O_33  and  C_34
REMARK                            x       y       z     vdW  Elec       q    Type
REMARK                         _______ _______ _______ _____ _____    ______ ____
ROOT
ATOM      1  N   UNL     1       2.546  -3.754  -2.406  0.00  0.00    -0.270 N 
ATOM      2  C   UNL     1       2.706  -4.918  -1.686  0.00  0.00    +0.173 A 
ATOM      3  N   UNL     1       2.856  -4.574  -0.428  0.00  0.00    -0.128 NA
ATOM      4  N   UNL     1       2.808  -3.296  -0.312  0.00  0.00    -0.122 NA
ATOM      5  C   UNL     1       2.623  -2.741  -1.488  0.00  0.00    +0.197 A 
ENDROOT
BRANCH   1  10
ATOM      6  C   UNL     1       1.742  -3.262  -8.003  0.00  0.00    +0.044 C 
ATOM      7  C   UNL     1       1.956  -3.392  -6.517  0.00  0.00    -0.050 A 
ATOM      8  C   UNL     1       3.125  -2.926  -5.944  0.00  0.00    +0.005 A 
ATOM      9  C   UNL     1       3.323  -3.044  -4.582  0.00  0.00    +0.026 A 
ATOM     10  C   UNL     1       2.347  -3.632  -3.788  0.00  0.00    +0.051 A 
ATOM     11  C   UNL     1       1.177  -4.104  -4.367  0.00  0.00    +0.026 A 
ATOM     12  C   UNL     1       0.982  -3.978  -5.729  0.00  0.00    +0.005 A 
ENDBRANCH   1  10
BRANCH   2  13
ATOM     13  C   UNL     1       2.703  -6.292  -2.227  0.00  0.00    +0.061 A 
ATOM     14  C   UNL     1       3.461  -6.603  -3.357  0.00  0.00    +0.015 A 
ATOM     15  C   UNL     1       3.455  -7.889  -3.857  0.00  0.00    +0.001 A 
ATOM     16  C   UNL     1       2.699  -8.873  -3.243  0.00  0.00    +0.004 A 
ATOM     17  C   UNL     1       1.944  -8.576  -2.124  0.00  0.00    +0.046 A 
ATOM     18  C   UNL     1       1.944  -7.292  -1.606  0.00  0.00    +0.131 A 
BRANCH  18  19
ATOM     19  O   UNL     1       1.206  -7.001  -0.503  0.00  0.00    -0.494 OA
ATOM     20  C   UNL     1       0.456  -8.071   0.076  0.00  0.00    +0.277 C 
ENDBRANCH  18  19
ENDBRANCH   2  13
BRANCH   5  21
ATOM     21  S   UNL     1       2.493  -1.016  -1.822  0.00  0.00    -0.081 S 
BRANCH  21  22
ATOM     22  C   UNL     1       2.684  -0.356  -0.147  0.00  0.00    +0.113 C 
BRANCH  22  23
ATOM     23  C   UNL     1       2.604   1.148  -0.188  0.00  0.00    -0.020 A 
ATOM     24  C   UNL     1       3.720   1.902  -0.362  0.00  0.00    +0.097 A 
ATOM     25  C   UNL     1       3.619   3.308  -0.395  0.00  0.00    +0.338 A 
ATOM     26  O   UNL     1       4.628   3.972  -0.550  0.00  0.00    -0.245 OA
ATOM     27  O   UNL     1       2.439   3.934  -0.260  0.00  0.00    -0.422 OA
ATOM     28  C   UNL     1       1.292   3.244  -0.085  0.00  0.00    +0.143 A 
ATOM     29  C   UNL     1       1.320   1.837  -0.041  0.00  0.00    +0.022 A 
ATOM     30  C   UNL     1       0.133   1.118   0.139  0.00  0.00    +0.015 A 
ATOM     31  C   UNL     1      -1.051   1.785   0.266  0.00  0.00    +0.046 A 
ATOM     32  C   UNL     1      -1.085   3.178   0.231  0.00  0.00    +0.120 A 
ATOM     33  C   UNL     1       0.081   3.905   0.053  0.00  0.00    +0.092 A 
BRANCH  32  34
ATOM     34  O   UNL     1      -2.269   3.826   0.365  0.00  0.00    -0.507 OA
ATOM     35  H   UNL     1      -2.728   3.985  -0.472  0.00  0.00    +0.292 HD
ENDBRANCH  32  34
ENDBRANCH  22  23
ENDBRANCH  21  22
ENDBRANCH   5  21
TORSDOF 7
