REMARK  Name = ZINC13500999
REMARK  13 active torsions:
REMARK  status: ('A' for Active; 'I' for Inactive)
REMARK    1  A    between atoms: C_1  and  C_2
REMARK    2  A    between atoms: C_2  and  C_3
REMARK    3  A    between atoms: C_3  and  C_4
REMARK    4  A    between atoms: C_4  and  C_6
REMARK    5  A    between atoms: C_4  and  N_75
REMARK    6  A    between atoms: N_10  and  C_11
REMARK    7  A    between atoms: C_16  and  C_17
REMARK    8  A    between atoms: C_16  and  N_75
REMARK    9  A    between atoms: C_17  and  C_18
REMARK   10  A    between atoms: C_22  and  C_24
REMARK   11  A    between atoms: C_25  and  C_26
REMARK   12  A    between atoms: C_25  and  N_75
REMARK   13  A    between atoms: C_32  and  C_38
REMARK                            x       y       z     vdW  Elec       q    Type
REMARK                         _______ _______ _______ _____ _____    ______ ____
ROOT
ATOM      1  N   UNL     1      -1.637   2.159  -1.149  0.00  0.00    +0.389 N 
ATOM      2  H   UNL     1      -2.150   1.416  -1.638  0.00  0.00    -0.080 HD
ENDROOT
BRANCH   1   3
ATOM      3  C   UNL     1      -0.592   2.692  -2.048  0.00  0.00    +0.003 C 
BRANCH   3   4
ATOM      4  C   UNL     1      -0.311   4.138  -1.728  0.00  0.00    +0.138 A 
ATOM      5  N   UNL     1      -1.160   5.134  -1.801  0.00  0.00    -0.115 NA
ATOM      6  N   UNL     1      -0.543   6.209  -1.448  0.00  0.00    -0.023 NA
ATOM      7  N   UNL     1       0.677   5.924  -1.152  0.00  0.00    -0.044 NA
ATOM      8  N   UNL     1       0.857   4.656  -1.307  0.00  0.00    -0.228 N 
BRANCH   8   9
ATOM      9  C   UNL     1       2.101   3.918  -1.072  0.00  0.00    +0.111 C 
ATOM     10  C   UNL     1       2.501   4.017   0.415  0.00  0.00    +0.027 C 
ATOM     11  C   UNL     1       4.047   4.122   0.386  0.00  0.00    +0.002 C 
ATOM     12  C   UNL     1       4.307   5.011  -0.856  0.00  0.00    +0.002 C 
ATOM     13  C   UNL     1       3.249   4.550  -1.879  0.00  0.00    +0.027 C 
ENDBRANCH   8   9
ENDBRANCH   3   4
BRANCH   3  14
ATOM     14  C   UNL     1      -1.085   2.576  -3.492  0.00  0.00    -0.008 C 
BRANCH  14  16
ATOM     15  C   UNL     1      -1.687   0.982  -5.319  0.00  0.00    +0.004 C 
ATOM     16  C   UNL     1      -1.194   1.099  -3.876  0.00  0.00    -0.005 C 
ENDBRANCH  14  16
ENDBRANCH   3  14
ENDBRANCH   1   3
BRANCH   1  17
ATOM     17  C   UNL     1      -2.582   3.234  -0.780  0.00  0.00    -0.073 C 
BRANCH  17  18
ATOM     18  C   UNL     1      -3.435   3.580  -2.002  0.00  0.00    +0.016 C 
BRANCH  18  19
ATOM     19  C   UNL     1      -4.518   4.548  -1.601  0.00  0.00    -0.049 A 
ATOM     20  C   UNL     1      -5.745   4.075  -1.175  0.00  0.00    +0.003 A 
ATOM     21  C   UNL     1      -6.737   4.963  -0.803  0.00  0.00    +0.001 A 
ATOM     22  C   UNL     1      -6.505   6.324  -0.866  0.00  0.00    +0.003 A 
ATOM     23  C   UNL     1      -5.280   6.797  -1.297  0.00  0.00    -0.050 A 
ATOM     24  C   UNL     1      -4.287   5.909  -1.665  0.00  0.00    +0.007 A 
ATOM     25  C   UNL     1      -5.028   8.281  -1.366  0.00  0.00    +0.044 C 
ENDBRANCH  18  19
ENDBRANCH  17  18
ENDBRANCH   1  17
BRANCH   1  26
ATOM     26  C   UNL     1      -1.016   1.593   0.067  0.00  0.00    -0.037 C 
BRANCH  26  27
ATOM     27  C   UNL     1      -0.344   0.293  -0.293  0.00  0.00    +0.001 A 
ATOM     28  C   UNL     1       0.977   0.277  -0.596  0.00  0.00    +0.017 A 
ATOM     29  C   UNL     1       1.598  -1.002  -0.947  0.00  0.00    -0.001 A 
ATOM     30  C   UNL     1       2.957  -1.082  -1.270  0.00  0.00    +0.010 A 
ATOM     31  C   UNL     1       3.507  -2.290  -1.593  0.00  0.00    +0.001 A 
ATOM     32  C   UNL     1       2.728  -3.440  -1.605  0.00  0.00    +0.005 A 
ATOM     33  C   UNL     1       1.388  -3.385  -1.291  0.00  0.00    -0.026 A 
ATOM     34  C   UNL     1       0.806  -2.165  -0.958  0.00  0.00    +0.052 A 
ATOM     35  N   UNL     1      -0.533  -2.081  -0.639  0.00  0.00    -0.322 N 
ATOM     36  H   UNL     1      -1.077  -2.884  -0.648  0.00  0.00    +0.169 HD
ATOM     37  C   UNL     1      -1.094  -0.903  -0.318  0.00  0.00    +0.251 A 
ATOM     38  O   UNL     1      -2.281  -0.866  -0.042  0.00  0.00    -0.268 OA
ATOM     39  C   UNL     1       0.554  -4.640  -1.308  0.00  0.00    +0.046 C 
ENDBRANCH  26  27
ENDBRANCH   1  26
TORSDOF 10
