REMARK  Name = ZINC35867644
REMARK  9 active torsions:
REMARK  status: ('A' for Active; 'I' for Inactive)
REMARK    1  A    between atoms: C_1  and  C_2
REMARK    2  A    between atoms: C_2  and  C_3
REMARK    3  A    between atoms: C_3  and  C_4
REMARK    4  A    between atoms: C_4  and  C_5
REMARK    5  A    between atoms: C_15  and  C_19
REMARK    6  A    between atoms: N_28  and  C_29
REMARK    7  A    between atoms: C_32  and  C_35
REMARK    8  A    between atoms: C_35  and  C_36
REMARK    9  A    between atoms: C_35  and  C_37
REMARK                            x       y       z     vdW  Elec       q    Type
REMARK                         _______ _______ _______ _____ _____    ______ ____
ROOT
ATOM      1  C   UNL     1       1.208  -4.652   2.993  0.00  0.00    +0.132 A 
ATOM      2  N   UNL     1       2.524  -4.767   2.973  0.00  0.00    -0.217 NA
ATOM      3  C   UNL     1       3.325  -3.765   3.299  0.00  0.00    +0.133 A 
ATOM      4  C   UNL     1       2.753  -2.520   3.684  0.00  0.00    +0.051 A 
ATOM      5  C   UNL     1       3.431  -1.284   4.080  0.00  0.00    -0.025 A 
ATOM      6  C   UNL     1       2.649  -0.235   4.402  0.00  0.00    -0.004 A 
ATOM      7  S   UNL     1       0.986  -0.817   4.202  0.00  0.00    -0.073 S 
ATOM      8  C   UNL     1       1.345  -2.475   3.682  0.00  0.00    +0.114 A 
ATOM      9  N   UNL     1       0.622  -3.522   3.337  0.00  0.00    -0.225 NA
ATOM     10  C   UNL     1       3.093   1.129   4.835  0.00  0.00    +0.046 C 
ATOM     11  C   UNL     1       4.584   1.281   4.503  0.00  0.00    -0.009 C 
ATOM     12  C   UNL     1       5.326   0.036   4.997  0.00  0.00    +0.008 C 
ATOM     13  C   UNL     1       4.952  -1.169   4.132  0.00  0.00    +0.037 C 
ATOM     14  C   UNL     1       5.141   2.525   5.200  0.00  0.00    +0.008 C 
ATOM     15  N   UNL     1       4.698  -3.926   3.265  0.00  0.00    -0.312 N 
ATOM     16  C   UNL     1       5.392  -4.652   4.338  0.00  0.00    +0.125 C 
ATOM     17  C   UNL     1       6.214  -5.785   3.711  0.00  0.00    +0.128 C 
ATOM     18  N   UNL     1       7.005  -5.233   2.602  0.00  0.00    -0.282 N 
ATOM     19  C   UNL     1       6.311  -4.507   1.530  0.00  0.00    +0.128 C 
ATOM     20  C   UNL     1       5.488  -3.379   2.154  0.00  0.00    +0.125 C 
ATOM     21  C   UNL     1       8.343  -5.390   2.570  0.00  0.00    +0.307 C 
ATOM     22  O   UNL     1       8.893  -6.094   3.395  0.00  0.00    -0.252 OA
ATOM     23  N   UNL     1       9.072  -4.766   1.623  0.00  0.00    -0.269 N 
ATOM     24  H   UNL     1       8.652  -4.116   1.038  0.00  0.00    +0.156 HD
ENDROOT
BRANCH  23  25
ATOM     25  C   UNL     1      10.434  -5.056   1.485  0.00  0.00    +0.035 A 
ATOM     26  C   UNL     1      11.160  -5.524   2.572  0.00  0.00    +0.023 A 
ATOM     27  C   UNL     1      12.504  -5.809   2.432  0.00  0.00    +0.006 A 
ATOM     28  C   UNL     1      13.127  -5.629   1.211  0.00  0.00    -0.045 A 
ATOM     29  C   UNL     1      12.407  -5.163   0.126  0.00  0.00    +0.006 A 
ATOM     30  C   UNL     1      11.061  -4.881   0.258  0.00  0.00    +0.023 A 
BRANCH  28  31
ATOM     31  C   UNL     1      14.594  -5.942   1.062  0.00  0.00    +0.013 C 
ATOM     32  C   UNL     1      14.778  -7.028   0.000  0.00  0.00    +0.012 C 
ATOM     33  C   UNL     1      15.343  -4.678   0.634  0.00  0.00    +0.012 C 
ENDBRANCH  28  31
ENDBRANCH  23  25
BRANCH   1  34
ATOM     34  C   UNL     1       0.359  -5.836   2.608  0.00  0.00    +0.076 C 
BRANCH  34  35
ATOM     35  C   UNL     1       0.094  -5.806   1.102  0.00  0.00    +0.007 C 
BRANCH  35  37
ATOM     36  C   UNL     1      -1.033  -6.977  -0.795  0.00  0.00    +0.004 C 
ATOM     37  C   UNL     1      -0.768  -7.008   0.711  0.00  0.00    -0.003 C 
ENDBRANCH  35  37
ENDBRANCH  34  35
ENDBRANCH   1  34
TORSDOF 5
