REMARK  Name = ZINC04757677
REMARK  5 active torsions:
REMARK  status: ('A' for Active; 'I' for Inactive)
REMARK    1  A    between atoms: C_4  and  C_7
REMARK    2  A    between atoms: C_9  and  C_31
REMARK    3  A    between atoms: C_18  and  C_19
REMARK    4  A    between atoms: C_18  and  C_25
REMARK    5  A    between atoms: C_18  and  N_60
REMARK                            x       y       z     vdW  Elec       q    Type
REMARK                         _______ _______ _______ _____ _____    ______ ____
ROOT
ATOM      1  C   UNL     1      -1.646   2.092   1.005  0.00  0.00    +0.077 A 
ATOM      2  C   UNL     1      -0.502   1.292   0.936  0.00  0.00    +0.060 A 
ATOM      3  C   UNL     1       0.719   1.905   0.718  0.00  0.00    +0.149 A 
ATOM      4  N   UNL     1       0.769   3.221   0.586  0.00  0.00    -0.210 NA
ATOM      5  C   UNL     1      -0.332   3.956   0.661  0.00  0.00    +0.219 A 
ATOM      6  N   UNL     1      -1.520   3.410   0.868  0.00  0.00    -0.214 NA
ATOM      7  N   UNL     1      -0.236   5.329   0.518  0.00  0.00    -0.303 N 
ATOM      8  C   UNL     1      -1.102   5.807  -0.569  0.00  0.00    +0.089 C 
ATOM      9  C   UNL     1      -1.029   7.334  -0.642  0.00  0.00    -0.058 C 
ATOM     10  C   UNL     1       1.231   7.267   0.223  0.00  0.00    -0.058 C 
ATOM     11  C   UNL     1       1.157   5.740   0.296  0.00  0.00    +0.089 C 
ATOM     12  N   UNL     1       0.373   7.733  -0.887  0.00  0.00    +0.389 N 
ATOM     13  H   UNL     1       0.695   7.301  -1.762  0.00  0.00    -0.080 HD
ENDROOT
BRANCH   1  17
ATOM     14  C   UNL     1      -5.467   0.345   1.654  0.00  0.00    +0.000 A 
ATOM     15  C   UNL     1      -5.352   1.716   1.510  0.00  0.00    +0.001 A 
ATOM     16  C   UNL     1      -4.114   2.289   1.299  0.00  0.00    +0.010 A 
ATOM     17  C   UNL     1      -2.978   1.483   1.232  0.00  0.00    +0.001 A 
ATOM     18  C   UNL     1      -3.101   0.102   1.372  0.00  0.00    +0.010 A 
ATOM     19  C   UNL     1      -4.343  -0.460   1.588  0.00  0.00    +0.001 A 
ENDBRANCH   1  17
BRANCH   3  20
ATOM     20  C   UNL     1       1.979   1.083   0.630  0.00  0.00    +0.434 C 
ATOM     21  F   UNL     1       2.198   0.704  -0.699  0.00  0.00    -0.164 F 
ATOM     22  F   UNL     1       3.063   1.841   1.084  0.00  0.00    -0.164 F 
ATOM     23  F   UNL     1       1.845  -0.061   1.425  0.00  0.00    -0.164 F 
ENDBRANCH   3  20
BRANCH  12  24
ATOM     24  C   UNL     1       0.466   9.203  -1.016  0.00  0.00    -0.007 C 
BRANCH  24  25
ATOM     25  C   UNL     1       1.902   9.583  -1.267  0.00  0.00    -0.057 A 
ATOM     26  C   UNL     1       2.666   8.849  -2.156  0.00  0.00    +0.002 A 
ATOM     27  C   UNL     1       3.982   9.200  -2.390  0.00  0.00    +0.000 A 
ATOM     28  C   UNL     1       4.537  10.280  -1.729  0.00  0.00    +0.000 A 
ATOM     29  C   UNL     1       3.775  11.011  -0.837  0.00  0.00    +0.000 A 
ATOM     30  C   UNL     1       2.458  10.662  -0.606  0.00  0.00    +0.002 A 
ENDBRANCH  24  25
BRANCH  24  31
ATOM     31  C   UNL     1      -0.383   9.647  -2.179  0.00  0.00    -0.057 A 
ATOM     32  C   UNL     1      -0.351   8.941  -3.367  0.00  0.00    +0.002 A 
ATOM     33  C   UNL     1      -1.133   9.346  -4.433  0.00  0.00    +0.000 A 
ATOM     34  C   UNL     1      -1.940  10.462  -4.313  0.00  0.00    +0.000 A 
ATOM     35  C   UNL     1      -1.967  11.171  -3.127  0.00  0.00    +0.000 A 
ATOM     36  C   UNL     1      -1.189  10.764  -2.060  0.00  0.00    +0.002 A 
ENDBRANCH  24  31
ENDBRANCH  12  24
TORSDOF 5
