REMARK  Name = ZINC35265787
REMARK  13 active torsions:
REMARK  status: ('A' for Active; 'I' for Inactive)
REMARK    1  A    between atoms: C_1  and  C_2
REMARK    2  A    between atoms: C_2  and  C_3
REMARK    3  A    between atoms: C_3  and  N_4
REMARK    4  A    between atoms: C_5  and  C_35
REMARK    5  A    between atoms: C_6  and  C_30
REMARK    6  A    between atoms: C_7  and  C_12
REMARK    7  A    between atoms: C_16  and  N_18
REMARK    8  A    between atoms: N_21  and  C_22
REMARK    9  A    between atoms: C_26  and  C_29
REMARK   10  A    between atoms: C_27  and  C_28
REMARK   11  A    between atoms: C_30  and  O_32
REMARK   12  A    between atoms: O_32  and  C_33
REMARK   13  A    between atoms: C_33  and  C_34
REMARK                            x       y       z     vdW  Elec       q    Type
REMARK                         _______ _______ _______ _____ _____    ______ ____
ROOT
ATOM      1  C   UNL     1       1.123  -5.686  -2.436  0.00  0.00    -0.021 A 
ATOM      2  C   UNL     1       1.394  -5.107  -3.662  0.00  0.00    +0.006 A 
ATOM      3  C   UNL     1       1.837  -5.886  -4.715  0.00  0.00    +0.002 A 
ATOM      4  C   UNL     1       2.009  -7.246  -4.544  0.00  0.00    +0.023 A 
ATOM      5  C   UNL     1       1.738  -7.830  -3.314  0.00  0.00    +0.035 A 
ATOM      6  C   UNL     1       1.298  -7.044  -2.257  0.00  0.00    +0.029 A 
ENDROOT
BRANCH   1  10
ATOM      7  N   UNL     1       0.785  -2.075  -1.141  0.00  0.00    -0.259 N 
ATOM      8  C   UNL     1       1.839  -2.789  -0.649  0.00  0.00    +0.024 C 
ATOM      9  C   UNL     1       1.844  -4.139  -0.685  0.00  0.00    +0.078 C 
ATOM     10  C   UNL     1       0.640  -4.832  -1.291  0.00  0.00    +0.144 C 
ATOM     11  N   UNL     1      -0.444  -3.971  -1.793  0.00  0.00    -0.288 N 
ATOM     12  C   UNL     1      -0.304  -2.635  -1.682  0.00  0.00    +0.307 C 
ATOM     13  O   UNL     1      -1.195  -1.915  -2.090  0.00  0.00    -0.252 OA
ATOM     14  C   UNL     1       3.016  -2.060  -0.055  0.00  0.00    +0.061 C 
ATOM     15  H   UNL     1      -1.240  -4.356  -2.192  0.00  0.00    +0.151 HD
BRANCH   9  16
ATOM     16  C   UNL     1       2.935  -4.881  -0.176  0.00  0.00    +0.339 C 
ATOM     17  O   UNL     1       3.892  -4.303   0.305  0.00  0.00    -0.245 OA
BRANCH  16  18
ATOM     18  O   UNL     1       2.916  -6.229  -0.224  0.00  0.00    -0.462 OA
BRANCH  18  19
ATOM     19  C   UNL     1       4.052  -6.914   0.308  0.00  0.00    +0.229 C 
ATOM     20  C   UNL     1       3.850  -8.424   0.166  0.00  0.00    +0.048 C 
ENDBRANCH  18  19
ENDBRANCH  16  18
ENDBRANCH   9  16
BRANCH   7  21
ATOM     21  C   UNL     1       0.847  -0.613  -1.069  0.00  0.00    +0.114 C 
BRANCH  21  23
ATOM     22  C   UNL     1       1.685   1.452  -2.199  0.00  0.00    +0.005 C 
ATOM     23  C   UNL     1       1.621  -0.075  -2.274  0.00  0.00    +0.016 C 
ENDBRANCH  21  23
ENDBRANCH   7  21
ENDBRANCH   1  10
BRANCH   5  24
ATOM     24  N   UNL     1       1.912  -9.208  -3.138  0.00  0.00    -0.269 N 
ATOM     25  C   UNL     1       2.915  -9.847  -3.772  0.00  0.00    +0.308 C 
ATOM     26  O   UNL     1       3.619  -9.243  -4.559  0.00  0.00    -0.252 OA
ATOM     27  N   UNL     1       3.139 -11.154  -3.533  0.00  0.00    -0.269 N 
ATOM     28  H   UNL     1       1.310  -9.703  -2.561  0.00  0.00    +0.156 HD
ATOM     29  H   UNL     1       2.544 -11.649  -2.948  0.00  0.00    +0.156 HD
BRANCH  27  30
ATOM     30  C   UNL     1       4.229 -11.798  -4.129  0.00  0.00    +0.038 A 
ATOM     31  C   UNL     1       4.754 -11.317  -5.321  0.00  0.00    +0.023 A 
ATOM     32  C   UNL     1       5.830 -11.955  -5.907  0.00  0.00    +0.002 A 
ATOM     33  C   UNL     1       6.384 -13.071  -5.307  0.00  0.00    +0.004 A 
ATOM     34  C   UNL     1       5.864 -13.552  -4.120  0.00  0.00    -0.046 A 
ATOM     35  C   UNL     1       4.792 -12.915  -3.526  0.00  0.00    -0.026 A 
ATOM     36  C   UNL     1       4.229 -13.436  -2.229  0.00  0.00    +0.046 C 
ATOM     37  C   UNL     1       6.471 -14.769  -3.470  0.00  0.00    +0.044 C 
ENDBRANCH  27  30
ENDBRANCH   5  24
TORSDOF 8
