REMARK  Name = ZINC36128811
REMARK  7 active torsions:
REMARK  status: ('A' for Active; 'I' for Inactive)
REMARK    1  A    between atoms: C_1  and  C_2
REMARK    2  A    between atoms: C_2  and  C_3
REMARK    3  A    between atoms: C_7  and  C_22
REMARK    4  A    between atoms: N_10  and  S_11
REMARK    5  A    between atoms: S_11  and  C_14
REMARK    6  A    between atoms: C_17  and  O_21
REMARK    7  A    between atoms: C_18  and  N_20
REMARK                            x       y       z     vdW  Elec       q    Type
REMARK                         _______ _______ _______ _____ _____    ______ ____
ROOT
ATOM      1  S   UNL     1      -3.333   0.956  -1.248  0.00  0.00    +0.061 S 
ATOM      2  O   UNL     1      -4.115   0.692  -2.405  0.00  0.00    -0.153 OA
ATOM      3  O   UNL     1      -3.887   0.961   0.061  0.00  0.00    -0.153 OA
ENDROOT
BRANCH   1   9
ATOM      4  C   UNL     1      -1.433  -0.534   0.013  0.00  0.00    +0.105 C 
ATOM      5  C   UNL     1      -1.419  -2.063   0.117  0.00  0.00    +0.180 C 
ATOM      6  O   UNL     1      -0.874  -2.612  -1.085  0.00  0.00    -0.374 OA
ATOM      7  C   UNL     1      -1.639  -2.324  -2.259  0.00  0.00    +0.131 C 
ATOM      8  C   UNL     1      -1.664  -0.808  -2.485  0.00  0.00    +0.141 C 
ATOM      9  N   UNL     1      -2.109  -0.160  -1.240  0.00  0.00    -0.169 NA
ATOM     10  C   UNL     1      -0.999  -3.011  -3.467  0.00  0.00    +0.039 C 
BRANCH   4  12
ATOM     11  C   UNL     1      -0.019   1.526   0.010  0.00  0.00    +0.005 C 
ATOM     12  C   UNL     1       0.002  -0.004   0.002  0.00  0.00    +0.019 C 
ENDBRANCH   4  12
ENDBRANCH   1   9
BRANCH   1  13
ATOM     13  C   UNL     1      -2.595   2.537  -1.489  0.00  0.00    +0.107 A 
ATOM     14  C   UNL     1      -2.191   3.283  -0.397  0.00  0.00    +0.032 A 
ATOM     15  C   UNL     1      -1.611   4.525  -0.580  0.00  0.00    +0.049 A 
ATOM     16  C   UNL     1      -1.433   5.025  -1.859  0.00  0.00    +0.137 A 
ATOM     17  C   UNL     1      -1.840   4.274  -2.960  0.00  0.00    +0.068 A 
ATOM     18  C   UNL     1      -2.416   3.027  -2.769  0.00  0.00    +0.055 A 
BRANCH  17  19
ATOM     19  N   UNL     1      -1.663   4.775  -4.255  0.00  0.00    -0.355 N 
ATOM     20  H   UNL     1      -1.257   5.646  -4.387  0.00  0.00    +0.142 HD
ATOM     21  H   UNL     1      -1.947   4.251  -5.020  0.00  0.00    +0.142 HD
ENDBRANCH  17  19
BRANCH  16  22
ATOM     22  O   UNL     1      -0.863   6.247  -2.041  0.00  0.00    -0.505 OA
ATOM     23  H   UNL     1       0.100   6.222  -2.130  0.00  0.00    +0.292 HD
ENDBRANCH  16  22
ENDBRANCH   1  13
TORSDOF 5
