REMARK  Name = ZINC12786463
REMARK  10 active torsions:
REMARK  status: ('A' for Active; 'I' for Inactive)
REMARK    1  A    between atoms: C_1  and  N_57
REMARK    2  A    between atoms: C_2  and  C_3
REMARK    3  A    between atoms: C_2  and  N_57
REMARK    4  A    between atoms: N_5  and  C_6
REMARK    5  A    between atoms: C_11  and  C_12
REMARK    6  A    between atoms: C_16  and  C_17
REMARK    7  A    between atoms: C_16  and  N_57
REMARK    8  A    between atoms: C_28  and  C_30
REMARK    9  A    between atoms: C_30  and  O_32
REMARK   10  A    between atoms: O_32  and  C_33
REMARK                            x       y       z     vdW  Elec       q    Type
REMARK                         _______ _______ _______ _____ _____    ______ ____
ROOT
ATOM      1  C   UNL     1       4.100   7.476  -3.972  0.00  0.00    -0.095 C 
ATOM      2  N   UNL     1       5.102   6.982  -3.005  0.00  0.00    +0.389 N 
ATOM      3  H   UNL     1       5.345   7.743  -2.359  0.00  0.00    -0.081 HD
ENDROOT
BRANCH   2   4
ATOM      4  C   UNL     1       6.323   6.550  -3.718  0.00  0.00    +0.019 C 
BRANCH   4   5
ATOM      5  C   UNL     1       6.990   7.761  -4.317  0.00  0.00    +0.201 C 
ATOM      6  O   UNL     1       6.493   8.859  -4.178  0.00  0.00    -0.278 OA
ATOM      7  N   UNL     1       8.140   7.625  -5.006  0.00  0.00    -0.287 N 
ATOM      8  H   UNL     1       8.495   6.741  -5.189  0.00  0.00    +0.155 HD
BRANCH   7   9
ATOM      9  C   UNL     1       8.823   8.759  -5.460  0.00  0.00    +0.045 A 
ATOM     10  C   UNL     1       8.655   9.977  -4.813  0.00  0.00    +0.024 A 
ATOM     11  C   UNL     1       9.334  11.093  -5.260  0.00  0.00    +0.002 A 
ATOM     12  C   UNL     1      10.173  11.002  -6.356  0.00  0.00    +0.001 A 
ATOM     13  C   UNL     1      10.338   9.792  -7.005  0.00  0.00    +0.014 A 
ATOM     14  C   UNL     1       9.665   8.671  -6.560  0.00  0.00    +0.076 A 
BRANCH  14  15
ATOM     15  C   UNL     1       9.846   7.353  -7.268  0.00  0.00    +0.419 C 
ATOM     16  F   UNL     1      10.735   7.515  -8.336  0.00  0.00    -0.166 F 
ATOM     17  F   UNL     1      10.361   6.409  -6.372  0.00  0.00    -0.166 F 
ATOM     18  F   UNL     1       8.610   6.910  -7.752  0.00  0.00    -0.166 F 
ENDBRANCH  14  15
ENDBRANCH   7   9
ENDBRANCH   4   5
ENDBRANCH   2   4
BRANCH   2  19
ATOM     19  C   UNL     1       4.544   5.854  -2.230  0.00  0.00    +0.019 C 
BRANCH  19  20
ATOM     20  C   UNL     1       3.439   6.372  -1.345  0.00  0.00    +0.200 C 
ATOM     21  O   UNL     1       3.141   7.547  -1.373  0.00  0.00    -0.278 OA
ATOM     22  N   UNL     1       2.783   5.529  -0.524  0.00  0.00    -0.285 N 
ATOM     23  C   UNL     1       3.195   4.129  -0.380  0.00  0.00    +0.144 C 
ATOM     24  C   UNL     1       1.980   3.236  -0.413  0.00  0.00    -0.027 A 
ATOM     25  C   UNL     1       2.184   1.868  -0.526  0.00  0.00    +0.005 A 
ATOM     26  C   UNL     1       1.113   0.998  -0.539  0.00  0.00    +0.000 A 
ATOM     27  C   UNL     1      -0.174   1.495  -0.446  0.00  0.00    +0.000 A 
ATOM     28  C   UNL     1      -0.378   2.854  -0.333  0.00  0.00    +0.004 A 
ATOM     29  C   UNL     1       0.699   3.732  -0.323  0.00  0.00    -0.040 A 
ATOM     30  C   UNL     1       0.398   5.204  -0.219  0.00  0.00    +0.069 C 
ATOM     31  C   UNL     1       1.624   5.977   0.266  0.00  0.00    +0.189 C 
BRANCH  31  32
ATOM     32  C   UNL     1       1.408   7.455   0.062  0.00  0.00    +0.328 C 
ATOM     33  O   UNL     1       0.797   7.848  -0.903  0.00  0.00    -0.249 OA
BRANCH  32  34
ATOM     34  O   UNL     1       1.895   8.333   0.952  0.00  0.00    -0.467 OA
ATOM     35  C   UNL     1       1.650   9.740   0.692  0.00  0.00    +0.280 C 
ENDBRANCH  32  34
ENDBRANCH  31  32
ENDBRANCH  19  20
ENDBRANCH   2  19
TORSDOF 8
