REMARK  Name = ZINC02309842
REMARK  9 active torsions:
REMARK  status: ('A' for Active; 'I' for Inactive)
REMARK    1  A    between atoms: C_1  and  C_2
REMARK    2  A    between atoms: C_2  and  C_4
REMARK    3  A    between atoms: C_2  and  N_53
REMARK    4  A    between atoms: N_6  and  C_7
REMARK    5  A    between atoms: C_16  and  C_17
REMARK    6  A    between atoms: C_17  and  O_19
REMARK    7  A    between atoms: O_19  and  C_20
REMARK    8  A    between atoms: C_25  and  C_27
REMARK    9  A    between atoms: C_25  and  C_28
REMARK                            x       y       z     vdW  Elec       q    Type
REMARK                         _______ _______ _______ _____ _____    ______ ____
ROOT
ATOM      1  C   UNL     1       4.415   1.519  -2.250  0.00  0.00    +0.203 C 
ATOM      2  O   UNL     1       3.660   1.076  -3.089  0.00  0.00    -0.277 OA
ATOM      3  N   UNL     1       5.737   1.593  -2.504  0.00  0.00    -0.284 N 
ATOM      4  H   UNL     1       6.349   1.881  -1.809  0.00  0.00    +0.155 HD
ENDROOT
BRANCH   3   5
ATOM      5  C   UNL     1       6.223   1.255  -3.763  0.00  0.00    +0.073 A 
ATOM      6  C   UNL     1       5.767   0.150  -4.610  0.00  0.00    +0.023 A 
ATOM      7  C   UNL     1       4.791  -0.839  -4.458  0.00  0.00    +0.027 A 
ATOM      8  C   UNL     1       4.593  -1.756  -5.451  0.00  0.00    +0.019 A 
ATOM      9  C   UNL     1       5.356  -1.714  -6.612  0.00  0.00    +0.017 A 
ATOM     10  C   UNL     1       6.317  -0.743  -6.786  0.00  0.00    +0.027 A 
ATOM     11  C   UNL     1       6.540   0.200  -5.785  0.00  0.00    +0.049 A 
ATOM     12  N   UNL     1       7.418   1.252  -5.671  0.00  0.00    -0.348 N 
ATOM     13  H   UNL     1       8.070   1.509  -6.342  0.00  0.00    +0.166 HD
ATOM     14  C   UNL     1       7.232   1.893  -4.455  0.00  0.00    +0.147 A 
ATOM     15 BR   UNL     1       3.273  -3.093  -5.244  0.00  0.00    -0.050 Br
BRANCH  14  16
ATOM     16  C   UNL     1       7.962   3.019  -3.996  0.00  0.00    +0.357 C 
ATOM     17  O   UNL     1       7.650   3.563  -2.954  0.00  0.00    -0.243 OA
BRANCH  16  18
ATOM     18  O   UNL     1       9.002   3.488  -4.717  0.00  0.00    -0.463 OA
ATOM     19  C   UNL     1       9.692   4.626  -4.196  0.00  0.00    +0.280 C 
ENDBRANCH  16  18
ENDBRANCH  14  16
ENDBRANCH   3   5
BRANCH   1  21
ATOM     20  C   UNL     1       3.541   3.478  -1.006  0.00  0.00    -0.004 C 
ATOM     21  C   UNL     1       3.876   1.988  -0.923  0.00  0.00    +0.016 C 
BRANCH  21  29
ATOM     22  C   UNL     1       2.934  -0.212  -0.557  0.00  0.00    -0.078 C 
ATOM     23  C   UNL     1       1.623  -0.976  -0.356  0.00  0.00    -0.018 C 
ATOM     24  C   UNL     1       0.974  -0.527   0.956  0.00  0.00    +0.003 C 
ATOM     25  C   UNL     1       0.744   0.986   0.913  0.00  0.00    -0.050 C 
ATOM     26  C   UNL     1       2.081   1.692   0.674  0.00  0.00    -0.071 C 
ATOM     27  C   UNL     1       0.151   1.452   2.244  0.00  0.00    +0.009 C 
ATOM     28  C   UNL     1      -0.222   1.323  -0.225  0.00  0.00    +0.009 C 
ATOM     29  N   UNL     1       2.642   1.236  -0.615  0.00  0.00    +0.387 N 
ATOM     30  H   UNL     1       1.953   1.407  -1.357  0.00  0.00    -0.081 HD
ENDBRANCH  21  29
ENDBRANCH   1  21
TORSDOF 5
