REMARK  Name = ZINC38890180
REMARK  7 active torsions:
REMARK  status: ('A' for Active; 'I' for Inactive)
REMARK    1  A    between atoms: C_1  and  C_2
REMARK    2  A    between atoms: C_5  and  C_8
REMARK    3  A    between atoms: C_10  and  C_13
REMARK    4  A    between atoms: C_13  and  N_14
REMARK    5  A    between atoms: C_18  and  C_21
REMARK    6  A    between atoms: N_26  and  C_29
REMARK    7  A    between atoms: C_29  and  C_30
REMARK                            x       y       z     vdW  Elec       q    Type
REMARK                         _______ _______ _______ _____ _____    ______ ____
ROOT
ATOM      1  N   UNL     1      -1.296  -7.883   1.935  0.00  0.00    +0.386 N 
ATOM      2  C   UNL     1      -1.961  -6.806   2.678  0.00  0.00    -0.078 C 
ATOM      3  C   UNL     1      -3.419  -7.187   2.940  0.00  0.00    -0.018 C 
ATOM      4  C   UNL     1      -3.465  -8.479   3.761  0.00  0.00    +0.009 C 
ATOM      5  C   UNL     1      -2.704  -9.576   3.010  0.00  0.00    +0.059 C 
ATOM      6  C   UNL     1      -1.272  -9.107   2.745  0.00  0.00    -0.065 C 
ATOM      7  H   UNL     1      -1.800  -8.059   1.078  0.00  0.00    -0.081 HD
ENDROOT
BRANCH   5   8
ATOM      8  C   UNL     1      -2.678 -10.831   3.844  0.00  0.00    +0.217 C 
ATOM      9  O   UNL     1      -2.605 -10.754   5.052  0.00  0.00    -0.275 OA
ATOM     10  N   UNL     1      -2.735 -12.038   3.248  0.00  0.00    -0.299 N 
ATOM     11  C   UNL     1      -2.700 -12.158   1.782  0.00  0.00    +0.123 C 
ATOM     12  C   UNL     1      -1.617 -13.174   1.403  0.00  0.00    +0.103 C 
ATOM     13  N   UNL     1      -1.855 -14.431   2.124  0.00  0.00    -0.295 NA
ATOM     14  C   UNL     1      -1.746 -14.242   3.576  0.00  0.00    +0.103 C 
ATOM     15  C   UNL     1      -2.828 -13.270   4.045  0.00  0.00    +0.123 C 
BRANCH  13  16
ATOM     16  C   UNL     1      -0.942 -15.485   1.660  0.00  0.00    +0.119 C 
BRANCH  16  17
ATOM     17  C   UNL     1      -1.372 -16.810   2.235  0.00  0.00    -0.030 A 
ATOM     18  C   UNL     1      -0.872 -17.227   3.455  0.00  0.00    +0.009 A 
ATOM     19  C   UNL     1      -1.263 -18.441   3.987  0.00  0.00    +0.050 A 
ATOM     20  C   UNL     1      -2.157 -19.244   3.298  0.00  0.00    +0.166 A 
ATOM     21  C   UNL     1      -2.661 -18.824   2.069  0.00  0.00    +0.167 A 
ATOM     22  C   UNL     1      -2.269 -17.603   1.545  0.00  0.00    +0.054 A 
ATOM     23  O   UNL     1      -3.512 -19.781   1.597  0.00  0.00    -0.453 OA
ATOM     24  C   UNL     1      -3.212 -20.970   2.351  0.00  0.00    +0.466 C 
ATOM     25  O   UNL     1      -2.694 -20.464   3.596  0.00  0.00    -0.453 OA
ENDBRANCH  16  17
ENDBRANCH  13  16
ENDBRANCH   5   8
BRANCH   1  26
ATOM     26  C   UNL     1       0.081  -7.481   1.618  0.00  0.00    +0.022 C 
BRANCH  26  29
ATOM     27  C   UNL     1       0.023  -4.255  -0.044  0.00  0.00    +0.202 A 
ATOM     28  N   UNL     1       0.043  -5.045   1.044  0.00  0.00    -0.193 NA
ATOM     29  C   UNL     1       0.056  -6.297   0.685  0.00  0.00    +0.211 A 
ATOM     30  O   UNL     1       0.044  -6.356  -0.653  0.00  0.00    -0.340 OA
ATOM     31  N   UNL     1       0.018  -5.013  -1.113  0.00  0.00    -0.056 NA
BRANCH  27  36
ATOM     32  C   UNL     1      -0.057   1.504  -0.011  0.00  0.00    +0.044 C 
ATOM     33  C   UNL     1      -0.036  -0.003  -0.020  0.00  0.00    -0.050 A 
ATOM     34  C   UNL     1      -0.043  -0.685  -1.223  0.00  0.00    +0.004 A 
ATOM     35  C   UNL     1      -0.024  -2.065  -1.237  0.00  0.00    +0.012 A 
ATOM     36  C   UNL     1       0.003  -2.771  -0.036  0.00  0.00    +0.022 A 
ATOM     37  C   UNL     1       0.009  -2.078   1.173  0.00  0.00    +0.012 A 
ATOM     38  C   UNL     1      -0.004  -0.698   1.175  0.00  0.00    +0.004 A 
ENDBRANCH  27  36
ENDBRANCH  26  29
ENDBRANCH   1  26
TORSDOF 6
