REMARK  Name = ZINC36029869
REMARK  6 active torsions:
REMARK  status: ('A' for Active; 'I' for Inactive)
REMARK    1  A    between atoms: C_4  and  C_7
REMARK    2  A    between atoms: C_7  and  C_8
REMARK    3  A    between atoms: N_12  and  C_31
REMARK    4  A    between atoms: N_17  and  S_20
REMARK    5  A    between atoms: S_20  and  C_23
REMARK    6  A    between atoms: C_31  and  C_32
REMARK                            x       y       z     vdW  Elec       q    Type
REMARK                         _______ _______ _______ _____ _____    ______ ____
ROOT
ATOM      1  C   UNL     1       4.153  -0.993   1.436  0.00  0.00    +0.023 C 
ATOM      2  C   UNL     1       5.436  -1.794   1.467  0.00  0.00    +0.201 C 
ATOM      3  O   UNL     1       5.653  -2.810   0.841  0.00  0.00    -0.277 OA
ATOM      4  N   UNL     1       6.299  -1.188   2.309  0.00  0.00    -0.313 N 
ATOM      5  C   UNL     1       5.670   0.008   2.877  0.00  0.00    +0.006 C 
ATOM      6  N   UNL     1       4.513   0.326   2.010  0.00  0.00    +0.401 N 
ATOM      7  C   UNL     1       6.654   1.175   2.875  0.00  0.00    +0.023 C 
ATOM      8  C   UNL     1       7.864   0.821   3.747  0.00  0.00    +0.109 C 
ATOM      9  N   UNL     1       7.387   0.424   5.078  0.00  0.00    -0.177 NA
ATOM     10  C   UNL     1       6.381  -0.642   5.180  0.00  0.00    +0.109 C 
ATOM     11  C   UNL     1       5.184  -0.275   4.297  0.00  0.00    +0.023 C 
ATOM     12  H   UNL     1       4.782   0.971   1.281  0.00  0.00    -0.082 HD
ATOM     13  H   UNL     1       3.750   0.699   2.554  0.00  0.00    -0.082 HD
ENDROOT
BRANCH   9  14
ATOM     14  S   UNL     1       7.973   1.164   6.439  0.00  0.00    +0.061 S 
ATOM     15  O   UNL     1       7.788   0.249   7.511  0.00  0.00    -0.153 OA
ATOM     16  O   UNL     1       9.248   1.690   6.098  0.00  0.00    -0.153 OA
BRANCH  14  17
ATOM     17  C   UNL     1       6.931   2.545   6.771  0.00  0.00    +0.107 A 
ATOM     18  C   UNL     1       7.222   3.779   6.217  0.00  0.00    +0.030 A 
ATOM     19  C   UNL     1       6.405   4.863   6.477  0.00  0.00    +0.023 A 
ATOM     20  C   UNL     1       5.297   4.715   7.291  0.00  0.00    +0.059 A 
ATOM     21  C   UNL     1       5.005   3.480   7.845  0.00  0.00    +0.061 A 
ATOM     22  C   UNL     1       5.821   2.394   7.580  0.00  0.00    +0.050 A 
ATOM     23 CL   UNL     1       3.615   3.293   8.867  0.00  0.00    -0.082 Cl
ATOM     24 CL   UNL     1       4.271   6.077   7.618  0.00  0.00    -0.082 Cl
ENDBRANCH  14  17
ENDBRANCH   9  14
BRANCH   1  25
ATOM     25  C   UNL     1       3.661  -0.831  -0.004  0.00  0.00    +0.028 C 
BRANCH  25  29
ATOM     26  C   UNL     1      -0.033   1.313  -0.016  0.00  0.00    +0.000 A 
ATOM     27  C   UNL     1       1.164   1.999  -0.102  0.00  0.00    +0.000 A 
ATOM     28  C   UNL     1       2.360   1.305  -0.098  0.00  0.00    +0.003 A 
ATOM     29  C   UNL     1       2.358  -0.074  -0.007  0.00  0.00    -0.048 A 
ATOM     30  C   UNL     1       1.161  -0.760   0.079  0.00  0.00    +0.003 A 
ATOM     31  C   UNL     1      -0.035  -0.066   0.073  0.00  0.00    +0.000 A 
ENDBRANCH  25  29
ENDBRANCH   1  25
BRANCH   4  32
ATOM     32  C   UNL     1       7.656  -1.652   2.609  0.00  0.00    +0.109 C 
BRANCH  32  33
ATOM     33  C   UNL     1       8.638  -1.037   1.610  0.00  0.00    +0.006 C 
ATOM     34  C   UNL     1       9.386  -1.990   0.676  0.00  0.00    +0.005 C 
ATOM     35  C   UNL     1      10.128  -1.307   1.827  0.00  0.00    +0.005 C 
ENDBRANCH  32  33
ENDBRANCH   4  32
TORSDOF 6
