REMARK  Name = ZINC02778014
REMARK  7 active torsions:
REMARK  status: ('A' for Active; 'I' for Inactive)
REMARK    1  A    between atoms: C_1  and  C_2
REMARK    2  A    between atoms: N_6  and  C_7
REMARK    3  A    between atoms: C_7  and  C_9
REMARK    4  A    between atoms: C_7  and  C_10
REMARK    5  A    between atoms: N_12  and  N_13
REMARK    6  A    between atoms: C_14  and  C_29
REMARK    7  A    between atoms: C_24  and  C_28
REMARK                            x       y       z     vdW  Elec       q    Type
REMARK                         _______ _______ _______ _____ _____    ______ ____
ROOT
ATOM      1  N   UNL     1       3.540   1.784  -1.033  0.00  0.00    -0.210 N 
ATOM      2  C   UNL     1       4.562   0.939  -0.741  0.00  0.00    +0.129 A 
ATOM      3  N   UNL     1       5.802   1.353  -0.741  0.00  0.00    -0.225 NA
ATOM      4  C   UNL     1       6.100   2.617  -1.026  0.00  0.00    +0.116 A 
ATOM      5  C   UNL     1       5.112   3.563  -1.340  0.00  0.00    +0.077 A 
ATOM      6  C   UNL     1       3.764   3.075  -1.337  0.00  0.00    +0.280 A 
ATOM      7  O   UNL     1       2.835   3.820  -1.602  0.00  0.00    -0.265 OA
ATOM      8  C   UNL     1       5.588   4.914  -1.632  0.00  0.00    -0.023 A 
ATOM      9  C   UNL     1       6.921   5.119  -1.573  0.00  0.00    -0.004 A 
ATOM     10  S   UNL     1       7.609   3.546  -1.131  0.00  0.00    -0.073 S 
ATOM     11  C   UNL     1       7.654   6.401  -1.825  0.00  0.00    +0.046 C 
ATOM     12  C   UNL     1       6.639   7.553  -1.802  0.00  0.00    -0.009 C 
ATOM     13  C   UNL     1       5.438   7.166  -2.671  0.00  0.00    +0.008 C 
ATOM     14  C   UNL     1       4.639   6.055  -1.990  0.00  0.00    +0.037 C 
ATOM     15  C   UNL     1       7.288   8.821  -2.358  0.00  0.00    +0.008 C 
ATOM     16  C   UNL     1       4.263  -0.500  -0.412  0.00  0.00    +0.088 C 
ENDROOT
BRANCH   1  19
ATOM     17  C   UNL     1       1.401   1.607  -0.003  0.00  0.00    +0.255 C 
ATOM     18  O   UNL     1       1.797   2.305   0.907  0.00  0.00    -0.272 OA
ATOM     19  N   UNL     1       2.226   1.299  -1.023  0.00  0.00    -0.217 N 
ATOM     20  H   UNL     1       1.909   0.741  -1.751  0.00  0.00    +0.176 HD
BRANCH  17  21
ATOM     21  C   UNL     1      -0.013   1.086   0.008  0.00  0.00    +0.191 C 
ATOM     22  C   UNL     1      -0.753   1.593  -1.232  0.00  0.00    +0.042 C 
BRANCH  21  28
ATOM     23  C   UNL     1      -1.236  -0.725   2.206  0.00  0.00    +0.065 C 
ATOM     24  C   UNL     1      -1.235   0.781   2.178  0.00  0.00    +0.037 A 
ATOM     25  C   UNL     1      -1.772   1.598   3.114  0.00  0.00    +0.044 A 
ATOM     26  C   UNL     1      -1.556   2.919   2.708  0.00  0.00    +0.134 A 
ATOM     27  N   UNL     1      -0.908   2.896   1.571  0.00  0.00    -0.179 NA
ATOM     28  N   UNL     1      -0.698   1.558   1.213  0.00  0.00    -0.257 N 
ENDBRANCH  21  28
ENDBRANCH  17  21
ENDBRANCH   1  19
TORSDOF 3
