REMARK  Name = ZINC41023400
REMARK  11 active torsions:
REMARK  status: ('A' for Active; 'I' for Inactive)
REMARK    1  A    between atoms: C_1  and  C_2
REMARK    2  A    between atoms: C_2  and  C_3
REMARK    3  A    between atoms: C_3  and  C_4
REMARK    4  A    between atoms: C_4  and  S_5
REMARK    5  A    between atoms: S_5  and  C_6
REMARK    6  A    between atoms: C_11  and  C_28
REMARK    7  A    between atoms: C_13  and  C_17
REMARK    8  A    between atoms: C_14  and  C_16
REMARK    9  A    between atoms: N_19  and  C_20
REMARK   10  A    between atoms: C_24  and  C_27
REMARK   11  A    between atoms: C_25  and  C_26
REMARK                            x       y       z     vdW  Elec       q    Type
REMARK                         _______ _______ _______ _____ _____    ______ ____
ROOT
ATOM      1  C   UNL     1       1.304  -4.380  -2.693  0.00  0.00    +0.210 A 
ATOM      2  N   UNL     1       0.792  -5.080  -1.670  0.00  0.00    -0.187 NA
ATOM      3  C   UNL     1       0.975  -6.356  -1.879  0.00  0.00    +0.220 A 
ATOM      4  N   UNL     1       1.623  -6.500  -3.061  0.00  0.00    -0.217 N 
ATOM      5  N   UNL     1       1.817  -5.217  -3.570  0.00  0.00    -0.141 NA
ATOM      6  C   UNL     1       2.007  -7.794  -3.619  0.00  0.00    +0.213 C 
ATOM      7  C   UNL     1       1.321  -8.894  -2.853  0.00  0.00    +0.063 C 
ATOM      8  C   UNL     1       0.690  -8.690  -1.688  0.00  0.00    +0.018 C 
ATOM      9  N   UNL     1       0.612  -7.449  -1.105  0.00  0.00    -0.287 N 
ATOM     10  C   UNL     1       0.046  -9.863  -0.994  0.00  0.00    +0.061 C 
ATOM     11  H   UNL     1       0.314  -7.341  -0.188  0.00  0.00    +0.155 HD
ENDROOT
BRANCH   6  12
ATOM     12  C   UNL     1       3.501  -7.964  -3.514  0.00  0.00    +0.136 A 
ATOM     13  C   UNL     1       4.346  -8.139  -4.545  0.00  0.00    +0.048 A 
ATOM     14  C   UNL     1       5.644  -8.253  -3.995  0.00  0.00    +0.057 A 
ATOM     15  C   UNL     1       5.513  -8.140  -2.660  0.00  0.00    +0.170 A 
ATOM     16  O   UNL     1       4.213  -7.959  -2.375  0.00  0.00    -0.451 OA
ATOM     17 BR   UNL     1       6.921  -8.216  -1.400  0.00  0.00    -0.008 Br
ENDBRANCH   6  12
BRANCH   7  18
ATOM     18  C   UNL     1       1.344 -10.203  -3.388  0.00  0.00    +0.248 C 
ATOM     19  O   UNL     1       0.569 -10.512  -4.275  0.00  0.00    -0.270 OA
ATOM     20  N   UNL     1       2.223 -11.109  -2.916  0.00  0.00    -0.281 N 
ATOM     21  H   UNL     1       2.796 -10.884  -2.167  0.00  0.00    +0.155 HD
BRANCH  20  22
ATOM     22  C   UNL     1       2.309 -12.374  -3.507  0.00  0.00    +0.037 A 
ATOM     23  C   UNL     1       1.168 -12.987  -4.008  0.00  0.00    +0.023 A 
ATOM     24  C   UNL     1       1.257 -14.236  -4.591  0.00  0.00    +0.002 A 
ATOM     25  C   UNL     1       2.480 -14.876  -4.676  0.00  0.00    +0.004 A 
ATOM     26  C   UNL     1       3.617 -14.268  -4.178  0.00  0.00    -0.046 A 
ATOM     27  C   UNL     1       3.537 -13.017  -3.599  0.00  0.00    -0.026 A 
ATOM     28  C   UNL     1       4.778 -12.352  -3.062  0.00  0.00    +0.046 C 
ATOM     29  C   UNL     1       4.948 -14.970  -4.272  0.00  0.00    +0.044 C 
ENDBRANCH  20  22
ENDBRANCH   7  18
BRANCH   1  30
ATOM     30  S   UNL     1       1.285  -2.625  -2.843  0.00  0.00    -0.084 S 
BRANCH  30  31
ATOM     31  C   UNL     1       0.451  -2.064  -1.333  0.00  0.00    +0.077 C 
BRANCH  31  32
ATOM     32  C   UNL     1       0.366  -0.537  -1.334  0.00  0.00    +0.011 C 
BRANCH  32  34
ATOM     33  C   UNL     1      -0.422   1.464  -0.061  0.00  0.00    +0.004 C 
ATOM     34  C   UNL     1      -0.337  -0.064  -0.060  0.00  0.00    -0.003 C 
ENDBRANCH  32  34
ENDBRANCH  31  32
ENDBRANCH  30  31
ENDBRANCH   1  30
TORSDOF 7
