REMARK  Name = ZINC09512622
REMARK  8 active torsions:
REMARK  status: ('A' for Active; 'I' for Inactive)
REMARK    1  A    between atoms: C_1  and  C_2
REMARK    2  A    between atoms: C_3  and  N_15
REMARK    3  A    between atoms: N_6  and  C_9
REMARK    4  A    between atoms: N_7  and  C_8
REMARK    5  A    between atoms: C_16  and  C_18
REMARK    6  A    between atoms: C_18  and  N_19
REMARK    7  A    between atoms: C_22  and  C_26
REMARK    8  A    between atoms: C_22  and  C_27
REMARK                            x       y       z     vdW  Elec       q    Type
REMARK                         _______ _______ _______ _____ _____    ______ ____
ROOT
ATOM      1  C   UNL     1      -2.570  -2.902   0.348  0.00  0.00    +0.214 C 
ENDROOT
BRANCH   1   2
ATOM      2  N   UNL     1      -2.336  -4.346   0.264  0.00  0.00    -0.215 N 
ATOM      3  C   UNL     1      -2.426  -5.062  -0.874  0.00  0.00    +0.251 C 
ATOM      4  O   UNL     1      -2.705  -4.650  -1.979  0.00  0.00    -0.272 OA
ATOM      5  C   UNL     1      -2.104  -6.492  -0.485  0.00  0.00    +0.135 C 
ATOM      6  N   UNL     1      -1.853  -6.408   0.964  0.00  0.00    -0.281 N 
ATOM      7  C   UNL     1      -2.012  -5.117   1.308  0.00  0.00    +0.310 C 
ATOM      8  O   UNL     1      -1.877  -4.698   2.441  0.00  0.00    -0.252 OA
ATOM      9  C   UNL     1      -0.856  -6.985  -1.220  0.00  0.00    +0.047 C 
ATOM     10  H   UNL     1      -1.618  -7.140   1.555  0.00  0.00    +0.152 HD
BRANCH   5  11
ATOM     11  C   UNL     1      -3.276  -7.395  -0.769  0.00  0.00    -0.015 A 
ATOM     12  C   UNL     1      -4.088  -7.152  -1.861  0.00  0.00    +0.006 A 
ATOM     13  C   UNL     1      -5.162  -7.981  -2.120  0.00  0.00    +0.004 A 
ATOM     14  C   UNL     1      -5.429  -9.056  -1.287  0.00  0.00    -0.044 A 
ATOM     15  C   UNL     1      -4.617  -9.298  -0.195  0.00  0.00    -0.044 A 
ATOM     16  C   UNL     1      -3.538  -8.469   0.059  0.00  0.00    +0.010 A 
ATOM     17  C   UNL     1      -5.113 -10.519   0.550  0.00  0.00    +0.036 C 
ATOM     18  C   UNL     1      -6.559 -10.735   0.054  0.00  0.00    +0.009 C 
ATOM     19  C   UNL     1      -6.526 -10.097  -1.351  0.00  0.00    +0.036 C 
ENDBRANCH   5  11
ENDBRANCH   1   2
BRANCH   1  21
ATOM     20  N   UNL     1      -1.246  -0.822   0.157  0.00  0.00    -0.278 N 
ATOM     21  C   UNL     1      -1.273  -2.169   0.124  0.00  0.00    +0.235 C 
ATOM     22  O   UNL     1      -0.253  -2.791  -0.084  0.00  0.00    -0.274 OA
ATOM     23  H   UNL     1      -2.072  -0.322   0.251  0.00  0.00    +0.155 HD
BRANCH  20  26
ATOM     24  C   UNL     1      -0.605   1.315  -1.950  0.00  0.00    +0.067 C 
ATOM     25  C   UNL     1       0.300   0.808  -0.857  0.00  0.00    +0.059 A 
ATOM     26  C   UNL     1      -0.017  -0.139   0.054  0.00  0.00    +0.121 A 
ATOM     27  C   UNL     1       1.153  -0.323   0.914  0.00  0.00    +0.293 A 
ATOM     28  O   UNL     1       1.249  -1.094   1.853  0.00  0.00    -0.264 OA
ATOM     29  N   UNL     1       2.104   0.523   0.469  0.00  0.00    -0.216 N 
ATOM     30  N   UNL     1       1.584   1.225  -0.624  0.00  0.00    -0.282 N 
ATOM     31  C   UNL     1       2.299   2.244  -1.397  0.00  0.00    +0.171 C 
BRANCH  29  32
ATOM     32  C   UNL     1       3.386   0.673   1.007  0.00  0.00    +0.067 A 
ATOM     33  C   UNL     1       4.497   0.660   0.173  0.00  0.00    +0.028 A 
ATOM     34  C   UNL     1       5.761   0.814   0.707  0.00  0.00    +0.002 A 
ATOM     35  C   UNL     1       5.923   0.969   2.071  0.00  0.00    +0.000 A 
ATOM     36  C   UNL     1       4.820   0.978   2.905  0.00  0.00    +0.002 A 
ATOM     37  C   UNL     1       3.553   0.830   2.377  0.00  0.00    +0.028 A 
ENDBRANCH  29  32
ENDBRANCH  20  26
ENDBRANCH   1  21
TORSDOF 5
