REMARK  Name = ZINC34737174
REMARK  9 active torsions:
REMARK  status: ('A' for Active; 'I' for Inactive)
REMARK    1  A    between atoms: C_1  and  C_2
REMARK    2  A    between atoms: C_2  and  C_3
REMARK    3  A    between atoms: C_6  and  S_9
REMARK    4  A    between atoms: S_9  and  N_12
REMARK    5  A    between atoms: N_14  and  C_31
REMARK    6  A    between atoms: C_17  and  C_20
REMARK    7  A    between atoms: C_20  and  C_21
REMARK    8  A    between atoms: N_23  and  C_24
REMARK    9  A    between atoms: C_27  and  C_30
REMARK                            x       y       z     vdW  Elec       q    Type
REMARK                         _______ _______ _______ _____ _____    ______ ____
ROOT
ATOM      1  N   UNL     1      -6.644  -0.892  -0.294  0.00  0.00    -0.106 NA
ATOM      2  C   UNL     1      -7.938  -1.008  -0.188  0.00  0.00    +0.185 C 
ATOM      3  N   UNL     1      -8.677  -2.156   0.018  0.00  0.00    -0.245 N 
ATOM      4  C   UNL     1      -9.996  -2.142   0.109  0.00  0.00    +0.235 C 
ATOM      5  O   UNL     1     -10.639  -3.154   0.290  0.00  0.00    -0.274 OA
ATOM      6  C   UNL     1     -10.655  -0.779  -0.027  0.00  0.00    +0.149 C 
ATOM      7  S   UNL     1      -9.171   0.282  -0.265  0.00  0.00    -0.075 S 
ENDROOT
BRANCH   3   8
ATOM      8  C   UNL     1      -7.974  -3.436   0.141  0.00  0.00    +0.083 C 
ATOM      9  C   UNL     1      -8.132  -4.230  -1.158  0.00  0.00    +0.023 C 
ATOM     10  C   UNL     1      -7.398  -5.566  -1.031  0.00  0.00    +0.002 C 
ATOM     11  C   UNL     1      -7.992  -6.365   0.131  0.00  0.00    +0.000 C 
ATOM     12  C   UNL     1      -7.834  -5.571   1.429  0.00  0.00    +0.002 C 
ATOM     13  C   UNL     1      -8.568  -4.235   1.302  0.00  0.00    +0.023 C 
ENDBRANCH   3   8
BRANCH   1  14
ATOM     14  S   UNL     1      -5.680  -2.232  -0.166  0.00  0.00    +0.101 S 
ATOM     15  O   UNL     1      -6.074  -3.117  -1.206  0.00  0.00    -0.146 OA
ATOM     16  O   UNL     1      -5.692  -2.611   1.203  0.00  0.00    -0.146 OA
BRANCH  14  20
ATOM     17  C   UNL     1      -1.448  -0.932  -1.110  0.00  0.00    -0.048 A 
ATOM     18  C   UNL     1      -1.911  -0.886   0.191  0.00  0.00    +0.005 A 
ATOM     19  C   UNL     1      -3.203  -1.283   0.480  0.00  0.00    +0.029 A 
ATOM     20  C   UNL     1      -4.033  -1.725  -0.534  0.00  0.00    +0.113 A 
ATOM     21  C   UNL     1      -3.570  -1.770  -1.836  0.00  0.00    +0.029 A 
ATOM     22  C   UNL     1      -2.279  -1.369  -2.125  0.00  0.00    +0.005 A 
BRANCH  17  24
ATOM     23  C   UNL     1      -0.022   0.999  -1.736  0.00  0.00    +0.009 C 
ATOM     24  C   UNL     1      -0.039  -0.499  -1.425  0.00  0.00    +0.032 C 
ENDBRANCH  17  24
ENDBRANCH  14  20
ENDBRANCH   1  14
BRANCH   6  25
ATOM     25  C   UNL     1     -11.406  -0.397   1.250  0.00  0.00    +0.120 C 
BRANCH  25  26
ATOM     26  C   UNL     1     -12.144   0.899   1.030  0.00  0.00    +0.219 C 
ATOM     27  O   UNL     1     -12.076   1.461  -0.042  0.00  0.00    -0.275 OA
ATOM     28  N   UNL     1     -12.879   1.433   2.026  0.00  0.00    -0.285 N 
ATOM     29  H   UNL     1     -12.978   0.957   2.865  0.00  0.00    +0.155 HD
BRANCH  28  30
ATOM     30  C   UNL     1     -13.499   2.675   1.848  0.00  0.00    +0.033 A 
ATOM     31  C   UNL     1     -13.598   3.561   2.913  0.00  0.00    +0.023 A 
ATOM     32  C   UNL     1     -14.211   4.786   2.735  0.00  0.00    +0.005 A 
ATOM     33  C   UNL     1     -14.725   5.130   1.498  0.00  0.00    -0.050 A 
ATOM     34  C   UNL     1     -14.628   4.250   0.436  0.00  0.00    +0.005 A 
ATOM     35  C   UNL     1     -14.011   3.026   0.606  0.00  0.00    +0.023 A 
ATOM     36  C   UNL     1     -15.393   6.468   1.307  0.00  0.00    +0.044 C 
ENDBRANCH  28  30
ENDBRANCH  25  26
ENDBRANCH   6  25
TORSDOF 7
