REMARK  Name = ZINC35550937
REMARK  8 active torsions:
REMARK  status: ('A' for Active; 'I' for Inactive)
REMARK    1  A    between atoms: C_1  and  C_2
REMARK    2  A    between atoms: C_4  and  N_12
REMARK    3  A    between atoms: C_5  and  N_9
REMARK    4  A    between atoms: C_7  and  C_8
REMARK    5  A    between atoms: C_13  and  C_15
REMARK    6  A    between atoms: C_15  and  C_16
REMARK    7  A    between atoms: C_25  and  O_26
REMARK    8  A    between atoms: O_26  and  C_27
REMARK                            x       y       z     vdW  Elec       q    Type
REMARK                         _______ _______ _______ _____ _____    ______ ____
ROOT
ATOM      1  N   UNL     1       0.007  -2.672  -2.264  0.00  0.00    -0.283 N 
ATOM      2  C   UNL     1      -0.152  -1.948  -3.389  0.00  0.00    +0.222 C 
ATOM      3  O   UNL     1      -0.196  -0.738  -3.331  0.00  0.00    -0.275 OA
ATOM      4  H   UNL     1       0.123  -3.634  -2.318  0.00  0.00    +0.155 HD
ENDROOT
BRANCH   1   8
ATOM      5  C   UNL     1      -1.366   1.116   0.554  0.00  0.00    +0.044 C 
ATOM      6  C   UNL     1      -0.652  -0.200   0.377  0.00  0.00    -0.046 A 
ATOM      7  C   UNL     1      -0.652  -0.825  -0.855  0.00  0.00    +0.029 A 
ATOM      8  C   UNL     1       0.005  -2.037  -1.017  0.00  0.00    +0.064 A 
ATOM      9  C   UNL     1       0.661  -2.617   0.061  0.00  0.00    +0.148 A 
ATOM     10  C   UNL     1       0.657  -1.988   1.290  0.00  0.00    +0.038 A 
ATOM     11  C   UNL     1       0.006  -0.778   1.447  0.00  0.00    -0.045 A 
ATOM     12  C   UNL     1       0.008  -0.091   2.788  0.00  0.00    +0.044 C 
BRANCH   9  13
ATOM     13  N   UNL     1       1.363  -3.909  -0.108  0.00  0.00    +0.058 N 
ATOM     14  O   UNL     1       1.851  -4.462   0.851  0.00  0.00    -0.126 OA
ATOM     15  O   UNL     1       1.448  -4.413  -1.203  0.00  0.00    -0.126 OA
ENDBRANCH   9  13
ENDBRANCH   1   8
BRANCH   2  16
ATOM     16  C   UNL     1      -0.277  -2.643  -4.721  0.00  0.00    +0.135 C 
BRANCH  16  17
ATOM     17  C   UNL     1      -0.445  -1.616  -5.810  0.00  0.00    +0.011 A 
ATOM     18  C   UNL     1      -1.729  -1.180  -6.178  0.00  0.00    -0.011 A 
ATOM     19  C   UNL     1      -2.879  -1.684  -5.546  0.00  0.00    +0.010 A 
ATOM     20  C   UNL     1      -4.107  -1.240  -5.927  0.00  0.00    +0.016 A 
ATOM     21  C   UNL     1      -4.244  -0.288  -6.938  0.00  0.00    +0.018 A 
ATOM     22  C   UNL     1      -3.152   0.223  -7.572  0.00  0.00    +0.023 A 
ATOM     23  C   UNL     1      -1.868  -0.212  -7.205  0.00  0.00    -0.016 A 
ATOM     24  C   UNL     1      -0.719   0.294  -7.837  0.00  0.00    +0.012 A 
ATOM     25  C   UNL     1       0.510  -0.149  -7.458  0.00  0.00    +0.046 A 
ATOM     26  C   UNL     1       0.650  -1.099  -6.441  0.00  0.00    +0.124 A 
ATOM     27 BR   UNL     1      -5.971   0.300  -7.435  0.00  0.00    -0.050 Br
BRANCH  26  28
ATOM     28  O   UNL     1       1.891  -1.517  -6.081  0.00  0.00    -0.495 OA
ATOM     29  C   UNL     1       2.998  -0.941  -6.777  0.00  0.00    +0.277 C 
ENDBRANCH  26  28
ENDBRANCH  16  17
ENDBRANCH   2  16
TORSDOF 5
