REMARK  Name = ZINC42666981
REMARK  14 active torsions:
REMARK  status: ('A' for Active; 'I' for Inactive)
REMARK    1  A    between atoms: C_1  and  C_2
REMARK    2  A    between atoms: C_2  and  C_4
REMARK    3  A    between atoms: C_2  and  N_12
REMARK    4  A    between atoms: C_9  and  O_10
REMARK    5  A    between atoms: O_10  and  C_11
REMARK    6  A    between atoms: C_13  and  C_15
REMARK    7  A    between atoms: C_15  and  C_17
REMARK    8  A    between atoms: C_15  and  N_18
REMARK    9  A    between atoms: N_18  and  C_19
REMARK   10  A    between atoms: C_23  and  N_25
REMARK   11  A    between atoms: C_26  and  C_28
REMARK   12  A    between atoms: C_28  and  C_29
REMARK   13  A    between atoms: C_28  and  C_30
REMARK   14  A    between atoms: C_28  and  C_31
REMARK                            x       y       z     vdW  Elec       q    Type
REMARK                         _______ _______ _______ _____ _____    ______ ____
ROOT
ATOM      1  C   UNL     1      -3.764  -2.125  -1.304  0.00  0.00    +0.154 C 
ATOM      2  C   UNL     1      -3.784  -3.523  -0.684  0.00  0.00    +0.038 C 
ENDROOT
BRANCH   1   4
ATOM      3  N   UNL     1      -1.678  -1.453  -0.157  0.00  0.00    -0.307 N 
ATOM      4  C   UNL     1      -2.351  -1.601  -1.315  0.00  0.00    +0.233 C 
ATOM      5  O   UNL     1      -1.819  -1.313  -2.366  0.00  0.00    -0.274 OA
ATOM      6  H   UNL     1      -2.104  -1.683   0.684  0.00  0.00    +0.149 HD
BRANCH   3   8
ATOM      7  C   UNL     1      -0.326   0.583  -0.059  0.00  0.00    +0.033 C 
ATOM      8  C   UNL     1      -0.304  -0.944  -0.167  0.00  0.00    +0.104 C 
BRANCH   8   9
ATOM      9  C   UNL     1       0.454  -1.520   1.001  0.00  0.00    +0.014 A 
ATOM     10  C   UNL     1      -0.225  -1.924   2.134  0.00  0.00    +0.009 A 
ATOM     11  C   UNL     1       0.470  -2.453   3.206  0.00  0.00    +0.001 A 
ATOM     12  C   UNL     1       1.846  -2.578   3.147  0.00  0.00    +0.004 A 
ATOM     13  C   UNL     1       2.529  -2.175   2.017  0.00  0.00    +0.046 A 
ATOM     14  C   UNL     1       1.833  -1.649   0.937  0.00  0.00    +0.125 A 
BRANCH  14  15
ATOM     15  O   UNL     1       2.503  -1.257  -0.179  0.00  0.00    -0.495 OA
ATOM     16  C   UNL     1       3.922  -1.420  -0.174  0.00  0.00    +0.277 C 
ENDBRANCH  14  15
ENDBRANCH   8   9
ENDBRANCH   3   8
ENDBRANCH   1   4
BRANCH   1  17
ATOM     17  N   UNL     1      -4.270  -2.193  -2.678  0.00  0.00    -0.333 N 
ATOM     18  H   UNL     1      -3.650  -2.279  -3.419  0.00  0.00    +0.147 HD
BRANCH  17  19
ATOM     19  C   UNL     1      -5.644  -2.134  -2.919  0.00  0.00    +0.029 A 
ATOM     20  C   UNL     1      -6.532  -2.005  -1.858  0.00  0.00    +0.023 A 
ATOM     21  C   UNL     1      -7.891  -1.946  -2.096  0.00  0.00    +0.004 A 
ATOM     22  C   UNL     1      -8.373  -2.016  -3.389  0.00  0.00    +0.023 A 
ATOM     23  C   UNL     1      -7.491  -2.145  -4.455  0.00  0.00    +0.035 A 
ATOM     24  C   UNL     1      -6.124  -2.198  -4.220  0.00  0.00    +0.046 A 
BRANCH  23  25
ATOM     25  N   UNL     1      -7.979  -2.216  -5.764  0.00  0.00    -0.285 N 
ATOM     26  C   UNL     1      -9.069  -1.506  -6.116  0.00  0.00    +0.223 C 
ATOM     27  O   UNL     1      -9.673  -0.867  -5.280  0.00  0.00    -0.275 OA
ATOM     28  H   UNL     1      -7.533  -2.776  -6.418  0.00  0.00    +0.155 HD
BRANCH  26  29
ATOM     29  C   UNL     1      -9.539  -1.506  -7.548  0.00  0.00    +0.039 C 
ATOM     30  C   UNL     1     -10.786  -0.628  -7.675  0.00  0.00    +0.020 C 
ATOM     31  C   UNL     1      -8.432  -0.953  -8.447  0.00  0.00    +0.020 C 
ATOM     32  C   UNL     1      -9.876  -2.936  -7.974  0.00  0.00    +0.020 C 
ENDBRANCH  26  29
ENDBRANCH  23  25
ENDBRANCH  17  19
ENDBRANCH   1  17
TORSDOF 8
