REMARK  Name = ZINC17281204
REMARK  11 active torsions:
REMARK  status: ('A' for Active; 'I' for Inactive)
REMARK    1  A    between atoms: C_1  and  C_2
REMARK    2  A    between atoms: C_3  and  C_34
REMARK    3  A    between atoms: N_4  and  C_28
REMARK    4  A    between atoms: C_5  and  N_9
REMARK    5  A    between atoms: C_6  and  C_7
REMARK    6  A    between atoms: C_10  and  C_12
REMARK    7  A    between atoms: C_12  and  O_13
REMARK    8  A    between atoms: O_13  and  C_14
REMARK    9  A    between atoms: C_14  and  C_16
REMARK   10  A    between atoms: C_19  and  C_21
REMARK   11  A    between atoms: C_28  and  C_29
REMARK                            x       y       z     vdW  Elec       q    Type
REMARK                         _______ _______ _______ _____ _____    ______ ____
ROOT
ATOM      1  N   UNL     1       3.487   1.180   0.279  0.00  0.00    -0.268 N 
ATOM      2  C   UNL     1       3.926   2.454   0.325  0.00  0.00    +0.256 C 
ATOM      3  O   UNL     1       3.130   3.369   0.325  0.00  0.00    -0.272 OA
ATOM      4  H   UNL     1       4.122   0.447   0.307  0.00  0.00    +0.156 HD
ENDROOT
BRANCH   1   9
ATOM      5  C   UNL     1      -1.402   1.330  -0.990  0.00  0.00    +0.047 C 
ATOM      6  C   UNL     1      -0.085   0.958  -0.359  0.00  0.00    -0.011 A 
ATOM      7  C   UNL     1       0.127  -0.017   0.540  0.00  0.00    +0.022 A 
ATOM      8  N   UNL     1       1.455  -0.045   0.873  0.00  0.00    -0.324 N 
ATOM      9  C   UNL     1       2.128   0.917   0.192  0.00  0.00    +0.124 A 
ATOM     10  C   UNL     1       1.216   1.591  -0.608  0.00  0.00    +0.095 A 
ATOM     11  C   UNL     1      -0.932  -0.932   1.099  0.00  0.00    +0.064 C 
BRANCH  10  12
ATOM     12  C   UNL     1       1.488   2.683  -1.494  0.00  0.00    +0.103 C 
ATOM     13  N   UNL     1       1.704   3.548  -2.198  0.00  0.00    -0.191 NA
ENDBRANCH  10  12
BRANCH   8  14
ATOM     14  C   UNL     1       2.061  -0.978   1.826  0.00  0.00    +0.197 C 
BRANCH  14  15
ATOM     15  C   UNL     1       2.395  -2.268   1.123  0.00  0.00    +0.124 A 
ATOM     16  C   UNL     1       3.556  -2.549   0.505  0.00  0.00    +0.046 A 
ATOM     17  C   UNL     1       3.439  -3.860  -0.011  0.00  0.00    +0.041 A 
ATOM     18  C   UNL     1       2.210  -4.299   0.316  0.00  0.00    +0.195 A 
ATOM     19  O   UNL     1       1.582  -3.330   1.003  0.00  0.00    -0.466 OA
ENDBRANCH  14  15
ENDBRANCH   8  14
ENDBRANCH   1   9
BRANCH   2  20
ATOM     20  C   UNL     1       5.404   2.740   0.378  0.00  0.00    +0.328 C 
BRANCH  20  21
ATOM     21  O   UNL     1       5.615   4.153   0.421  0.00  0.00    -0.450 OA
BRANCH  21  22
ATOM     22  C   UNL     1       6.893   4.581   0.470  0.00  0.00    +0.375 C 
ATOM     23  O   UNL     1       7.805   3.775   0.478  0.00  0.00    -0.241 OA
BRANCH  22  24
ATOM     24  C   UNL     1       7.184   6.014   0.516  0.00  0.00    +0.212 A 
ATOM     25  C   UNL     1       8.438   6.584   0.575  0.00  0.00    +0.057 A 
ATOM     26  C   UNL     1       8.250   7.969   0.600  0.00  0.00    +0.051 A 
ATOM     27  C   UNL     1       6.903   8.193   0.565  0.00  0.00    +0.139 A 
ATOM     28  O   UNL     1       6.271   7.008   0.514  0.00  0.00    -0.448 OA
BRANCH  27  29
ATOM     29  C   UNL     1       6.250   9.517   0.578  0.00  0.00    +0.052 A 
ATOM     30  C   UNL     1       5.272   9.827  -0.369  0.00  0.00    +0.014 A 
ATOM     31  C   UNL     1       4.665  11.065  -0.350  0.00  0.00    +0.001 A 
ATOM     32  C   UNL     1       5.023  12.001   0.605  0.00  0.00    +0.003 A 
ATOM     33  C   UNL     1       5.990  11.704   1.547  0.00  0.00    +0.039 A 
ATOM     34  C   UNL     1       6.603  10.465   1.544  0.00  0.00    +0.134 A 
ATOM     35  F   UNL     1       7.544  10.172   2.468  0.00  0.00    -0.205 F 
ENDBRANCH  27  29
ENDBRANCH  22  24
ENDBRANCH  21  22
ENDBRANCH  20  21
ENDBRANCH   2  20
TORSDOF 9
