REMARK  Name = ZINC34756332
REMARK  8 active torsions:
REMARK  status: ('A' for Active; 'I' for Inactive)
REMARK    1  A    between atoms: C_1  and  C_2
REMARK    2  A    between atoms: C_2  and  C_3
REMARK    3  A    between atoms: C_3  and  C_5
REMARK    4  A    between atoms: C_3  and  C_11
REMARK    5  A    between atoms: C_18  and  N_35
REMARK    6  A    between atoms: N_25  and  C_28
REMARK    7  A    between atoms: N_35  and  C_36
REMARK    8  A    between atoms: N_35  and  C_37
REMARK                            x       y       z     vdW  Elec       q    Type
REMARK                         _______ _______ _______ _____ _____    ______ ____
ROOT
ATOM      1  C   UNL     1      -2.018   0.034  -0.976  0.00  0.00    +0.223 C 
ATOM      2  O   UNL     1      -2.615  -0.807  -1.613  0.00  0.00    -0.275 OA
ATOM      3  N   UNL     1      -2.070   1.327  -1.353  0.00  0.00    -0.296 N 
ATOM      4  C   UNL     1      -1.445   2.386  -0.543  0.00  0.00    +0.114 C 
ATOM      5  C   UNL     1      -0.323   3.014  -1.370  0.00  0.00    +0.072 C 
ATOM      6  C   UNL     1      -0.797   3.326  -2.763  0.00  0.00    +0.028 A 
ATOM      7  C   UNL     1      -1.900   2.732  -3.327  0.00  0.00    +0.029 A 
ATOM      8  C   UNL     1      -2.254   3.076  -4.637  0.00  0.00    +0.131 A 
ATOM      9  N   UNL     1      -1.522   3.970  -5.292  0.00  0.00    -0.201 NA
ATOM     10  C   UNL     1      -0.470   4.528  -4.712  0.00  0.00    +0.198 A 
ATOM     11  N   UNL     1      -0.112   4.216  -3.477  0.00  0.00    -0.331 N 
ATOM     12  N   UNL     1       0.273   5.461  -5.415  0.00  0.00    -0.298 N 
ATOM     13  C   UNL     1       1.518   6.003  -4.853  0.00  0.00    +0.127 C 
ATOM     14  C   UNL     1       2.652   5.770  -5.858  0.00  0.00    +0.124 C 
ATOM     15  N   UNL     1       2.210   6.235  -7.181  0.00  0.00    -0.327 N 
ATOM     16  C   UNL     1       0.965   5.693  -7.743  0.00  0.00    +0.124 C 
ATOM     17  C   UNL     1      -0.166   5.922  -6.740  0.00  0.00    +0.127 C 
ATOM     18  C   UNL     1      -2.747   1.735  -2.590  0.00  0.00    +0.148 C 
ATOM     19  H   UNL     1       0.665   4.645  -3.085  0.00  0.00    +0.168 HD
ENDROOT
BRANCH  15  20
ATOM     20  C   UNL     1       2.960   7.178  -7.891  0.00  0.00    +0.030 A 
ATOM     21  C   UNL     1       2.471   7.703  -9.079  0.00  0.00    +0.026 A 
ATOM     22  C   UNL     1       3.214   8.634  -9.779  0.00  0.00    +0.040 A 
ATOM     23  C   UNL     1       4.445   9.043  -9.296  0.00  0.00    +0.124 A 
ATOM     24  C   UNL     1       4.935   8.521  -8.111  0.00  0.00    +0.040 A 
ATOM     25  C   UNL     1       4.194   7.593  -7.406  0.00  0.00    +0.026 A 
ATOM     26  F   UNL     1       5.170   9.954  -9.982  0.00  0.00    -0.205 F 
ENDBRANCH  15  20
BRANCH   8  27
ATOM     27  N   UNL     1      -3.354   2.491  -5.243  0.00  0.00    -0.321 N 
ATOM     28  C   UNL     1      -4.654   3.166  -5.208  0.00  0.00    +0.130 C 
ATOM     29  C   UNL     1      -3.217   1.198  -5.918  0.00  0.00    +0.130 C 
ENDBRANCH   8  27
BRANCH   1  30
ATOM     30  C   UNL     1      -1.218  -0.365   0.237  0.00  0.00    +0.105 C 
BRANCH  30  31
ATOM     31  C   UNL     1      -2.122  -0.410   1.442  0.00  0.00    -0.036 A 
ATOM     32  C   UNL     1      -3.204  -1.270   1.463  0.00  0.00    +0.004 A 
ATOM     33  C   UNL     1      -4.032  -1.312   2.569  0.00  0.00    +0.000 A 
ATOM     34  C   UNL     1      -3.779  -0.493   3.654  0.00  0.00    +0.000 A 
ATOM     35  C   UNL     1      -2.696   0.367   3.633  0.00  0.00    +0.000 A 
ATOM     36  C   UNL     1      -1.865   0.405   2.529  0.00  0.00    +0.004 A 
ENDBRANCH  30  31
BRANCH  30  38
ATOM     37  C   UNL     1       0.420  -1.670  -1.127  0.00  0.00    +0.005 C 
ATOM     38  C   UNL     1      -0.603  -1.747   0.009  0.00  0.00    +0.014 C 
ENDBRANCH  30  38
ENDBRANCH   1  30
TORSDOF 5
