REMARK  Name = ZINC25693178
REMARK  10 active torsions:
REMARK  status: ('A' for Active; 'I' for Inactive)
REMARK    1  A    between atoms: C_4  and  C_7
REMARK    2  A    between atoms: C_7  and  C_8
REMARK    3  A    between atoms: C_8  and  O_10
REMARK    4  A    between atoms: O_10  and  N_11
REMARK    5  A    between atoms: N_11  and  C_12
REMARK    6  A    between atoms: C_12  and  C_14
REMARK    7  A    between atoms: C_12  and  N_18
REMARK    8  A    between atoms: N_18  and  C_19
REMARK    9  A    between atoms: C_21  and  N_29
REMARK   10  A    between atoms: C_24  and  N_25
REMARK                            x       y       z     vdW  Elec       q    Type
REMARK                         _______ _______ _______ _____ _____    ______ ____
ROOT
ATOM      1  C   UNL     1      -1.449  -1.948   0.142  0.00  0.00    +0.227 C 
ENDROOT
BRANCH   1   2
ATOM      2  C   UNL     1      -2.398  -2.459  -0.944  0.00  0.00    +0.224 C 
ATOM      3 CL   UNL     1      -1.746  -2.020  -2.567  0.00  0.00    -0.080 Cl
ATOM      4 CL   UNL     1      -2.542  -4.252  -0.820  0.00  0.00    -0.080 Cl
ATOM      5 CL   UNL     1      -4.022  -1.708  -0.725  0.00  0.00    -0.080 Cl
ENDBRANCH   1   2
BRANCH   1   6
ATOM      6  N   UNL     1      -1.979  -2.305   1.464  0.00  0.00    -0.127 NA
ATOM      7  H   UNL     1      -2.009  -3.307   1.583  0.00  0.00    +0.169 HD
BRANCH   6   8
ATOM      8  O   UNL     1      -3.156  -1.776   1.654  0.00  0.00    -0.367 OA
BRANCH   8   9
ATOM      9  C   UNL     1      -3.754  -2.027   2.829  0.00  0.00    +0.330 C 
ATOM     10  O   UNL     1      -3.201  -2.716   3.654  0.00  0.00    -0.249 OA
BRANCH   9  11
ATOM     11  C   UNL     1      -5.115  -1.450   3.120  0.00  0.00    +0.157 C 
BRANCH  11  15
ATOM     12  C   UNL     1      -6.374  -2.665   7.017  0.00  0.00    +0.000 A 
ATOM     13  C   UNL     1      -5.657  -1.494   6.856  0.00  0.00    +0.000 A 
ATOM     14  C   UNL     1      -5.249  -1.101   5.595  0.00  0.00    +0.004 A 
ATOM     15  C   UNL     1      -5.559  -1.879   4.495  0.00  0.00    -0.037 A 
ATOM     16  C   UNL     1      -6.281  -3.047   4.655  0.00  0.00    +0.004 A 
ATOM     17  C   UNL     1      -6.684  -3.442   5.917  0.00  0.00    +0.000 A 
ENDBRANCH  11  15
ENDBRANCH   9  11
ENDBRANCH   8   9
ENDBRANCH   6   8
ENDBRANCH   1   6
BRANCH   1  18
ATOM     18  N   UNL     1      -1.331  -0.491   0.040  0.00  0.00    -0.321 N 
ATOM     19  H   UNL     1      -2.229   0.123  -0.123  0.00  0.00    +0.148 HD
BRANCH  18  20
ATOM     20  C   UNL     1      -0.078   0.118   0.151  0.00  0.00    +0.061 A 
ATOM     21  C   UNL     1       1.069  -0.660   0.242  0.00  0.00    +0.059 A 
ATOM     22  C   UNL     1       2.305  -0.056   0.351  0.00  0.00    +0.146 A 
ATOM     23  C   UNL     1       2.403   1.325   0.371  0.00  0.00    +0.073 A 
ATOM     24  C   UNL     1       1.262   2.103   0.281  0.00  0.00    +0.057 A 
ATOM     25  C   UNL     1       0.023   1.503   0.171  0.00  0.00    +0.148 A 
ATOM     26 CL   UNL     1       3.959   2.081   0.508  0.00  0.00    -0.081 Cl
BRANCH  25  27
ATOM     27  N   UNL     1      -1.196   2.336   0.068  0.00  0.00    +0.058 N 
ATOM     28  O   UNL     1      -1.120   3.546   0.191  0.00  0.00    -0.126 OA
ATOM     29  O   UNL     1      -2.276   1.813  -0.140  0.00  0.00    -0.126 OA
ENDBRANCH  25  27
BRANCH  22  30
ATOM     30  N   UNL     1       3.528  -0.885   0.449  0.00  0.00    +0.058 N 
ATOM     31  O   UNL     1       3.442  -2.100   0.432  0.00  0.00    -0.126 OA
ATOM     32  O   UNL     1       4.619  -0.352   0.545  0.00  0.00    -0.126 OA
ENDBRANCH  22  30
ENDBRANCH  18  20
ENDBRANCH   1  18
TORSDOF 10
