REMARK  Name = ZINC32889203
REMARK  8 active torsions:
REMARK  status: ('A' for Active; 'I' for Inactive)
REMARK    1  A    between atoms: C_1  and  C_2
REMARK    2  A    between atoms: C_5  and  S_23
REMARK    3  A    between atoms: C_7  and  C_8
REMARK    4  A    between atoms: N_10  and  C_11
REMARK    5  A    between atoms: C_11  and  C_13
REMARK    6  A    between atoms: C_11  and  C_14
REMARK    7  A    between atoms: S_23  and  N_26
REMARK    8  A    between atoms: C_31  and  C_33
REMARK                            x       y       z     vdW  Elec       q    Type
REMARK                         _______ _______ _______ _____ _____    ______ ____
ROOT
ATOM      1  C   UNL     1       2.484  -1.612  -8.165  0.00  0.00    +0.044 C 
ATOM      2  C   UNL     1       2.700  -1.397  -6.690  0.00  0.00    -0.038 A 
ATOM      3  C   UNL     1       3.425  -0.309  -6.248  0.00  0.00    +0.006 A 
ATOM      4  C   UNL     1       3.624  -0.110  -4.894  0.00  0.00    +0.029 A 
ATOM      5  C   UNL     1       3.099  -1.000  -3.973  0.00  0.00    +0.106 A 
ATOM      6  C   UNL     1       2.378  -2.095  -4.401  0.00  0.00    +0.041 A 
ATOM      7  C   UNL     1       2.168  -2.298  -5.766  0.00  0.00    +0.041 A 
ENDROOT
BRANCH   7   8
ATOM      8  C   UNL     1       1.391  -3.466  -6.232  0.00  0.00    +0.245 C 
ATOM      9  O   UNL     1       1.166  -3.613  -7.418  0.00  0.00    -0.270 OA
ATOM     10  N   UNL     1       0.931  -4.368  -5.342  0.00  0.00    -0.305 N 
ATOM     11  H   UNL     1       1.135  -4.235  -4.269  0.00  0.00    +0.150 HD
BRANCH  10  12
ATOM     12  C   UNL     1       0.161  -5.526  -5.804  0.00  0.00    +0.101 C 
ATOM     13  C   UNL     1       1.120  -6.643  -6.220  0.00  0.00    +0.033 C 
BRANCH  12  14
ATOM     14  C   UNL     1      -0.727  -6.015  -4.689  0.00  0.00    -0.024 A 
ATOM     15  C   UNL     1      -0.251  -6.045  -3.391  0.00  0.00    +0.009 A 
ATOM     16  C   UNL     1      -1.062  -6.493  -2.365  0.00  0.00    +0.050 A 
ATOM     17  C   UNL     1      -2.354  -6.914  -2.635  0.00  0.00    +0.166 A 
ATOM     18  C   UNL     1      -2.833  -6.883  -3.942  0.00  0.00    +0.167 A 
ATOM     19  C   UNL     1      -2.017  -6.428  -4.965  0.00  0.00    +0.055 A 
ATOM     20  O   UNL     1      -4.119  -7.342  -3.947  0.00  0.00    -0.453 OA
ATOM     21  C   UNL     1      -4.558  -7.267  -2.578  0.00  0.00    +0.466 C 
ATOM     22  O   UNL     1      -3.340  -7.391  -1.820  0.00  0.00    -0.453 OA
ENDBRANCH  12  14
ENDBRANCH  10  12
ENDBRANCH   7   8
BRANCH   5  23
ATOM     23  S   UNL     1       3.358  -0.737  -2.250  0.00  0.00    +0.061 S 
ATOM     24  O   UNL     1       4.531   0.057  -2.132  0.00  0.00    -0.153 OA
ATOM     25  O   UNL     1       3.230  -2.005  -1.622  0.00  0.00    -0.153 OA
BRANCH  23  26
ATOM     26  N   UNL     1       2.102   0.192  -1.702  0.00  0.00    -0.174 NA
ATOM     27  C   UNL     1       2.246   1.649  -1.578  0.00  0.00    +0.110 C 
ATOM     28  C   UNL     1       1.867   2.063  -0.153  0.00  0.00    +0.017 C 
ATOM     29  C   UNL     1       0.465   1.541   0.169  0.00  0.00    +0.003 C 
ATOM     30  C   UNL     1       0.458   0.013   0.092  0.00  0.00    +0.020 C 
ATOM     31  C   UNL     1       0.821  -0.425  -1.330  0.00  0.00    +0.077 C 
ATOM     32  C   UNL     1       0.949  -1.948  -1.382  0.00  0.00    +0.026 C 
ENDBRANCH  23  26
ENDBRANCH   5  23
TORSDOF 5
