REMARK  Name = ZINC06023457
REMARK  9 active torsions:
REMARK  status: ('A' for Active; 'I' for Inactive)
REMARK    1  A    between atoms: C_1  and  C_2
REMARK    2  A    between atoms: C_7  and  N_8
REMARK    3  A    between atoms: N_8  and  C_9
REMARK    4  A    between atoms: N_12  and  S_13
REMARK    5  A    between atoms: S_13  and  C_16
REMARK    6  A    between atoms: C_19  and  C_22
REMARK    7  A    between atoms: C_22  and  C_23
REMARK    8  A    between atoms: C_22  and  C_24
REMARK    9  A    between atoms: C_22  and  C_25
REMARK                            x       y       z     vdW  Elec       q    Type
REMARK                         _______ _______ _______ _____ _____    ______ ____
ROOT
ATOM      1  C   UNL     1       0.659  -0.755   3.400  0.00  0.00    +0.081 C 
ATOM      2  C   UNL     1       0.577  -2.094   3.563  0.00  0.00    +0.057 C 
ATOM      3  C   UNL     1       0.482  -2.683   4.904  0.00  0.00    +0.095 C 
ATOM      4  N   UNL     1       0.404  -3.980   5.045  0.00  0.00    -0.128 NA
ATOM      5  C   UNL     1       0.476  -1.804   6.096  0.00  0.00    +0.013 A 
ATOM      6  C   UNL     1       0.387  -2.339   7.375  0.00  0.00    +0.011 A 
ATOM      7  C   UNL     1       0.383  -1.498   8.474  0.00  0.00    +0.001 A 
ATOM      8  C   UNL     1       0.467  -0.127   8.309  0.00  0.00    +0.001 A 
ATOM      9  C   UNL     1       0.556   0.422   7.044  0.00  0.00    +0.012 A 
ATOM     10  C   UNL     1       0.561  -0.411   5.927  0.00  0.00    +0.033 A 
ATOM     11  C   UNL     1       0.661   0.149   4.566  0.00  0.00    +0.208 C 
ATOM     12  O   UNL     1       0.740   1.352   4.405  0.00  0.00    -0.285 OA
ENDROOT
BRANCH   4  13
ATOM     13  S   UNL     1       1.104  -4.713   6.355  0.00  0.00    +0.099 S 
ATOM     14  O   UNL     1       2.144  -3.851   6.795  0.00  0.00    -0.146 OA
ATOM     15  O   UNL     1       0.043  -5.123   7.206  0.00  0.00    -0.146 OA
BRANCH  13  16
ATOM     16  C   UNL     1       1.880  -6.185   5.774  0.00  0.00    +0.112 A 
ATOM     17  C   UNL     1       1.173  -7.372   5.739  0.00  0.00    +0.029 A 
ATOM     18  C   UNL     1       1.782  -8.526   5.284  0.00  0.00    +0.006 A 
ATOM     19  C   UNL     1       3.099  -8.493   4.864  0.00  0.00    -0.042 A 
ATOM     20  C   UNL     1       3.806  -7.306   4.898  0.00  0.00    +0.006 A 
ATOM     21  C   UNL     1       3.195  -6.151   5.349  0.00  0.00    +0.029 A 
BRANCH  19  22
ATOM     22  C   UNL     1       3.763  -9.752   4.368  0.00  0.00    -0.013 C 
ATOM     23  C   UNL     1       3.001 -10.287   3.154  0.00  0.00    +0.015 C 
ATOM     24  C   UNL     1       5.207  -9.442   3.968  0.00  0.00    +0.015 C 
ATOM     25  C   UNL     1       3.756 -10.803   5.479  0.00  0.00    +0.015 C 
ENDBRANCH  19  22
ENDBRANCH  13  16
ENDBRANCH   4  13
BRANCH   1  26
ATOM     26  N   UNL     1       0.747  -0.225   2.121  0.00  0.00    -0.311 N 
ATOM     27  H   UNL     1       1.482  -0.478   1.541  0.00  0.00    +0.152 HD
BRANCH  26  34
ATOM     28  C   UNL     1       1.168   1.053  -0.386  0.00  0.00    +0.045 C 
ATOM     29  C   UNL     1      -0.057   1.320   0.450  0.00  0.00    -0.029 A 
ATOM     30  C   UNL     1      -1.020   2.203   0.003  0.00  0.00    +0.006 A 
ATOM     31  C   UNL     1      -2.144   2.450   0.769  0.00  0.00    +0.020 A 
ATOM     32  C   UNL     1      -2.309   1.812   1.987  0.00  0.00    +0.043 A 
ATOM     33  C   UNL     1      -1.349   0.927   2.440  0.00  0.00    +0.043 A 
ATOM     34  C   UNL     1      -0.222   0.673   1.669  0.00  0.00    +0.036 A 
ATOM     35 CL   UNL     1      -3.721   2.126   2.946  0.00  0.00    -0.083 Cl
ENDBRANCH  26  34
ENDBRANCH   1  26
TORSDOF 5
