REMARK  Name = ZINC22320831
REMARK  10 active torsions:
REMARK  status: ('A' for Active; 'I' for Inactive)
REMARK    1  A    between atoms: C_1  and  C_2
REMARK    2  A    between atoms: C_5  and  S_8
REMARK    3  A    between atoms: S_8  and  N_11
REMARK    4  A    between atoms: N_11  and  C_12
REMARK    5  A    between atoms: N_11  and  C_30
REMARK    6  A    between atoms: C_12  and  C_13
REMARK    7  A    between atoms: N_15  and  C_16
REMARK    8  A    between atoms: C_19  and  C_28
REMARK    9  A    between atoms: C_19  and  C_29
REMARK   10  A    between atoms: C_24  and  C_27
REMARK                            x       y       z     vdW  Elec       q    Type
REMARK                         _______ _______ _______ _____ _____    ______ ____
ROOT
ATOM      1  N   UNL     1       3.892   2.156   0.008  0.00  0.00    -0.194 N 
ENDROOT
BRANCH   1   2
ATOM      2  C   UNL     1       2.805   1.317   0.266  0.00  0.00    +0.052 A 
ATOM      3  C   UNL     1       1.533   1.853   0.419  0.00  0.00    +0.026 A 
ATOM      4  C   UNL     1       0.460   1.022   0.673  0.00  0.00    +0.022 A 
ATOM      5  C   UNL     1       0.651  -0.345   0.776  0.00  0.00    +0.041 A 
ATOM      6  C   UNL     1       1.918  -0.882   0.625  0.00  0.00    +0.022 A 
ATOM      7  C   UNL     1       2.994  -0.055   0.370  0.00  0.00    +0.026 A 
ATOM      8 CL   UNL     1      -0.700  -1.387   1.095  0.00  0.00    -0.084 Cl
ENDBRANCH   1   2
BRANCH   1   9
ATOM      9  S   UNL     1       3.653   3.618  -0.732  0.00  0.00    +0.075 S 
ATOM     10  O   UNL     1       4.877   3.955  -1.371  0.00  0.00    -0.150 OA
ATOM     11  O   UNL     1       2.425   3.517  -1.442  0.00  0.00    -0.150 OA
BRANCH   9  16
ATOM     12  C   UNL     1       2.799   7.705   3.623  0.00  0.00    +0.044 C 
ATOM     13  C   UNL     1       3.012   6.684   2.535  0.00  0.00    -0.050 A 
ATOM     14  C   UNL     1       4.295   6.330   2.161  0.00  0.00    +0.005 A 
ATOM     15  C   UNL     1       4.491   5.394   1.164  0.00  0.00    +0.029 A 
ATOM     16  C   UNL     1       3.403   4.811   0.539  0.00  0.00    +0.109 A 
ATOM     17  C   UNL     1       2.120   5.169   0.909  0.00  0.00    +0.029 A 
ATOM     18  C   UNL     1       1.925   6.103   1.910  0.00  0.00    +0.005 A 
ENDBRANCH   9  16
ENDBRANCH   1   9
BRANCH   1  19
ATOM     19  C   UNL     1       5.244   1.742   0.393  0.00  0.00    +0.227 C 
BRANCH  19  20
ATOM     20  C   UNL     1       5.835   0.882  -0.695  0.00  0.00    +0.233 C 
ATOM     21  O   UNL     1       5.190   0.639  -1.693  0.00  0.00    -0.274 OA
ATOM     22  N   UNL     1       7.079   0.384  -0.558  0.00  0.00    -0.307 N 
ATOM     23  H   UNL     1       7.664   0.605   0.347  0.00  0.00    +0.149 HD
BRANCH  22  24
ATOM     24  C   UNL     1       7.653  -0.453  -1.615  0.00  0.00    +0.111 C 
ATOM     25  C   UNL     1       9.181  -0.374  -1.554  0.00  0.00    +0.074 C 
ATOM     26  C   UNL     1       9.756  -1.469  -2.461  0.00  0.00    +0.107 C 
ATOM     27  O   UNL     1       9.392  -2.739  -1.919  0.00  0.00    -0.486 OA
ATOM     28  C   UNL     1       8.090  -2.937  -1.584  0.00  0.00    +0.126 A 
ATOM     29  C   UNL     1       7.211  -1.881  -1.421  0.00  0.00    +0.015 A 
ATOM     30  C   UNL     1       5.893  -2.128  -1.074  0.00  0.00    +0.012 A 
ATOM     31  C   UNL     1       5.452  -3.425  -0.892  0.00  0.00    -0.050 A 
ATOM     32  C   UNL     1       6.328  -4.482  -1.056  0.00  0.00    +0.007 A 
ATOM     33  C   UNL     1       7.643  -4.241  -1.401  0.00  0.00    +0.046 A 
ATOM     34  C   UNL     1       4.017  -3.687  -0.514  0.00  0.00    +0.044 C 
ATOM     35  C   UNL     1       9.181  -1.326  -3.871  0.00  0.00    +0.055 C 
ATOM     36  C   UNL     1      11.281  -1.348  -2.511  0.00  0.00    +0.055 C 
ENDBRANCH  22  24
ENDBRANCH  19  20
ENDBRANCH   1  19
TORSDOF 6
