REMARK  Name = ZINC15978676
REMARK  9 active torsions:
REMARK  status: ('A' for Active; 'I' for Inactive)
REMARK    1  A    between atoms: C_1  and  C_2
REMARK    2  A    between atoms: C_3  and  C_30
REMARK    3  A    between atoms: C_10  and  C_18
REMARK    4  A    between atoms: C_20  and  O_28
REMARK    5  A    between atoms: C_21  and  O_26
REMARK    6  A    between atoms: C_22  and  O_24
REMARK    7  A    between atoms: O_24  and  C_25
REMARK    8  A    between atoms: O_26  and  C_27
REMARK    9  A    between atoms: O_28  and  C_29
REMARK                            x       y       z     vdW  Elec       q    Type
REMARK                         _______ _______ _______ _____ _____    ______ ____
ROOT
ATOM      1  C   UNL     1      -0.944   1.196  -0.843  0.00  0.00    +0.054 C 
ATOM      2  C   UNL     1      -0.431  -0.149  -0.399  0.00  0.00    +0.016 A 
ATOM      3  C   UNL     1      -0.131  -0.596   0.860  0.00  0.00    +0.083 A 
ATOM      4  N   UNL     1       0.311  -1.832   1.023  0.00  0.00    -0.222 NA
ATOM      5  C   UNL     1       0.469  -2.646  -0.015  0.00  0.00    +0.172 A 
ATOM      6  S   UNL     1      -0.054  -1.603  -1.369  0.00  0.00    -0.054 S 
ATOM      7  N   UNL     1       0.904  -3.922  -0.041  0.00  0.00    -0.334 N 
ATOM      8  C   UNL     1       2.206  -4.179  -0.079  0.00  0.00    +0.055 A 
ATOM      9  C   UNL     1       3.160  -3.138  -0.203  0.00  0.00    +0.073 A 
ATOM     10  C   UNL     1       4.483  -3.443  -0.238  0.00  0.00    +0.138 A 
ATOM     11  O   UNL     1       4.936  -4.706  -0.161  0.00  0.00    -0.455 OA
ATOM     12  C   UNL     1       4.107  -5.766  -0.042  0.00  0.00    +0.138 A 
ATOM     13  C   UNL     1       2.720  -5.563   0.011  0.00  0.00    +0.041 A 
ATOM     14  C   UNL     1       1.857  -6.648   0.138  0.00  0.00    +0.013 A 
ATOM     15  C   UNL     1       2.375  -7.924   0.219  0.00  0.00    +0.001 A 
ATOM     16  C   UNL     1       3.746  -8.125   0.173  0.00  0.00    +0.004 A 
ATOM     17  C   UNL     1       4.609  -7.057   0.035  0.00  0.00    +0.047 A 
ATOM     18  H   UNL     1       0.266  -4.652  -0.030  0.00  0.00    +0.168 HD
ENDROOT
BRANCH  10  19
ATOM     19  C   UNL     1       5.461  -2.346  -0.367  0.00  0.00    +0.024 A 
ATOM     20  C   UNL     1       5.021  -1.022  -0.445  0.00  0.00    +0.061 A 
ATOM     21  C   UNL     1       5.939   0.004  -0.566  0.00  0.00    +0.166 A 
ATOM     22  C   UNL     1       7.301  -0.280  -0.611  0.00  0.00    +0.204 A 
ATOM     23  C   UNL     1       7.743  -1.599  -0.534  0.00  0.00    +0.166 A 
ATOM     24  C   UNL     1       6.829  -2.628  -0.407  0.00  0.00    +0.061 A 
BRANCH  23  25
ATOM     25  O   UNL     1       9.074  -1.873  -0.578  0.00  0.00    -0.491 OA
ATOM     26  C   UNL     1       9.456  -3.247  -0.494  0.00  0.00    +0.277 C 
ENDBRANCH  23  25
BRANCH  22  27
ATOM     27  O   UNL     1       8.202   0.731  -0.731  0.00  0.00    -0.488 OA
ATOM     28  C   UNL     1       8.694   1.308   0.480  0.00  0.00    +0.277 C 
ENDBRANCH  22  27
BRANCH  21  29
ATOM     29  O   UNL     1       5.512   1.293  -0.641  0.00  0.00    -0.491 OA
ATOM     30  C   UNL     1       4.101   1.513  -0.589  0.00  0.00    +0.277 C 
ENDBRANCH  21  29
ENDBRANCH  10  19
BRANCH   3  31
ATOM     31  C   UNL     1      -0.300   0.298   2.031  0.00  0.00    +0.001 A 
ATOM     32  C   UNL     1       0.678   0.344   3.023  0.00  0.00    +0.010 A 
ATOM     33  C   UNL     1       0.515   1.178   4.110  0.00  0.00    +0.001 A 
ATOM     34  C   UNL     1      -0.616   1.967   4.217  0.00  0.00    +0.000 A 
ATOM     35  C   UNL     1      -1.590   1.925   3.236  0.00  0.00    +0.001 A 
ATOM     36  C   UNL     1      -1.435   1.099   2.141  0.00  0.00    +0.010 A 
ENDBRANCH   3  31
TORSDOF 5
