REMARK  Name = ZINC19805393
REMARK  13 active torsions:
REMARK  status: ('A' for Active; 'I' for Inactive)
REMARK    1  A    between atoms: C_1  and  C_2
REMARK    2  A    between atoms: C_3  and  C_34
REMARK    3  A    between atoms: C_4  and  C_21
REMARK    4  A    between atoms: C_10  and  C_15
REMARK    5  A    between atoms: C_23  and  O_32
REMARK    6  A    between atoms: C_24  and  O_30
REMARK    7  A    between atoms: C_26  and  N_27
REMARK    8  A    between atoms: O_30  and  C_31
REMARK    9  A    between atoms: O_32  and  C_33
REMARK   10  A    between atoms: C_34  and  O_36
REMARK   11  A    between atoms: O_36  and  C_37
REMARK   12  A    between atoms: C_37  and  C_38
REMARK   13  A    between atoms: C_37  and  C_39
REMARK                            x       y       z     vdW  Elec       q    Type
REMARK                         _______ _______ _______ _____ _____    ______ ____
ROOT
ATOM      1  C   UNL     1      -0.858  -3.782  -1.904  0.00  0.00    +0.061 C 
ATOM      2  C   UNL     1       0.181  -3.157  -2.799  0.00  0.00    +0.016 C 
ATOM      3  C   UNL     1       0.498  -1.859  -2.649  0.00  0.00    +0.065 C 
ATOM      4  C   UNL     1       1.537  -1.207  -3.512  0.00  0.00    +0.095 C 
ATOM      5  C   UNL     1       1.798  -2.022  -4.754  0.00  0.00    +0.024 C 
ATOM      6  C   UNL     1       1.426  -3.318  -4.818  0.00  0.00    +0.016 C 
ATOM      7  N   UNL     1       0.792  -3.912  -3.760  0.00  0.00    -0.321 N 
ATOM      8  C   UNL     1       1.695  -4.143  -6.052  0.00  0.00    +0.059 C 
ATOM      9  C   UNL     1       1.665  -3.243  -7.289  0.00  0.00    +0.032 C 
ATOM     10  C   UNL     1       2.716  -2.142  -7.115  0.00  0.00    +0.088 C 
ATOM     11  C   UNL     1       2.436  -1.395  -5.839  0.00  0.00    +0.162 C 
ATOM     12  O   UNL     1       2.766  -0.230  -5.744  0.00  0.00    -0.292 OA
ATOM     13  H   UNL     1       0.777  -5.010  -3.689  0.00  0.00    +0.152 HD
ENDROOT
BRANCH   9  14
ATOM     14  C   UNL     1       1.984  -4.057  -8.516  0.00  0.00    -0.044 A 
ATOM     15  C   UNL     1       3.190  -4.726  -8.607  0.00  0.00    +0.004 A 
ATOM     16  C   UNL     1       3.481  -5.477  -9.731  0.00  0.00    +0.000 A 
ATOM     17  C   UNL     1       2.570  -5.551 -10.768  0.00  0.00    +0.000 A 
ATOM     18  C   UNL     1       1.366  -4.878 -10.679  0.00  0.00    +0.000 A 
ATOM     19  C   UNL     1       1.073  -4.131  -9.553  0.00  0.00    +0.004 A 
ENDBRANCH   9  14
BRANCH   4  20
ATOM     20  C   UNL     1       2.818  -1.073  -2.730  0.00  0.00    -0.001 A 
ATOM     21  C   UNL     1       3.499  -2.206  -2.323  0.00  0.00    +0.056 A 
ATOM     22  C   UNL     1       4.680  -2.085  -1.609  0.00  0.00    +0.162 A 
ATOM     23  C   UNL     1       5.171  -0.822  -1.292  0.00  0.00    +0.164 A 
ATOM     24  C   UNL     1       4.481   0.309  -1.697  0.00  0.00    +0.082 A 
ATOM     25  C   UNL     1       3.306   0.181  -2.415  0.00  0.00    +0.134 A 
BRANCH  25  26
ATOM     26  N   UNL     1       2.570   1.390  -2.848  0.00  0.00    +0.057 N 
ATOM     27  O   UNL     1       2.099   1.447  -3.970  0.00  0.00    -0.126 OA
ATOM     28  O   UNL     1       2.435   2.327  -2.082  0.00  0.00    -0.126 OA
ENDBRANCH  25  26
BRANCH  23  29
ATOM     29  O   UNL     1       6.327  -0.698  -0.585  0.00  0.00    -0.491 OA
ATOM     30  C   UNL     1       6.772   0.629  -0.297  0.00  0.00    +0.277 C 
ENDBRANCH  23  29
BRANCH  22  31
ATOM     31  O   UNL     1       5.354  -3.198  -1.213  0.00  0.00    -0.491 OA
ATOM     32  C   UNL     1       4.790  -4.460  -1.573  0.00  0.00    +0.277 C 
ENDBRANCH  22  31
ENDBRANCH   4  20
BRANCH   3  33
ATOM     33  C   UNL     1      -0.157  -1.096  -1.654  0.00  0.00    +0.338 C 
ATOM     34  O   UNL     1      -1.103  -1.566  -1.050  0.00  0.00    -0.245 OA
BRANCH  33  35
ATOM     35  O   UNL     1       0.268   0.154  -1.375  0.00  0.00    -0.459 OA
BRANCH  35  36
ATOM     36  C   UNL     1      -0.440   0.868  -0.359  0.00  0.00    +0.171 C 
ATOM     37  C   UNL     1      -0.386   2.368  -0.657  0.00  0.00    +0.052 C 
ATOM     38  C   UNL     1       0.206   0.594   1.001  0.00  0.00    +0.052 C 
ENDBRANCH  35  36
ENDBRANCH  33  35
ENDBRANCH   3  33
TORSDOF 8
