REMARK  Name = ZINC59640235
REMARK  4 active torsions:
REMARK  status: ('A' for Active; 'I' for Inactive)
REMARK    1  A    between atoms: C_1  and  N_2
REMARK    2  A    between atoms: N_9  and  N_10
REMARK    3  A    between atoms: C_11  and  C_12
REMARK    4  A    between atoms: C_17  and  O_18
REMARK                            x       y       z     vdW  Elec       q    Type
REMARK                         _______ _______ _______ _____ _____    ______ ____
ROOT
ATOM      1  C   UNL     1       2.713   1.474  -0.953  0.00  0.00    +0.127 C 
ATOM      2  N   UNL     1       2.368   0.051  -0.897  0.00  0.00    -0.330 N 
ATOM      3  C   UNL     1       2.443  -0.633   0.306  0.00  0.00    +0.159 A 
ATOM      4  C   UNL     1       2.122  -1.993   0.370  0.00  0.00    +0.181 A 
ATOM      5  C   UNL     1       2.212  -2.634   1.592  0.00  0.00    +0.156 A 
ATOM      6  N   UNL     1       2.596  -1.947   2.658  0.00  0.00    -0.219 NA
ATOM      7  C   UNL     1       2.895  -0.660   2.567  0.00  0.00    +0.237 A 
ATOM      8  N   UNL     1       2.827  -0.009   1.415  0.00  0.00    -0.195 NA
ATOM      9  N   UNL     1       3.292   0.023   3.705  0.00  0.00    -0.205 N 
ATOM     10  F   UNL     1       1.733  -2.664  -0.736  0.00  0.00    -0.200 F 
ATOM     11  H   UNL     1       2.087  -0.411  -1.702  0.00  0.00    +0.147 HD
ATOM     12  H   UNL     1       3.514   0.966   3.653  0.00  0.00    +0.177 HD
ENDROOT
BRANCH   9  13
ATOM     13  N   UNL     1       3.375  -0.649   4.932  0.00  0.00    -0.187 NA
ATOM     14  C   UNL     1       3.643   0.012   6.017  0.00  0.00    +0.142 C 
BRANCH  14  15
ATOM     15  C   UNL     1       3.608   1.485   6.010  0.00  0.00    +0.038 A 
ATOM     16  C   UNL     1       2.809   2.164   5.087  0.00  0.00    +0.028 A 
ATOM     17  C   UNL     1       2.780   3.544   5.086  0.00  0.00    +0.020 A 
ATOM     18  C   UNL     1       3.541   4.259   5.997  0.00  0.00    +0.034 A 
ATOM     19  C   UNL     1       4.336   3.597   6.915  0.00  0.00    +0.061 A 
ATOM     20  C   UNL     1       4.371   2.212   6.933  0.00  0.00    +0.139 A 
ATOM     21 BR   UNL     1       5.370   4.585   8.152  0.00  0.00    -0.046 Br
ATOM     22 BR   UNL     1       1.699   4.462   3.835  0.00  0.00    -0.050 Br
BRANCH  20  23
ATOM     23  O   UNL     1       5.146   1.562   7.839  0.00  0.00    -0.505 OA
ATOM     24  H   UNL     1       6.021   1.319   7.506  0.00  0.00    +0.292 HD
ENDBRANCH  20  23
ENDBRANCH  14  15
ENDBRANCH   9  13
TORSDOF 3
