REMARK  Name = ZINC33708595
REMARK  11 active torsions:
REMARK  status: ('A' for Active; 'I' for Inactive)
REMARK    1  A    between atoms: C_1  and  C_2
REMARK    2  A    between atoms: C_2  and  C_3
REMARK    3  A    between atoms: C_7  and  C_40
REMARK    4  A    between atoms: C_8  and  N_9
REMARK    5  A    between atoms: C_14  and  C_31
REMARK    6  A    between atoms: C_17  and  C_22
REMARK    7  A    between atoms: C_17  and  C_28
REMARK    8  A    between atoms: C_33  and  C_39
REMARK    9  A    between atoms: C_34  and  O_38
REMARK   10  A    between atoms: C_35  and  C_37
REMARK   11  A    between atoms: C_40  and  C_41
REMARK                            x       y       z     vdW  Elec       q    Type
REMARK                         _______ _______ _______ _____ _____    ______ ____
ROOT
ATOM      1  N   UNL     1       2.769  -0.797   1.483  0.00  0.00    -0.209 N 
ATOM      2  C   UNL     1       3.083   0.495   1.140  0.00  0.00    +0.229 C 
ATOM      3  O   UNL     1       4.160   1.044   1.235  0.00  0.00    -0.275 OA
ATOM      4  C   UNL     1       1.851   1.059   0.641  0.00  0.00    +0.078 C 
ATOM      5  C   UNL     1       1.389   2.159  -0.226  0.00  0.00    -0.026 C 
ATOM      6  N   UNL     1      -0.059   1.812  -0.440  0.00  0.00    +0.398 N 
ATOM      7  C   UNL     1      -0.214   0.344  -0.211  0.00  0.00    +0.074 C 
ATOM      8  C   UNL     1       1.198  -0.194  -0.062  0.00  0.00    +0.090 C 
ATOM      9  C   UNL     1       1.557  -1.193   0.991  0.00  0.00    +0.229 C 
ATOM     10  O   UNL     1       0.907  -2.156   1.337  0.00  0.00    -0.275 OA
ATOM     11  H   UNL     1      -0.680   2.377   0.271  0.00  0.00    -0.083 HD
ATOM     12  H   UNL     1      -0.350   2.072  -1.468  0.00  0.00    -0.083 HD
ENDROOT
BRANCH   5  13
ATOM     13  C   UNL     1       1.524   3.487   0.474  0.00  0.00    -0.060 A 
ATOM     14  C   UNL     1       0.924   3.683   1.704  0.00  0.00    +0.009 A 
ATOM     15  C   UNL     1       1.051   4.897   2.350  0.00  0.00    -0.009 A 
ATOM     16  C   UNL     1       1.773   5.924   1.759  0.00  0.00    +0.123 A 
ATOM     17  C   UNL     1       2.370   5.726   0.522  0.00  0.00    -0.009 A 
ATOM     18  C   UNL     1       2.244   4.508  -0.117  0.00  0.00    +0.009 A 
ATOM     19  C   UNL     1       3.155   6.840  -0.122  0.00  0.00    +0.047 C 
ATOM     20  C   UNL     1       0.401   5.109   3.693  0.00  0.00    +0.047 C 
BRANCH  16  21
ATOM     21  O   UNL     1       1.894   7.122   2.390  0.00  0.00    -0.506 OA
ATOM     22  H   UNL     1       2.466   7.935   1.920  0.00  0.00    +0.292 HD
ENDBRANCH  16  21
ENDBRANCH   5  13
BRANCH   1  28
ATOM     23  C   UNL     1       3.484  -1.629   3.637  0.00  0.00    -0.026 A 
ATOM     24  C   UNL     1       4.302  -2.446   4.393  0.00  0.00    +0.005 A 
ATOM     25  C   UNL     1       5.246  -3.245   3.775  0.00  0.00    +0.001 A 
ATOM     26  C   UNL     1       5.370  -3.233   2.398  0.00  0.00    +0.005 A 
ATOM     27  C   UNL     1       4.551  -2.423   1.636  0.00  0.00    -0.026 A 
ATOM     28  C   UNL     1       3.603  -1.620   2.254  0.00  0.00    +0.050 A 
BRANCH  23  30
ATOM     29  C   UNL     1       1.111  -1.474   4.340  0.00  0.00    +0.009 C 
ATOM     30  C   UNL     1       2.460  -0.753   4.312  0.00  0.00    +0.033 C 
ENDBRANCH  23  30
BRANCH  27  31
ATOM     31  C   UNL     1       4.686  -2.412   0.135  0.00  0.00    +0.033 C 
ATOM     32  C   UNL     1       5.601  -1.261  -0.286  0.00  0.00    +0.009 C 
ENDBRANCH  27  31
ENDBRANCH   1  28
BRANCH   7  33
ATOM     33  C   UNL     1      -1.006   0.092   1.046  0.00  0.00    -0.047 A 
ATOM     34  C   UNL     1      -1.418  -1.190   1.359  0.00  0.00    +0.003 A 
ATOM     35  C   UNL     1      -2.140  -1.422   2.514  0.00  0.00    +0.000 A 
ATOM     36  C   UNL     1      -2.459  -0.370   3.353  0.00  0.00    +0.000 A 
ATOM     37  C   UNL     1      -2.051   0.913   3.038  0.00  0.00    +0.000 A 
ATOM     38  C   UNL     1      -1.325   1.144   1.884  0.00  0.00    +0.003 A 
ENDBRANCH   7  33
BRANCH   7  39
ATOM     39  C   UNL     1      -0.894  -0.299  -1.393  0.00  0.00    +0.350 C 
ATOM     40  O   UNL     1      -0.566  -1.406  -1.750  0.00  0.00    -0.248 OA
ATOM     41  O   UNL     1      -1.865   0.358  -2.047  0.00  0.00    -0.248 OA
ENDBRANCH   7  39
TORSDOF 7
