REMARK  Name = ZINC67462446
REMARK  5 active torsions:
REMARK  status: ('A' for Active; 'I' for Inactive)
REMARK    1  A    between atoms: C_1  and  C_2
REMARK    2  A    between atoms: N_14  and  C_15
REMARK    3  A    between atoms: C_15  and  C_16
REMARK    4  A    between atoms: C_16  and  C_17
REMARK    5  A    between atoms: C_17  and  C_18
REMARK                            x       y       z     vdW  Elec       q    Type
REMARK                         _______ _______ _______ _____ _____    ______ ____
ROOT
ATOM      1  C   UNL     1       2.782  -1.526   0.267  0.00  0.00    +0.035 C 
ATOM      2  C   UNL     1       2.211  -0.423   1.160  0.00  0.00    +0.121 C 
ATOM      3  C   UNL     1       2.574   0.933   0.601  0.00  0.00    +0.039 A 
ATOM      4  C   UNL     1       3.783   1.515   0.585  0.00  0.00    +0.024 A 
ATOM      5  C   UNL     1       3.636   2.769  -0.044  0.00  0.00    +0.019 A 
ATOM      6  C   UNL     1       2.337   2.902  -0.384  0.00  0.00    +0.086 A 
ATOM      7  N   UNL     1       1.675   1.780   0.012  0.00  0.00    -0.347 N 
ATOM      8  C   UNL     1       0.244   1.500  -0.145  0.00  0.00    +0.140 C 
ATOM      9  C   UNL     1       0.006  -0.007   0.002  0.00  0.00    +0.131 C 
ATOM     10  N   UNL     1       0.738  -0.503   1.179  0.00  0.00    -0.276 N 
ATOM     11  C   UNL     1       0.084  -1.014   2.240  0.00  0.00    +0.303 C 
ATOM     12  O   UNL     1      -1.131  -0.986   2.278  0.00  0.00    -0.253 OA
ATOM     13  N   UNL     1       0.777  -1.557   3.261  0.00  0.00    -0.299 N 
ATOM     14  H   UNL     1       1.746  -1.516   3.266  0.00  0.00    +0.150 HD
ENDROOT
BRANCH  13  15
ATOM     15  C   UNL     1       0.066  -2.210   4.364  0.00  0.00    +0.106 C 
BRANCH  15  16
ATOM     16  C   UNL     1       1.079  -2.737   5.382  0.00  0.00    +0.026 C 
BRANCH  16  17
ATOM     17  C   UNL     1       0.337  -3.419   6.533  0.00  0.00    +0.078 C 
BRANCH  17  18
ATOM     18  C   UNL     1       1.334  -3.938   7.536  0.00  0.00    +0.134 A 
ATOM     19  N   UNL     1       1.894  -5.119   7.535  0.00  0.00    -0.134 NA
ATOM     20  N   UNL     1       2.700  -5.219   8.533  0.00  0.00    -0.134 NA
ATOM     21  C   UNL     1       2.693  -4.107   9.212  0.00  0.00    +0.133 A 
ATOM     22  N   UNL     1       1.823  -3.268   8.603  0.00  0.00    -0.315 N 
ATOM     23  C   UNL     1       1.474  -1.914   9.033  0.00  0.00    +0.125 C 
ATOM     24  C   UNL     1       2.655  -1.300   9.790  0.00  0.00    +0.022 C 
ATOM     25  C   UNL     1       2.545  -1.636  11.277  0.00  0.00    +0.002 C 
ATOM     26  C   UNL     1       2.592  -3.146  11.489  0.00  0.00    +0.008 C 
ATOM     27  C   UNL     1       3.501  -3.786  10.442  0.00  0.00    +0.076 C 
ENDBRANCH  17  18
ENDBRANCH  16  17
ENDBRANCH  15  16
ENDBRANCH  13  15
TORSDOF 4
