REMARK  Name = ZINC43737371
REMARK  6 active torsions:
REMARK  status: ('A' for Active; 'I' for Inactive)
REMARK    1  A    between atoms: C_1  and  C_2
REMARK    2  A    between atoms: N_14  and  N_15
REMARK    3  A    between atoms: N_15  and  C_16
REMARK    4  A    between atoms: C_16  and  N_18
REMARK    5  A    between atoms: C_22  and  C_29
REMARK    6  A    between atoms: C_25  and  O_28
REMARK                            x       y       z     vdW  Elec       q    Type
REMARK                         _______ _______ _______ _____ _____    ______ ____
ROOT
ATOM      1  C   UNL     1      -0.019   1.526   0.010  0.00  0.00    +0.018 C 
ATOM      2  C   UNL     1       0.002  -0.004   0.002  0.00  0.00    +0.011 C 
ATOM      3  C   UNL     1       0.635  -0.474  -1.287  0.00  0.00    +0.013 C 
ATOM      4  C   UNL     1       0.835  -1.990  -1.288  0.00  0.00    +0.005 C 
ATOM      5  C   UNL     1       1.733  -2.360  -0.102  0.00  0.00    +0.003 C 
ATOM      6  C   UNL     1       1.008  -1.990   1.189  0.00  0.00    +0.001 C 
ATOM      7  C   UNL     1       0.750  -0.493   1.256  0.00  0.00    +0.005 C 
ATOM      8  C   UNL     1      -0.330  -0.278   2.358  0.00  0.00    +0.010 C 
ATOM      9  C   UNL     1      -1.646  -0.676   1.654  0.00  0.00    +0.053 C 
ATOM     10  C   UNL     1      -1.412  -0.507   0.163  0.00  0.00    +0.043 C 
ATOM     11  N   UNL     1      -2.251  -0.745  -0.774  0.00  0.00    -0.189 NA
ATOM     12  C   UNL     1      -0.335  -2.727   1.218  0.00  0.00    +0.031 C 
ATOM     13  C   UNL     1      -0.087  -4.200   1.063  0.00  0.00    -0.027 C 
ATOM     14  C   UNL     1       0.959  -4.687   0.463  0.00  0.00    -0.065 C 
ATOM     15  C   UNL     1       2.038  -3.848  -0.129  0.00  0.00    -0.008 C 
ATOM     16  C   UNL     1       2.289  -4.306  -1.568  0.00  0.00    +0.014 C 
ATOM     17  C   UNL     1       2.566  -5.811  -1.581  0.00  0.00    +0.032 C 
ATOM     18  C   UNL     1       1.335  -6.566  -1.077  0.00  0.00    +0.119 C 
ATOM     19  C   UNL     1       1.094  -6.197   0.364  0.00  0.00    +0.062 C 
ATOM     20  C   UNL     1       3.322  -4.088   0.667  0.00  0.00    +0.016 C 
ENDROOT
BRANCH  11  21
ATOM     21  N   UNL     1      -3.535  -1.211  -0.464  0.00  0.00    -0.219 N 
ATOM     22  H   UNL     1      -3.789  -1.354   0.462  0.00  0.00    +0.176 HD
BRANCH  21  23
ATOM     23  C   UNL     1      -4.418  -1.461  -1.450  0.00  0.00    +0.147 C 
ATOM     24  S   UNL     1      -5.987  -2.031  -1.071  0.00  0.00    -0.017 S 
BRANCH  23  25
ATOM     25  N   UNL     1      -4.066  -1.263  -2.736  0.00  0.00    -0.339 N 
ATOM     26  H   UNL     1      -3.177  -0.940  -2.951  0.00  0.00    +0.144 HD
ATOM     27  H   UNL     1      -4.702  -1.443  -3.446  0.00  0.00    +0.144 HD
ENDBRANCH  23  25
ENDBRANCH  21  23
ENDBRANCH  11  21
BRANCH  18  28
ATOM     28  O   UNL     1       0.201  -6.213  -1.872  0.00  0.00    -0.391 OA
ATOM     29  H   UNL     1      -0.617  -6.656  -1.609  0.00  0.00    +0.210 HD
ENDBRANCH  18  28
TORSDOF 4
