REMARK  Name = ZINC36028172
REMARK  12 active torsions:
REMARK  status: ('A' for Active; 'I' for Inactive)
REMARK    1  A    between atoms: C_1  and  C_2
REMARK    2  A    between atoms: C_2  and  C_3
REMARK    3  A    between atoms: C_3  and  C_5
REMARK    4  A    between atoms: C_3  and  C_6
REMARK    5  A    between atoms: C_6  and  N_7
REMARK    6  A    between atoms: C_10  and  C_32
REMARK    7  A    between atoms: N_16  and  S_19
REMARK    8  A    between atoms: S_19  and  C_22
REMARK    9  A    between atoms: C_26  and  C_28
REMARK   10  A    between atoms: C_32  and  C_34
REMARK   11  A    between atoms: C_32  and  C_35
REMARK   12  A    between atoms: C_35  and  C_36
REMARK                            x       y       z     vdW  Elec       q    Type
REMARK                         _______ _______ _______ _____ _____    ______ ____
ROOT
ATOM      1  N   UNL     1       1.365  -2.514   2.386  0.00  0.00    -0.313 N 
ATOM      2  C   UNL     1       2.695  -2.663   2.557  0.00  0.00    +0.201 C 
ATOM      3  O   UNL     1       3.548  -2.417   1.731  0.00  0.00    -0.277 OA
ATOM      4  C   UNL     1       2.944  -3.190   3.954  0.00  0.00    +0.022 C 
ATOM      5  N   UNL     1       1.679  -2.935   4.685  0.00  0.00    +0.401 N 
ATOM      6  C   UNL     1       0.667  -2.915   3.611  0.00  0.00    +0.006 C 
ATOM      7  C   UNL     1       0.070  -4.312   3.445  0.00  0.00    +0.023 C 
ATOM      8  C   UNL     1      -0.953  -4.295   2.304  0.00  0.00    +0.109 C 
ATOM      9  N   UNL     1      -1.937  -3.236   2.567  0.00  0.00    -0.177 NA
ATOM     10  C   UNL     1      -1.456  -1.870   2.813  0.00  0.00    +0.109 C 
ATOM     11  C   UNL     1      -0.429  -1.907   3.950  0.00  0.00    +0.023 C 
ATOM     12  H   UNL     1       1.491  -3.677   5.342  0.00  0.00    -0.082 HD
ATOM     13  H   UNL     1       1.712  -2.042   5.154  0.00  0.00    -0.082 HD
ENDROOT
BRANCH   9  14
ATOM     14  S   UNL     1      -3.557  -3.576   2.584  0.00  0.00    +0.061 S 
ATOM     15  O   UNL     1      -4.231  -2.358   2.300  0.00  0.00    -0.153 OA
ATOM     16  O   UNL     1      -3.735  -4.747   1.798  0.00  0.00    -0.153 OA
BRANCH  14  17
ATOM     17  C   UNL     1      -3.980  -4.012   4.238  0.00  0.00    +0.106 A 
ATOM     18  C   UNL     1      -3.902  -5.330   4.647  0.00  0.00    +0.028 A 
ATOM     19  C   UNL     1      -4.234  -5.672   5.945  0.00  0.00    +0.002 A 
ATOM     20  C   UNL     1      -4.644  -4.695   6.834  0.00  0.00    +0.012 A 
ATOM     21  C   UNL     1      -4.720  -3.377   6.425  0.00  0.00    +0.057 A 
ATOM     22  C   UNL     1      -4.384  -3.035   5.128  0.00  0.00    +0.041 A 
BRANCH  21  23
ATOM     23  C   UNL     1      -5.167  -2.313   7.394  0.00  0.00    +0.417 C 
ATOM     24  F   UNL     1      -5.446  -2.898   8.633  0.00  0.00    -0.166 F 
ATOM     25  F   UNL     1      -4.150  -1.363   7.544  0.00  0.00    -0.166 F 
ATOM     26  F   UNL     1      -6.319  -1.689   6.903  0.00  0.00    -0.166 F 
ENDBRANCH  21  23
ENDBRANCH  14  17
ENDBRANCH   9  14
BRANCH   4  27
ATOM     27  C   UNL     1       4.102  -2.436   4.610  0.00  0.00    -0.020 C 
ATOM     28  C   UNL     1       4.312  -2.960   6.032  0.00  0.00    +0.006 C 
BRANCH  27  29
ATOM     29  C   UNL     1       5.378  -2.652   3.793  0.00  0.00    -0.001 C 
ATOM     30  C   UNL     1       6.507  -1.800   4.376  0.00  0.00    +0.004 C 
ENDBRANCH  27  29
ENDBRANCH   4  27
BRANCH   1  31
ATOM     31  C   UNL     1       0.720  -2.020   1.168  0.00  0.00    +0.109 C 
BRANCH  31  32
ATOM     32  C   UNL     1       0.919  -0.507   1.062  0.00  0.00    +0.003 C 
ATOM     33  C   UNL     1       0.499   0.156   2.376  0.00  0.00    +0.009 C 
BRANCH  32  35
ATOM     34  C   UNL     1       0.358   1.532  -0.269  0.00  0.00    +0.004 C 
ATOM     35  C   UNL     1       0.064   0.042  -0.082  0.00  0.00    +0.001 C 
ENDBRANCH  32  35
ENDBRANCH  31  32
ENDBRANCH   1  31
TORSDOF 8
