REMARK  Name = ZINC09361416
REMARK  2 active torsions:
REMARK  status: ('A' for Active; 'I' for Inactive)
REMARK    1  A    between atoms: C_3  and  N_10
REMARK    2  A    between atoms: C_5  and  N_7
REMARK                            x       y       z     vdW  Elec       q    Type
REMARK                         _______ _______ _______ _____ _____    ______ ____
ROOT
ATOM      1  N   UNL     1       1.743   5.947  -2.769  0.00  0.00    -0.210 N 
ATOM      2  C   UNL     1       2.351   6.631  -1.740  0.00  0.00    +0.228 C 
ATOM      3  O   UNL     1       3.286   7.400  -1.804  0.00  0.00    -0.275 OA
ATOM      4  C   UNL     1       1.618   6.221  -0.568  0.00  0.00    +0.074 C 
ATOM      5  C   UNL     1       1.492   6.497   0.872  0.00  0.00    -0.054 C 
ATOM      6  C   UNL     1       2.449   5.582   1.683  0.00  0.00    -0.016 C 
ATOM      7  C   UNL     1       1.626   5.248   2.949  0.00  0.00    -0.020 C 
ATOM      8  C   UNL     1       0.187   5.149   2.404  0.00  0.00    -0.076 C 
ATOM      9  C   UNL     1      -0.421   5.294   0.040  0.00  0.00    +0.053 C 
ATOM     10  C   UNL     1       0.153   6.082  -1.121  0.00  0.00    +0.089 C 
ATOM     11  C   UNL     1       0.528   5.429  -2.415  0.00  0.00    +0.229 C 
ATOM     12  O   UNL     1      -0.117   4.604  -3.026  0.00  0.00    -0.275 OA
ATOM     13  C   UNL     1      -0.043   3.846   0.028  0.00  0.00    -0.026 A 
ATOM     14  C   UNL     1       1.155   3.166   0.009  0.00  0.00    +0.019 A 
ATOM     15  C   UNL     1       1.177   1.783   0.000  0.00  0.00    +0.018 A 
ATOM     16  C   UNL     1      -0.013   1.076   0.008  0.00  0.00    +0.017 A 
ATOM     17  C   UNL     1      -1.216   1.748   0.017  0.00  0.00    +0.024 A 
ATOM     18  C   UNL     1      -1.245   3.140   0.032  0.00  0.00    +0.036 A 
ATOM     19  N   UNL     1      -2.326   4.026   0.044  0.00  0.00    -0.286 N 
ATOM     20  C   UNL     1      -1.927   5.312   0.046  0.00  0.00    +0.212 C 
ATOM     21  O   UNL     1      -2.641   6.293   0.051  0.00  0.00    -0.277 OA
ATOM     22 BR   UNL     1       2.828   0.861  -0.021  0.00  0.00    -0.050 Br
ATOM     23  H   UNL     1      -3.255   3.747   0.050  0.00  0.00    +0.155 HD
ATOM     24  N   UNL     1       0.132   6.037   1.214  0.00  0.00    +0.395 N 
ATOM     25  H   UNL     1      -0.465   6.846   1.421  0.00  0.00    -0.079 HD
ENDROOT
BRANCH   1  28
ATOM     26  C   UNL     1       2.189   4.950  -6.283  0.00  0.00    +0.004 A 
ATOM     27  C   UNL     1       1.630   5.094  -5.028  0.00  0.00    +0.024 A 
ATOM     28  C   UNL     1       2.308   5.799  -4.044  0.00  0.00    +0.046 A 
ATOM     29  C   UNL     1       3.546   6.362  -4.325  0.00  0.00    +0.056 A 
ATOM     30  C   UNL     1       4.103   6.210  -5.580  0.00  0.00    +0.128 A 
ATOM     31  C   UNL     1       3.424   5.507  -6.559  0.00  0.00    +0.033 A 
BRANCH  30  32
ATOM     32  N   UNL     1       5.425   6.804  -5.879  0.00  0.00    +0.056 N 
ATOM     33  O   UNL     1       5.915   6.674  -6.987  0.00  0.00    -0.126 OA
ATOM     34  O   UNL     1       6.023   7.423  -5.018  0.00  0.00    -0.126 OA
ENDBRANCH  30  32
ENDBRANCH   1  28
TORSDOF 2
