REMARK  Name = ZINC21222150
REMARK  8 active torsions:
REMARK  status: ('A' for Active; 'I' for Inactive)
REMARK    1  A    between atoms: C_1  and  C_2
REMARK    2  A    between atoms: C_2  and  O_3
REMARK    3  A    between atoms: O_3  and  C_4
REMARK    4  A    between atoms: C_6  and  C_14
REMARK    5  A    between atoms: C_9  and  O_10
REMARK    6  A    between atoms: O_10  and  C_11
REMARK    7  A    between atoms: C_11  and  C_13
REMARK    8  A    between atoms: C_19  and  C_24
REMARK                            x       y       z     vdW  Elec       q    Type
REMARK                         _______ _______ _______ _____ _____    ______ ____
ROOT
ATOM      1  C   UNL     1       2.531  -0.178  -3.002  0.00  0.00    +0.136 C 
ATOM      2  C   UNL     1       1.746   0.212  -1.773  0.00  0.00    +0.036 C 
ATOM      3  C   UNL     1       0.735  -0.486  -1.228  0.00  0.00    +0.017 C 
ATOM      4  C   UNL     1       0.032   0.023   0.019  0.00  0.00    +0.059 C 
ATOM      5  C   UNL     1       0.019   1.551   0.023  0.00  0.00    +0.032 C 
ATOM      6  C   UNL     1       1.476   2.029   0.001  0.00  0.00    +0.088 C 
ATOM      7  C   UNL     1       2.154   1.440  -1.200  0.00  0.00    +0.163 C 
ATOM      8  O   UNL     1       3.087   2.038  -1.699  0.00  0.00    -0.292 OA
ATOM      9  N   UNL     1       0.269  -1.669  -1.702  0.00  0.00    -0.316 N 
ATOM     10  C   UNL     1      -0.013  -1.935  -3.037  0.00  0.00    +0.052 A 
ATOM     11  C   UNL     1      -1.295  -2.202  -3.485  0.00  0.00    +0.025 A 
ATOM     12  C   UNL     1      -1.498  -2.506  -4.821  0.00  0.00    +0.002 A 
ATOM     13  C   UNL     1      -0.429  -2.545  -5.697  0.00  0.00    +0.002 A 
ATOM     14  C   UNL     1       0.851  -2.262  -5.254  0.00  0.00    +0.025 A 
ATOM     15  C   UNL     1       1.054  -1.936  -3.923  0.00  0.00    +0.049 A 
ATOM     16  N   UNL     1       2.304  -1.534  -3.455  0.00  0.00    -0.331 N 
ATOM     17  H   UNL     1       0.086  -2.505  -1.011  0.00  0.00    +0.152 HD
ATOM     18  H   UNL     1       3.125  -2.266  -3.433  0.00  0.00    +0.147 HD
ENDROOT
BRANCH   5  19
ATOM     19  C   UNL     1      -0.664   2.053   1.269  0.00  0.00    -0.043 A 
ATOM     20  C   UNL     1      -0.163   1.720   2.513  0.00  0.00    +0.005 A 
ATOM     21  C   UNL     1      -0.786   2.185   3.656  0.00  0.00    +0.020 A 
ATOM     22  C   UNL     1      -1.918   2.974   3.554  0.00  0.00    +0.041 A 
ATOM     23  C   UNL     1      -2.422   3.302   2.309  0.00  0.00    +0.020 A 
ATOM     24  C   UNL     1      -1.795   2.841   1.166  0.00  0.00    +0.005 A 
ATOM     25 CL   UNL     1      -2.705   3.553   4.990  0.00  0.00    -0.084 Cl
ENDBRANCH   5  19
BRANCH   1  28
ATOM     26  C   UNL     1       2.781   2.487  -5.669  0.00  0.00    +0.163 A 
ATOM     27  C   UNL     1       3.116   1.622  -4.639  0.00  0.00    +0.055 A 
ATOM     28  C   UNL     1       2.164   0.765  -4.119  0.00  0.00    -0.019 A 
ATOM     29  C   UNL     1       0.874   0.776  -4.617  0.00  0.00    +0.009 A 
ATOM     30  C   UNL     1       0.532   1.639  -5.640  0.00  0.00    +0.050 A 
ATOM     31  C   UNL     1       1.483   2.497  -6.170  0.00  0.00    +0.173 A 
BRANCH  26  32
ATOM     32  O   UNL     1       3.718   3.327  -6.184  0.00  0.00    -0.489 OA
BRANCH  32  34
ATOM     33  C   UNL     1       5.938   4.271  -6.324  0.00  0.00    +0.048 C 
ATOM     34  C   UNL     1       5.029   3.260  -5.621  0.00  0.00    +0.226 C 
ENDBRANCH  32  34
ENDBRANCH  26  32
BRANCH  31  35
ATOM     35  O   UNL     1       1.148   3.348  -7.177  0.00  0.00    -0.422 OA
BRANCH  35  36
ATOM     36  C   UNL     1       1.410   2.943  -8.429  0.00  0.00    +0.309 C 
ATOM     37  O   UNL     1       1.836   1.830  -8.628  0.00  0.00    -0.251 OA
ATOM     38  C   UNL     1       1.174   3.877  -9.588  0.00  0.00    +0.136 C 
ENDBRANCH  35  36
ENDBRANCH  31  35
ENDBRANCH   1  28
TORSDOF 6
