REMARK  Name = ZINC39687113
REMARK  6 active torsions:
REMARK  status: ('A' for Active; 'I' for Inactive)
REMARK    1  A    between atoms: C_1  and  C_2
REMARK    2  A    between atoms: C_2  and  C_4
REMARK    3  A    between atoms: C_2  and  N_12
REMARK    4  A    between atoms: C_4  and  C_5
REMARK    5  A    between atoms: C_13  and  C_15
REMARK    6  A    between atoms: C_26  and  C_28
REMARK                            x       y       z     vdW  Elec       q    Type
REMARK                         _______ _______ _______ _____ _____    ______ ____
ROOT
ATOM      1  C   UNL     1       2.878  -1.373   1.887  0.00  0.00    +0.100 C 
ATOM      2  C   UNL     1       2.606  -2.868   2.164  0.00  0.00    +0.121 C 
ATOM      3  N   UNL     1       3.842  -3.561   1.729  0.00  0.00    -0.297 N 
ATOM      4  C   UNL     1       4.939  -2.664   2.164  0.00  0.00    +0.115 C 
ATOM      5  C   UNL     1       4.410  -1.242   1.891  0.00  0.00    -0.004 C 
ATOM      6  C   UNL     1       4.902  -0.749   0.534  0.00  0.00    -0.010 C 
ATOM      7  C   UNL     1       6.423  -0.573   0.581  0.00  0.00    -0.082 C 
ATOM      8  N   UNL     1       6.774   0.391   1.631  0.00  0.00    +0.379 N 
ATOM      9  C   UNL     1       6.379  -0.134   2.944  0.00  0.00    -0.082 C 
ATOM     10  C   UNL     1       4.857  -0.291   2.997  0.00  0.00    -0.010 C 
ATOM     11  C   UNL     1       3.944  -4.739   1.082  0.00  0.00    +0.260 C 
ATOM     12  O   UNL     1       5.037  -5.218   0.866  0.00  0.00    -0.271 OA
ATOM     13  H   UNL     1       7.770   0.551   1.620  0.00  0.00    -0.086 HD
ATOM     14  H   UNL     1       6.294   1.261   1.460  0.00  0.00    -0.086 HD
ENDROOT
BRANCH  11  15
ATOM     15  C   UNL     1       2.701  -5.460   0.628  0.00  0.00    +0.296 C 
ATOM     16  C   UNL     1       1.945  -6.005   1.847  0.00  0.00    +0.283 C 
ATOM     17  O   UNL     1       0.781  -6.695   1.381  0.00  0.00    -0.484 OA
ATOM     18  C   UNL     1       0.955  -7.555   0.340  0.00  0.00    +0.162 A 
ATOM     19  C   UNL     1      -0.017  -8.508   0.075  0.00  0.00    +0.049 A 
ATOM     20  C   UNL     1       0.144  -9.386  -0.980  0.00  0.00    +0.004 A 
ATOM     21  C   UNL     1       1.274  -9.316  -1.774  0.00  0.00    +0.004 A 
ATOM     22  C   UNL     1       2.247  -8.370  -1.514  0.00  0.00    +0.049 A 
ATOM     23  C   UNL     1       2.092  -7.487  -0.456  0.00  0.00    +0.163 A 
ATOM     24  O   UNL     1       3.062  -6.565  -0.208  0.00  0.00    -0.473 OA
ENDBRANCH  11  15
BRANCH   1  26
ATOM     25  N   UNL     1       2.006   0.308   0.296  0.00  0.00    -0.312 N 
ATOM     26  C   UNL     1       2.321  -0.978   0.543  0.00  0.00    +0.218 C 
ATOM     27  O   UNL     1       2.157  -1.819  -0.315  0.00  0.00    -0.275 OA
ATOM     28  H   UNL     1       2.074   0.969   1.003  0.00  0.00    +0.149 HD
BRANCH  25  30
ATOM     29  C   UNL     1       2.781   1.002  -1.918  0.00  0.00    +0.028 C 
ATOM     30  C   UNL     1       1.562   0.709  -1.041  0.00  0.00    +0.074 C 
BRANCH  30  31
ATOM     31  C   UNL     1       0.696   1.967  -0.935  0.00  0.00    +0.060 C 
BRANCH  31  32
ATOM     32  C   UNL     1      -0.557   1.650  -0.162  0.00  0.00    -0.010 A 
ATOM     33  C   UNL     1      -1.695   1.234  -0.828  0.00  0.00    +0.006 A 
ATOM     34  C   UNL     1      -2.845   0.944  -0.118  0.00  0.00    +0.000 A 
ATOM     35  C   UNL     1      -2.859   1.068   1.259  0.00  0.00    +0.003 A 
ATOM     36  C   UNL     1      -1.723   1.483   1.927  0.00  0.00    +0.038 A 
ATOM     37  C   UNL     1      -0.569   1.769   1.218  0.00  0.00    +0.127 A 
ATOM     38  F   UNL     1       0.544   2.170   1.871  0.00  0.00    -0.205 F 
ENDBRANCH  31  32
ENDBRANCH  30  31
ENDBRANCH  25  30
ENDBRANCH   1  26
TORSDOF 5
