REMARK  Name = ZINC38899477
REMARK  8 active torsions:
REMARK  status: ('A' for Active; 'I' for Inactive)
REMARK    1  A    between atoms: C_1  and  C_2
REMARK    2  A    between atoms: C_2  and  C_34
REMARK    3  A    between atoms: C_3  and  N_20
REMARK    4  A    between atoms: N_5  and  N_9
REMARK    5  A    between atoms: C_10  and  C_11
REMARK    6  A    between atoms: N_20  and  O_33
REMARK    7  A    between atoms: N_23  and  C_24
REMARK    8  A    between atoms: C_27  and  N_30
REMARK                            x       y       z     vdW  Elec       q    Type
REMARK                         _______ _______ _______ _____ _____    ______ ____
ROOT
ATOM      1  C   UNL     1      -1.698   2.172  -0.199  0.00  0.00    +0.026 C 
ATOM      2  C   UNL     1      -1.272   0.707  -0.309  0.00  0.00    +0.056 C 
ATOM      3  C   UNL     1      -0.211   0.505  -1.423  0.00  0.00    +0.232 C 
ATOM      4  N   UNL     1       1.136   0.598  -0.892  0.00  0.00    -0.187 N 
ATOM      5  C   UNL     1       1.354   0.424   0.427  0.00  0.00    +0.132 C 
ATOM      6  S   UNL     1       2.860   0.430   1.241  0.00  0.00    -0.026 S 
ATOM      7  S   UNL     1      -0.264   0.185   1.142  0.00  0.00    -0.091 S 
ATOM      8  C   UNL     1      -2.481  -0.209  -0.511  0.00  0.00    +0.026 C 
ENDROOT
BRANCH   3   9
ATOM      9  N   UNL     1      -0.396  -0.816  -2.027  0.00  0.00    -0.143 N 
ATOM     10  C   UNL     1      -0.375  -0.953  -3.368  0.00  0.00    +0.331 C 
ATOM     11  O   UNL     1      -0.111   0.003  -4.072  0.00  0.00    -0.250 OA
ATOM     12  N   UNL     1      -0.645  -2.148  -3.928  0.00  0.00    -0.268 N 
ATOM     13  H   UNL     1      -0.932  -2.890  -3.373  0.00  0.00    +0.156 HD
BRANCH  12  14
ATOM     14  C   UNL     1      -0.513  -2.320  -5.311  0.00  0.00    +0.035 A 
ATOM     15  C   UNL     1       0.482  -1.643  -6.004  0.00  0.00    +0.025 A 
ATOM     16  C   UNL     1       0.610  -1.814  -7.368  0.00  0.00    +0.034 A 
ATOM     17  C   UNL     1      -0.251  -2.659  -8.044  0.00  0.00    +0.126 A 
ATOM     18  C   UNL     1      -1.243  -3.334  -7.357  0.00  0.00    +0.034 A 
ATOM     19  C   UNL     1      -1.373  -3.171  -5.992  0.00  0.00    +0.025 A 
BRANCH  17  20
ATOM     20  N   UNL     1      -0.111  -2.840  -9.507  0.00  0.00    +0.056 N 
ATOM     21  O   UNL     1       0.756  -2.250 -10.109  0.00  0.00    -0.126 OA
ATOM     22  O   UNL     1      -0.863  -3.578 -10.099  0.00  0.00    -0.126 OA
ENDBRANCH  17  20
ENDBRANCH  12  14
BRANCH   9  23
ATOM     23  O   UNL     1      -0.598  -1.950  -1.204  0.00  0.00    -0.289 OA
ATOM     24  H   UNL     1      -0.631  -2.787  -1.687  0.00  0.00    +0.242 HD
ENDBRANCH   9  23
ENDBRANCH   3   9
BRANCH   4  25
ATOM     25  N   UNL     1       2.210   0.869  -1.750  0.00  0.00    -0.185 NA
ATOM     26  C   UNL     1       2.248   1.996  -2.417  0.00  0.00    +0.136 C 
BRANCH  26  27
ATOM     27  C   UNL     1       3.369   2.312  -3.194  0.00  0.00    +0.000 C 
ATOM     28  C   UNL     1       3.570   3.463  -3.955  0.00  0.00    +0.004 A 
ATOM     29  C   UNL     1       2.775   4.607  -4.182  0.00  0.00    +0.010 A 
ATOM     30  C   UNL     1       3.234   5.597  -4.989  0.00  0.00    +0.001 A 
ATOM     31  C   UNL     1       4.484   5.516  -5.609  0.00  0.00    +0.002 A 
ATOM     32  C   UNL     1       5.300   4.448  -5.436  0.00  0.00    +0.026 A 
ATOM     33  C   UNL     1       4.888   3.373  -4.605  0.00  0.00    +0.043 A 
ATOM     34  N   UNL     1       5.485   2.244  -4.281  0.00  0.00    -0.380 N 
ATOM     35  C   UNL     1       4.619   1.480  -3.378  0.00  0.00    +0.150 C 
ATOM     36  H   UNL     1       6.362   1.964  -4.588  0.00  0.00    +0.160 HD
ENDBRANCH  26  27
ENDBRANCH   4  25
TORSDOF 6
