REMARK  Name = ZINC36557815
REMARK  6 active torsions:
REMARK  status: ('A' for Active; 'I' for Inactive)
REMARK    1  A    between atoms: C_4  and  N_7
REMARK    2  A    between atoms: N_7  and  C_8
REMARK    3  A    between atoms: C_11  and  N_14
REMARK    4  A    between atoms: C_15  and  C_17
REMARK    5  A    between atoms: C_24  and  C_33
REMARK    6  A    between atoms: C_38  and  N_39
REMARK                            x       y       z     vdW  Elec       q    Type
REMARK                         _______ _______ _______ _____ _____    ______ ____
ROOT
ATOM      1  C   UNL     1       5.380  -8.715   0.413  0.00  0.00    +0.058 A 
ATOM      2  C   UNL     1       4.366  -9.660   0.248  0.00  0.00    +0.015 A 
ATOM      3  C   UNL     1       4.649 -11.002   0.371  0.00  0.00    +0.001 A 
ATOM      4  C   UNL     1       5.938 -11.419   0.666  0.00  0.00    +0.006 A 
ATOM      5  C   UNL     1       6.950 -10.502   0.836  0.00  0.00    -0.019 A 
ATOM      6  C   UNL     1       6.690  -9.134   0.696  0.00  0.00    +0.044 A 
ATOM      7  N   UNL     1       7.699  -8.183   0.815  0.00  0.00    -0.336 N 
ATOM      8  C   UNL     1       9.092  -8.573   1.124  0.00  0.00    +0.107 C 
ATOM      9  C   UNL     1       9.303  -9.913   0.442  0.00  0.00    +0.029 C 
ATOM     10  C   UNL     1       8.334 -10.901   1.173  0.00  0.00    +0.049 C 
ATOM     11  C   UNL     1       8.880 -12.233   0.810  0.00  0.00    -0.023 C 
ATOM     12  C   UNL     1      10.185 -12.112   0.597  0.00  0.00    -0.030 C 
ATOM     13  C   UNL     1      10.624 -10.642   0.724  0.00  0.00    +0.033 C 
ATOM     14  H   UNL     1       7.485  -7.245   0.692  0.00  0.00    +0.147 HD
ENDROOT
BRANCH   8  15
ATOM     15  C   UNL     1       9.275  -8.711   2.614  0.00  0.00    +0.003 A 
ATOM     16  C   UNL     1       8.179  -8.932   3.428  0.00  0.00    +0.008 A 
ATOM     17  C   UNL     1       8.347  -9.058   4.794  0.00  0.00    +0.000 A 
ATOM     18  C   UNL     1       9.611  -8.964   5.346  0.00  0.00    +0.002 A 
ATOM     19  C   UNL     1      10.706  -8.744   4.533  0.00  0.00    +0.033 A 
ATOM     20  C   UNL     1      10.539  -8.622   3.166  0.00  0.00    +0.131 A 
BRANCH  20  21
ATOM     21  N   UNL     1      11.713  -8.392   2.294  0.00  0.00    +0.057 N 
ATOM     22  O   UNL     1      12.826  -8.401   2.765  0.00  0.00    -0.126 OA
ATOM     23  O   UNL     1      11.558  -8.195   1.111  0.00  0.00    -0.126 OA
ENDBRANCH  20  21
ENDBRANCH   8  15
BRANCH   1  25
ATOM     24  N   UNL     1       3.803  -6.869   0.128  0.00  0.00    -0.281 N 
ATOM     25  C   UNL     1       5.078  -7.278   0.283  0.00  0.00    +0.250 C 
ATOM     26  O   UNL     1       5.979  -6.461   0.316  0.00  0.00    -0.270 OA
ATOM     27  H   UNL     1       3.093  -7.522   0.029  0.00  0.00    +0.155 HD
BRANCH  24  31
ATOM     28  C   UNL     1       2.912  -2.796   0.073  0.00  0.00    +0.031 A 
ATOM     29  C   UNL     1       2.022  -3.694   0.648  0.00  0.00    +0.025 A 
ATOM     30  C   UNL     1       2.317  -5.042   0.666  0.00  0.00    +0.025 A 
ATOM     31  C   UNL     1       3.504  -5.501   0.109  0.00  0.00    +0.034 A 
ATOM     32  C   UNL     1       4.394  -4.603  -0.466  0.00  0.00    +0.025 A 
ATOM     33  C   UNL     1       4.096  -3.255  -0.490  0.00  0.00    +0.025 A 
BRANCH  28  34
ATOM     34  N   UNL     1       2.613  -1.429   0.054  0.00  0.00    -0.314 N 
ATOM     35  H   UNL     1       2.895  -0.881  -0.695  0.00  0.00    +0.152 HD
BRANCH  34  39
ATOM     36  C   UNL     1       0.512   0.286   3.213  0.00  0.00    +0.000 A 
ATOM     37  C   UNL     1       1.250  -0.865   3.420  0.00  0.00    +0.002 A 
ATOM     38  C   UNL     1       1.948  -1.436   2.374  0.00  0.00    +0.023 A 
ATOM     39  C   UNL     1       1.908  -0.854   1.114  0.00  0.00    +0.031 A 
ATOM     40  C   UNL     1       1.165   0.303   0.910  0.00  0.00    +0.023 A 
ATOM     41  C   UNL     1       0.470   0.869   1.960  0.00  0.00    +0.002 A 
ENDBRANCH  34  39
ENDBRANCH  28  34
ENDBRANCH  24  31
ENDBRANCH   1  25
TORSDOF 6
