REMARK  Name = ZINC04555222
REMARK  7 active torsions:
REMARK  status: ('A' for Active; 'I' for Inactive)
REMARK    1  A    between atoms: C_1  and  C_2
REMARK    2  A    between atoms: C_2  and  C_3
REMARK    3  A    between atoms: C_2  and  N_50
REMARK    4  A    between atoms: C_11  and  O_27
REMARK    5  A    between atoms: C_13  and  C_16
REMARK    6  A    between atoms: C_17  and  C_18
REMARK    7  A    between atoms: C_22  and  N_24
REMARK                            x       y       z     vdW  Elec       q    Type
REMARK                         _______ _______ _______ _____ _____    ______ ____
ROOT
ATOM      1  C   UNL     1      -2.283  -1.000  -0.772  0.00  0.00    -0.073 C 
ATOM      2  C   UNL     1      -1.974  -2.433  -1.215  0.00  0.00    +0.018 C 
ATOM      3  C   UNL     1      -1.170  -3.110  -0.111  0.00  0.00    -0.027 A 
ATOM      4  C   UNL     1      -0.555  -2.359   0.835  0.00  0.00    -0.021 A 
ATOM      5  S   UNL     1       0.244  -3.531   1.897  0.00  0.00    -0.080 S 
ATOM      6  C   UNL     1      -0.224  -4.973   1.103  0.00  0.00    +0.080 A 
ATOM      7  C   UNL     1      -1.004  -4.544   0.020  0.00  0.00    +0.067 A 
ATOM      8  C   UNL     1      -1.573  -5.595  -0.864  0.00  0.00    +0.220 C 
ATOM      9  N   UNL     1      -1.122  -6.812  -0.727  0.00  0.00    -0.223 NA
ATOM     10  C   UNL     1      -0.054  -7.204   0.184  0.00  0.00    +0.217 C 
ATOM     11  N   UNL     1       0.027  -6.301   1.347  0.00  0.00    -0.313 N 
ATOM     12  C   UNL     1      -0.567  -0.866   0.932  0.00  0.00    -0.035 C 
ATOM     13  H   UNL     1       0.245  -6.626   2.234  0.00  0.00    +0.149 HD
ATOM     14  N   UNL     1      -1.029  -0.330  -0.371  0.00  0.00    +0.384 N 
ATOM     15  H   UNL     1      -0.311  -0.512  -1.081  0.00  0.00    -0.081 HD
ENDROOT
BRANCH  14  17
ATOM     16  C   UNL     1       0.019   1.785   0.289  0.00  0.00    -0.014 C 
ATOM     17  C   UNL     1      -1.246   1.130  -0.269  0.00  0.00    -0.074 C 
ATOM     18  C   UNL     1      -1.536   1.686  -1.664  0.00  0.00    -0.014 C 
ENDBRANCH  14  17
BRANCH  10  19
ATOM     19  C   UNL     1       1.259  -7.171  -0.555  0.00  0.00    +0.019 C 
ATOM     20  C   UNL     1       2.041  -8.241  -0.565  0.00  0.00    +0.007 C 
BRANCH  20  21
ATOM     21  C   UNL     1       1.713  -9.404   0.287  0.00  0.00    -0.023 A 
ATOM     22  C   UNL     1       1.214  -9.210   1.576  0.00  0.00    +0.008 A 
ATOM     23  C   UNL     1       0.906 -10.300   2.364  0.00  0.00    +0.003 A 
ATOM     24  C   UNL     1       1.100 -11.583   1.883  0.00  0.00    +0.033 A 
ATOM     25  C   UNL     1       1.598 -11.781   0.608  0.00  0.00    +0.127 A 
ATOM     26  C   UNL     1       1.906 -10.700  -0.192  0.00  0.00    +0.040 A 
BRANCH  25  27
ATOM     27  N   UNL     1       1.802 -13.157   0.101  0.00  0.00    +0.056 N 
ATOM     28  O   UNL     1       2.242 -13.334  -1.021  0.00  0.00    -0.126 OA
ATOM     29  O   UNL     1       1.531 -14.112   0.806  0.00  0.00    -0.126 OA
ENDBRANCH  25  27
ENDBRANCH  20  21
ENDBRANCH  10  19
BRANCH   8  30
ATOM     30  O   UNL     1      -2.527  -5.300  -1.777  0.00  0.00    -0.492 OA
ATOM     31  H   UNL     1      -2.824  -6.061  -2.295  0.00  0.00    +0.294 HD
ENDBRANCH   8  30
TORSDOF 5
