REMARK  Name = ZINC00778300
REMARK  9 active torsions:
REMARK  status: ('A' for Active; 'I' for Inactive)
REMARK    1  A    between atoms: C_3  and  O_24
REMARK    2  A    between atoms: C_6  and  C_7
REMARK    3  A    between atoms: C_8  and  C_9
REMARK    4  A    between atoms: C_8  and  C_11
REMARK    5  A    between atoms: N_13  and  C_14
REMARK    6  A    between atoms: C_17  and  S_20
REMARK    7  A    between atoms: S_20  and  N_23
REMARK    8  A    between atoms: O_24  and  C_25
REMARK    9  A    between atoms: C_25  and  C_27
REMARK                            x       y       z     vdW  Elec       q    Type
REMARK                         _______ _______ _______ _____ _____    ______ ____
ROOT
ATOM      1  C   UNL     1       2.659  -8.398  -0.100  0.00  0.00    +0.032 C 
ATOM      2  C   UNL     1       1.507  -9.132  -0.278  0.00  0.00    +0.114 C 
ENDROOT
BRANCH   1   8
ATOM      3  C   UNL     1       1.497  -6.337   0.658  0.00  0.00    +0.011 A 
ATOM      4  C   UNL     1       1.435  -4.971   0.762  0.00  0.00    +0.047 A 
ATOM      5  C   UNL     1       2.452  -4.184   0.231  0.00  0.00    +0.132 A 
ATOM      6  C   UNL     1       3.533  -4.776  -0.414  0.00  0.00    +0.047 A 
ATOM      7  C   UNL     1       3.608  -6.140  -0.520  0.00  0.00    +0.011 A 
ATOM      8  C   UNL     1       2.587  -6.939   0.014  0.00  0.00    -0.023 A 
BRANCH   5   9
ATOM      9  O   UNL     1       2.386  -2.832   0.338  0.00  0.00    -0.422 OA
BRANCH   9  10
ATOM     10  C   UNL     1       2.660  -2.300   1.545  0.00  0.00    +0.344 C 
ATOM     11  O   UNL     1       2.862  -3.026   2.498  0.00  0.00    -0.245 OA
BRANCH  10  12
ATOM     12  C   UNL     1       2.716  -0.833   1.709  0.00  0.00    +0.059 A 
ATOM     13  C   UNL     1       3.001  -0.278   2.959  0.00  0.00    +0.016 A 
ATOM     14  C   UNL     1       3.052   1.092   3.106  0.00  0.00    +0.016 A 
ATOM     15  C   UNL     1       2.822   1.917   2.018  0.00  0.00    +0.018 A 
ATOM     16  C   UNL     1       2.539   1.373   0.776  0.00  0.00    +0.016 A 
ATOM     17  C   UNL     1       2.485   0.004   0.616  0.00  0.00    +0.016 A 
ATOM     18 BR   UNL     1       2.894   3.795   2.228  0.00  0.00    -0.050 Br
ENDBRANCH  10  12
ENDBRANCH   9  10
ENDBRANCH   5   9
ENDBRANCH   1   8
BRANCH   2  19
ATOM     19  C   UNL     1       1.583 -10.592  -0.443  0.00  0.00    +0.259 C 
ATOM     20  O   UNL     1       2.664 -11.151  -0.422  0.00  0.00    -0.269 OA
ATOM     21  N   UNL     1       0.457 -11.311  -0.617  0.00  0.00    -0.281 N 
ATOM     22  H   UNL     1      -0.395 -10.859  -0.722  0.00  0.00    +0.155 HD
BRANCH  21  23
ATOM     23  C   UNL     1       0.516 -12.708  -0.647  0.00  0.00    +0.034 A 
ATOM     24  C   UNL     1      -0.349 -13.424  -1.464  0.00  0.00    +0.025 A 
ATOM     25  C   UNL     1      -0.284 -14.803  -1.496  0.00  0.00    +0.030 A 
ATOM     26  C   UNL     1       0.633 -15.472  -0.706  0.00  0.00    +0.105 A 
ATOM     27  C   UNL     1       1.491 -14.762   0.114  0.00  0.00    +0.030 A 
ATOM     28  C   UNL     1       1.435 -13.382   0.146  0.00  0.00    +0.025 A 
BRANCH  26  29
ATOM     29  S   UNL     1       0.708 -17.232  -0.744  0.00  0.00    +0.056 S 
ATOM     30  O   UNL     1       0.172 -17.634  -1.997  0.00  0.00    -0.153 OA
ATOM     31  O   UNL     1       2.017 -17.591  -0.324  0.00  0.00    -0.153 OA
BRANCH  29  32
ATOM     32  N   UNL     1      -0.332 -17.791   0.417  0.00  0.00    -0.204 NA
ATOM     33  H   UNL     1      -0.837 -17.165   0.959  0.00  0.00    +0.144 HD
ATOM     34  H   UNL     1      -0.435 -18.746   0.556  0.00  0.00    +0.144 HD
ENDBRANCH  29  32
ENDBRANCH  26  29
ENDBRANCH  21  23
ENDBRANCH   2  19
BRANCH   2  35
ATOM     35  C   UNL     1       0.235  -8.475  -0.302  0.00  0.00    +0.104 C 
ATOM     36  N   UNL     1      -0.774  -7.953  -0.322  0.00  0.00    -0.191 NA
ENDBRANCH   2  35
TORSDOF 9
