REMARK  Name = ZINC60343166
REMARK  13 active torsions:
REMARK  status: ('A' for Active; 'I' for Inactive)
REMARK    1  A    between atoms: C_1  and  C_2
REMARK    2  A    between atoms: C_2  and  C_4
REMARK    3  A    between atoms: C_2  and  N_27
REMARK    4  A    between atoms: N_10  and  C_11
REMARK    5  A    between atoms: C_11  and  C_12
REMARK    6  A    between atoms: C_12  and  C_13
REMARK    7  A    between atoms: N_15  and  C_16
REMARK    8  A    between atoms: C_17  and  C_25
REMARK    9  A    between atoms: C_28  and  O_30
REMARK   10  A    between atoms: O_30  and  C_31
REMARK   11  A    between atoms: C_31  and  C_32
REMARK   12  A    between atoms: C_31  and  C_33
REMARK   13  A    between atoms: C_31  and  C_34
REMARK                            x       y       z     vdW  Elec       q    Type
REMARK                         _______ _______ _______ _____ _____    ______ ____
ROOT
ATOM      1  C   UNL     1      -1.296  -0.633  -0.108  0.00  0.00    -0.048 C 
ATOM      2  C   UNL     1      -1.173  -2.157  -0.058  0.00  0.00    -0.014 C 
ATOM      3  C   UNL     1      -2.573  -2.775   0.001  0.00  0.00    -0.003 C 
ATOM      4  C   UNL     1      -3.382  -2.298  -1.209  0.00  0.00    -0.019 C 
ATOM      5  C   UNL     1      -3.423  -0.769  -1.217  0.00  0.00    -0.078 C 
ATOM      6  N   UNL     1      -2.057  -0.240  -1.301  0.00  0.00    +0.383 N 
ATOM      7  H   UNL     1      -1.604  -0.608  -2.124  0.00  0.00    -0.081 HD
ENDROOT
BRANCH   1   9
ATOM      8  C   UNL     1       0.891  -0.415   1.079  0.00  0.00    +0.026 C 
ATOM      9  C   UNL     1       0.100  -0.011  -0.167  0.00  0.00    +0.060 C 
BRANCH   9  10
ATOM     10  N   UNL     1       0.797  -0.487  -1.364  0.00  0.00    -0.280 N 
ATOM     11  C   UNL     1       1.784   0.253  -1.909  0.00  0.00    +0.401 C 
ATOM     12  O   UNL     1       2.095   1.314  -1.406  0.00  0.00    -0.226 OA
ATOM     13  H   UNL     1       0.549  -1.335  -1.765  0.00  0.00    +0.152 HD
BRANCH  11  14
ATOM     14  O   UNL     1       2.425  -0.185  -3.009  0.00  0.00    -0.445 OA
BRANCH  14  15
ATOM     15  C   UNL     1       3.460   0.650  -3.532  0.00  0.00    +0.107 C 
ATOM     16  C   UNL     1       4.546   0.840  -2.472  0.00  0.00    +0.055 C 
ATOM     17  C   UNL     1       4.067  -0.008  -4.773  0.00  0.00    +0.055 C 
ATOM     18  C   UNL     1       2.874   2.011  -3.912  0.00  0.00    +0.055 C 
ENDBRANCH  14  15
ENDBRANCH  11  14
ENDBRANCH   9  10
ENDBRANCH   1   9
BRANCH   6  19
ATOM     19  C   UNL     1      -2.105   1.226  -1.387  0.00  0.00    -0.069 C 
BRANCH  19  20
ATOM     20  C   UNL     1      -2.798   1.637  -2.688  0.00  0.00    +0.077 C 
BRANCH  20  21
ATOM     21  C   UNL     1      -2.848   3.141  -2.777  0.00  0.00    +0.216 C 
ATOM     22  O   UNL     1      -2.376   3.817  -1.888  0.00  0.00    -0.276 OA
ATOM     23  N   UNL     1      -3.417   3.734  -3.845  0.00  0.00    -0.279 N 
ATOM     24  H   UNL     1      -3.795   3.193  -4.556  0.00  0.00    +0.155 HD
BRANCH  23  25
ATOM     25  C   UNL     1      -3.463   5.119  -3.927  0.00  0.00    +0.090 A 
ATOM     26  C   UNL     1      -4.008   5.894  -4.937  0.00  0.00    +0.084 A 
ATOM     27  C   UNL     1      -3.929   7.336  -4.784  0.00  0.00    -0.018 A 
ATOM     28  C   UNL     1      -3.318   7.739  -3.648  0.00  0.00    -0.004 A 
ATOM     29  S   UNL     1      -2.877   6.238  -2.821  0.00  0.00    -0.077 S 
ATOM     30  C   UNL     1      -3.080   9.149  -3.206  0.00  0.00    +0.043 C 
ATOM     31  C   UNL     1      -3.297  10.075  -4.412  0.00  0.00    +0.005 C 
ATOM     32  C   UNL     1      -4.614   9.699  -5.095  0.00  0.00    +0.005 C 
ATOM     33  C   UNL     1      -4.472   8.342  -5.788  0.00  0.00    +0.037 C 
BRANCH  26  34
ATOM     34  C   UNL     1      -4.624   5.299  -6.084  0.00  0.00    +0.102 C 
ATOM     35  N   UNL     1      -5.113   4.827  -6.995  0.00  0.00    -0.191 NA
ENDBRANCH  26  34
ENDBRANCH  23  25
ENDBRANCH  20  21
ENDBRANCH  19  20
ENDBRANCH   6  19
TORSDOF 9
