REMARK  Name = ZINC58407028
REMARK  7 active torsions:
REMARK  status: ('A' for Active; 'I' for Inactive)
REMARK    1  A    between atoms: C_1  and  C_2
REMARK    2  A    between atoms: C_5  and  N_9
REMARK    3  A    between atoms: C_13  and  S_14
REMARK    4  A    between atoms: S_14  and  C_15
REMARK    5  A    between atoms: C_15  and  C_16
REMARK    6  A    between atoms: C_21  and  N_24
REMARK    7  A    between atoms: C_28  and  C_30
REMARK                            x       y       z     vdW  Elec       q    Type
REMARK                         _______ _______ _______ _____ _____    ______ ____
ROOT
ATOM      1  C   UNL     1       4.063  -5.755   3.274  0.00  0.00    +0.226 C 
ATOM      2  O   UNL     1       4.355  -4.607   3.535  0.00  0.00    -0.275 OA
ATOM      3  N   UNL     1       4.755  -6.769   3.831  0.00  0.00    -0.301 N 
ATOM      4  C   UNL     1       4.418  -8.165   3.520  0.00  0.00    +0.106 C 
ATOM      5  C   UNL     1       5.684  -8.883   3.041  0.00  0.00    +0.004 C 
ATOM      6  C   UNL     1       6.785  -8.721   4.091  0.00  0.00    -0.065 C 
ATOM      7  C   UNL     1       7.110  -7.236   4.268  0.00  0.00    +0.004 C 
ATOM      8  C   UNL     1       5.864  -6.499   4.756  0.00  0.00    +0.106 C 
ENDROOT
BRANCH   6   9
ATOM      9  N   UNL     1       7.990  -9.436   3.650  0.00  0.00    +0.389 N 
ATOM     10  C   UNL     1       9.041  -9.363   4.697  0.00  0.00    -0.077 C 
ATOM     11  C   UNL     1       9.957 -10.568   4.365  0.00  0.00    -0.020 C 
ATOM     12  C   UNL     1       8.952 -11.651   3.909  0.00  0.00    -0.008 C 
ATOM     13  C   UNL     1       7.694 -10.875   3.476  0.00  0.00    +0.019 C 
ATOM     14  H   UNL     1       8.331  -9.044   2.785  0.00  0.00    -0.080 HD
BRANCH  13  15
ATOM     15  C   UNL     1       7.386 -11.164   2.029  0.00  0.00    +0.197 C 
ATOM     16  O   UNL     1       7.407 -10.267   1.214  0.00  0.00    -0.278 OA
ATOM     17  N   UNL     1       7.086 -12.420   1.642  0.00  0.00    -0.331 N 
ATOM     18  H   UNL     1       7.068 -13.137   2.294  0.00  0.00    +0.145 HD
ATOM     19  H   UNL     1       6.887 -12.606   0.711  0.00  0.00    +0.145 HD
ENDBRANCH  13  15
ENDBRANCH   6   9
BRANCH   1  20
ATOM     20  C   UNL     1       2.928  -6.048   2.327  0.00  0.00    +0.173 C 
BRANCH  20  21
ATOM     21  S   UNL     1       2.203  -4.488   1.752  0.00  0.00    -0.076 S 
BRANCH  21  26
ATOM     22  N   UNL     1       0.059  -4.174  -0.022  0.00  0.00    -0.277 N 
ATOM     23  C   UNL     1      -0.766  -5.008  -0.729  0.00  0.00    +0.230 A 
ATOM     24  N   UNL     1      -0.411  -6.231  -0.452  0.00  0.00    -0.137 NA
ATOM     25  N   UNL     1       0.574  -6.229   0.375  0.00  0.00    -0.122 NA
ATOM     26  C   UNL     1       0.908  -4.993   0.669  0.00  0.00    +0.196 A 
BRANCH  22  31
ATOM     27  C   UNL     1      -0.018   1.503   0.010  0.00  0.00    +0.045 C 
ATOM     28  C   UNL     1       0.002  -0.004   0.002  0.00  0.00    -0.032 A 
ATOM     29  C   UNL     1       0.006  -0.688  -1.200  0.00  0.00    +0.007 A 
ATOM     30  C   UNL     1       0.025  -2.069  -1.211  0.00  0.00    +0.026 A 
ATOM     31  C   UNL     1       0.040  -2.771  -0.013  0.00  0.00    +0.051 A 
ATOM     32  C   UNL     1       0.037  -2.084   1.192  0.00  0.00    +0.046 A 
ATOM     33  C   UNL     1       0.023  -0.701   1.197  0.00  0.00    +0.046 A 
ATOM     34 CL   UNL     1       0.025   0.161   2.704  0.00  0.00    -0.083 Cl
ENDBRANCH  22  31
ENDBRANCH  21  26
ENDBRANCH  20  21
ENDBRANCH   1  20
TORSDOF 6
