REMARK  Name = ZINC09601249
REMARK  8 active torsions:
REMARK  status: ('A' for Active; 'I' for Inactive)
REMARK    1  A    between atoms: C_1  and  C_2
REMARK    2  A    between atoms: N_5  and  C_9
REMARK    3  A    between atoms: C_9  and  C_11
REMARK    4  A    between atoms: C_9  and  C_19
REMARK    5  A    between atoms: C_11  and  C_13
REMARK    6  A    between atoms: C_26  and  C_27
REMARK    7  A    between atoms: C_26  and  C_33
REMARK    8  A    between atoms: C_26  and  N_69
REMARK                            x       y       z     vdW  Elec       q    Type
REMARK                         _______ _______ _______ _____ _____    ______ ____
ROOT
ATOM      1  C   UNL     1      -0.342  -0.144   1.816  0.00  0.00    +0.246 C 
ATOM      2  O   UNL     1      -0.955  -0.993   2.426  0.00  0.00    -0.273 OA
ATOM      3  N   UNL     1       0.861   0.270   2.262  0.00  0.00    -0.303 N 
ATOM      4  C   UNL     1       1.667   1.224   1.484  0.00  0.00    +0.089 C 
ATOM      5  C   UNL     1       2.081   2.375   2.414  0.00  0.00    -0.058 C 
ATOM      6  C   UNL     1       1.832   0.980   4.382  0.00  0.00    -0.058 C 
ATOM      7  C   UNL     1       1.404  -0.224   3.536  0.00  0.00    +0.089 C 
ATOM      8  N   UNL     1       2.771   1.806   3.593  0.00  0.00    +0.389 N 
ATOM      9  H   UNL     1       3.546   1.214   3.271  0.00  0.00    -0.080 HD
ENDROOT
BRANCH   1  10
ATOM     10  C   UNL     1      -0.924   0.449   0.559  0.00  0.00    +0.247 C 
BRANCH  10  15
ATOM     11  C   UNL     1       2.294  -1.036  -3.930  0.00  0.00    +0.044 C 
ATOM     12  C   UNL     1       1.444  -0.656  -2.745  0.00  0.00    -0.044 A 
ATOM     13  C   UNL     1       1.255   0.693  -2.412  0.00  0.00    +0.021 A 
ATOM     14  C   UNL     1       0.490   1.024  -1.345  0.00  0.00    +0.090 A 
ATOM     15  N   UNL     1      -0.101   0.063  -0.590  0.00  0.00    -0.296 N 
ATOM     16  C   UNL     1       0.066  -1.241  -0.881  0.00  0.00    +0.253 A 
ATOM     17  O   UNL     1      -0.467  -2.093  -0.190  0.00  0.00    -0.268 OA
ATOM     18  C   UNL     1       0.850  -1.620  -1.984  0.00  0.00    +0.073 A 
ENDBRANCH  10  15
BRANCH  10  19
ATOM     19  C   UNL     1      -2.328  -0.063   0.365  0.00  0.00    +0.195 C 
ATOM     20  O   UNL     1      -2.558  -0.894  -0.488  0.00  0.00    -0.289 OA
BRANCH  19  21
ATOM     21  C   UNL     1      -3.421   0.449   1.207  0.00  0.00    +0.020 A 
ATOM     22  C   UNL     1      -3.181   1.483   2.118  0.00  0.00    +0.011 A 
ATOM     23  C   UNL     1      -4.212   1.961   2.899  0.00  0.00    +0.001 A 
ATOM     24  C   UNL     1      -5.478   1.413   2.792  0.00  0.00    +0.000 A 
ATOM     25  C   UNL     1      -5.722   0.386   1.897  0.00  0.00    +0.001 A 
ATOM     26  C   UNL     1      -4.704  -0.100   1.104  0.00  0.00    +0.011 A 
ENDBRANCH  19  21
ENDBRANCH  10  19
ENDBRANCH   1  10
BRANCH   8  27
ATOM     27  C   UNL     1       3.315   2.893   4.433  0.00  0.00    -0.007 C 
BRANCH  27  28
ATOM     28  C   UNL     1       4.105   2.286   5.563  0.00  0.00    -0.057 A 
ATOM     29  C   UNL     1       4.969   1.236   5.316  0.00  0.00    +0.002 A 
ATOM     30  C   UNL     1       5.697   0.682   6.353  0.00  0.00    +0.000 A 
ATOM     31  C   UNL     1       5.555   1.172   7.637  0.00  0.00    +0.000 A 
ATOM     32  C   UNL     1       4.687   2.219   7.885  0.00  0.00    +0.000 A 
ATOM     33  C   UNL     1       3.962   2.776   6.848  0.00  0.00    +0.002 A 
ENDBRANCH  27  28
BRANCH  27  34
ATOM     34  C   UNL     1       4.221   3.755   3.592  0.00  0.00    -0.057 A 
ATOM     35  C   UNL     1       5.097   3.169   2.696  0.00  0.00    +0.002 A 
ATOM     36  C   UNL     1       5.925   3.959   1.921  0.00  0.00    +0.000 A 
ATOM     37  C   UNL     1       5.885   5.335   2.049  0.00  0.00    +0.000 A 
ATOM     38  C   UNL     1       5.014   5.921   2.949  0.00  0.00    +0.000 A 
ATOM     39  C   UNL     1       4.182   5.130   3.720  0.00  0.00    +0.002 A 
ENDBRANCH  27  34
ENDBRANCH   8  27
TORSDOF 7
