REMARK  Name = ZINC09425035
REMARK  15 active torsions:
REMARK  status: ('A' for Active; 'I' for Inactive)
REMARK    1  A    between atoms: C_1  and  C_2
REMARK    2  A    between atoms: C_2  and  N_68
REMARK    3  A    between atoms: C_3  and  C_4
REMARK    4  A    between atoms: C_3  and  N_68
REMARK    5  A    between atoms: C_5  and  C_6
REMARK    6  A    between atoms: C_5  and  N_68
REMARK    7  A    between atoms: C_6  and  N_7
REMARK    8  A    between atoms: C_8  and  C_28
REMARK    9  A    between atoms: C_10  and  C_15
REMARK   10  A    between atoms: C_11  and  O_14
REMARK   11  A    between atoms: C_15  and  C_17
REMARK   12  A    between atoms: C_24  and  C_27
REMARK   13  A    between atoms: C_31  and  C_34
REMARK   14  A    between atoms: C_34  and  O_36
REMARK   15  A    between atoms: O_36  and  C_37
REMARK                            x       y       z     vdW  Elec       q    Type
REMARK                         _______ _______ _______ _____ _____    ______ ____
ROOT
ATOM      1  N   UNL     1       3.803   1.286   1.433  0.00  0.00    -0.285 N 
ATOM      2  C   UNL     1       4.750   1.491   2.536  0.00  0.00    +0.144 C 
ATOM      3  C   UNL     1       6.038   1.961   1.903  0.00  0.00    +0.071 C 
ATOM      4  C   UNL     1       5.820   2.020   0.569  0.00  0.00    +0.188 C 
ATOM      5  C   UNL     1       4.432   1.600   0.285  0.00  0.00    +0.282 C 
ATOM      6  O   UNL     1       3.932   1.545  -0.821  0.00  0.00    -0.267 OA
ENDROOT
BRANCH   2   7
ATOM      7  C   UNL     1       4.222   2.537   3.483  0.00  0.00    -0.022 A 
ATOM      8  C   UNL     1       3.658   3.698   2.983  0.00  0.00    +0.006 A 
ATOM      9  C   UNL     1       3.168   4.657   3.845  0.00  0.00    +0.015 A 
ATOM     10  C   UNL     1       3.253   4.460   5.225  0.00  0.00    +0.059 A 
ATOM     11  C   UNL     1       3.829   3.290   5.723  0.00  0.00    +0.015 A 
ATOM     12  C   UNL     1       4.310   2.336   4.849  0.00  0.00    +0.006 A 
BRANCH  10  13
ATOM     13  C   UNL     1       2.737   5.486   6.154  0.00  0.00    +0.339 C 
ATOM     14  O   UNL     1       2.813   5.312   7.354  0.00  0.00    -0.245 OA
BRANCH  13  15
ATOM     15  O   UNL     1       2.182   6.614   5.671  0.00  0.00    -0.464 OA
ATOM     16  C   UNL     1       1.696   7.578   6.642  0.00  0.00    +0.280 C 
ENDBRANCH  13  15
ENDBRANCH  10  13
ENDBRANCH   2   7
BRANCH   4  17
ATOM     17  O   UNL     1       6.728   2.403  -0.358  0.00  0.00    -0.502 OA
ATOM     18  H   UNL     1       6.315   2.357  -1.268  0.00  0.00    +0.292 HD
ENDBRANCH   4  17
BRANCH   3  19
ATOM     19  C   UNL     1       7.284   2.296   2.601  0.00  0.00    +0.195 C 
ATOM     20  O   UNL     1       7.684   3.446   2.615  0.00  0.00    -0.287 OA
BRANCH  19  21
ATOM     21  C   UNL     1       8.053   1.239   3.286  0.00  0.00    +0.023 A 
ATOM     22  C   UNL     1       7.670  -0.101   3.167  0.00  0.00    +0.015 A 
ATOM     23  C   UNL     1       8.388  -1.084   3.805  0.00  0.00    +0.046 A 
ATOM     24  C   UNL     1       9.498  -0.755   4.586  0.00  0.00    +0.124 A 
ATOM     25  C   UNL     1       9.875   0.580   4.700  0.00  0.00    -0.002 A 
ATOM     26  C   UNL     1       9.167   1.570   4.065  0.00  0.00    +0.019 A 
ATOM     27  C   UNL     1      11.106   0.619   5.585  0.00  0.00    +0.083 C 
ATOM     28  C   UNL     1      11.550  -0.863   5.580  0.00  0.00    +0.175 C 
ATOM     29  O   UNL     1      10.324  -1.562   5.305  0.00  0.00    -0.488 OA
ATOM     30  C   UNL     1      12.578  -1.117   4.476  0.00  0.00    +0.052 C 
ENDBRANCH  19  21
ENDBRANCH   3  19
BRANCH   1  31
ATOM     31  C   UNL     1       2.417   0.828   1.559  0.00  0.00    +0.090 C 
BRANCH  31  32
ATOM     32  C   UNL     1       2.375  -0.699   1.472  0.00  0.00    -0.060 C 
BRANCH  32  33
ATOM     33  N   UNL     1       0.967  -1.140   1.546  0.00  0.00    +0.380 N 
ATOM     34  H   UNL     1       0.399  -0.548   0.928  0.00  0.00    -0.082 HD
BRANCH  33  36
ATOM     35  C   UNL     1       1.002  -2.594  -0.419  0.00  0.00    -0.017 C 
ATOM     36  C   UNL     1       0.853  -2.545   1.103  0.00  0.00    -0.082 C 
ENDBRANCH  33  36
BRANCH  33  37
ATOM     37  C   UNL     1       0.468  -1.005   2.931  0.00  0.00    -0.082 C 
ATOM     38  C   UNL     1      -1.042  -1.252   2.938  0.00  0.00    -0.017 C 
ENDBRANCH  33  37
ENDBRANCH  32  33
ENDBRANCH  31  32
ENDBRANCH   1  31
TORSDOF 11
