REMARK  Name = ZINC38596786
REMARK  10 active torsions:
REMARK  status: ('A' for Active; 'I' for Inactive)
REMARK    1  A    between atoms: C_1  and  C_2
REMARK    2  A    between atoms: C_2  and  O_3
REMARK    3  A    between atoms: O_3  and  C_4
REMARK    4  A    between atoms: C_4  and  C_6
REMARK    5  A    between atoms: N_11  and  C_13
REMARK    6  A    between atoms: C_13  and  C_14
REMARK    7  A    between atoms: N_16  and  C_17
REMARK    8  A    between atoms: C_25  and  C_27
REMARK    9  A    between atoms: C_27  and  O_29
REMARK   10  A    between atoms: O_29  and  C_30
REMARK                            x       y       z     vdW  Elec       q    Type
REMARK                         _______ _______ _______ _____ _____    ______ ____
ROOT
ATOM      1  C   UNL     1       2.723  -6.691   4.711  0.00  0.00    +0.200 C 
ATOM      2  O   UNL     1       3.333  -5.905   5.404  0.00  0.00    -0.278 OA
ATOM      3  N   UNL     1       2.669  -7.993   5.055  0.00  0.00    -0.288 N 
ATOM      4  H   UNL     1       2.138  -8.612   4.530  0.00  0.00    +0.155 HD
ENDROOT
BRANCH   3   5
ATOM      5  C   UNL     1       3.361  -8.440   6.141  0.00  0.00    +0.053 C 
ATOM      6  C   UNL     1       3.622  -9.756   6.482  0.00  0.00    +0.019 A 
ATOM      7  C   UNL     1       3.286 -10.986   5.867  0.00  0.00    +0.026 A 
ATOM      8  C   UNL     1       3.683 -12.152   6.436  0.00  0.00    +0.019 A 
ATOM      9  C   UNL     1       4.421 -12.174   7.624  0.00  0.00    +0.017 A 
ATOM     10  C   UNL     1       4.778 -11.035   8.266  0.00  0.00    +0.027 A 
ATOM     11  C   UNL     1       4.400  -9.775   7.733  0.00  0.00    +0.045 A 
ATOM     12  N   UNL     1       4.618  -8.548   8.158  0.00  0.00    -0.367 N 
ATOM     13  C   UNL     1       4.007  -7.600   7.221  0.00  0.00    +0.234 C 
ATOM     14 BR   UNL     1       3.226 -13.787   5.604  0.00  0.00    -0.050 Br
ATOM     15  H   UNL     1       5.107  -8.309   8.961  0.00  0.00    +0.161 HD
BRANCH  13  16
ATOM     16  C   UNL     1       2.965  -6.773   7.928  0.00  0.00    +0.335 C 
ATOM     17  O   UNL     1       2.545  -7.123   9.005  0.00  0.00    -0.248 OA
BRANCH  16  18
ATOM     18  O   UNL     1       2.504  -5.646   7.362  0.00  0.00    -0.466 OA
ATOM     19  C   UNL     1       1.518  -4.912   8.089  0.00  0.00    +0.280 C 
ENDBRANCH  16  18
ENDBRANCH  13  16
ENDBRANCH   3   5
BRANCH   1  20
ATOM     20  C   UNL     1       2.026  -6.213   3.463  0.00  0.00    +0.019 C 
BRANCH  20  25
ATOM     21  C   UNL     1       1.599  -2.760   2.056  0.00  0.00    +0.081 C 
ATOM     22  C   UNL     1       3.076  -2.411   1.849  0.00  0.00    +0.011 C 
ATOM     23  C   UNL     1       3.893  -2.989   3.008  0.00  0.00    -0.018 C 
ATOM     24  C   UNL     1       3.660  -4.499   3.087  0.00  0.00    -0.078 C 
ATOM     25  N   UNL     1       2.234  -4.766   3.311  0.00  0.00    +0.386 N 
ATOM     26  C   UNL     1       1.450  -4.279   2.170  0.00  0.00    -0.064 C 
ATOM     27  H   UNL     1       1.932  -4.295   4.151  0.00  0.00    -0.081 HD
BRANCH  21  28
ATOM     28  C   UNL     1       0.796  -2.263   0.882  0.00  0.00    +0.308 C 
ATOM     29  O   UNL     1       0.166  -3.042   0.206  0.00  0.00    -0.251 OA
BRANCH  28  30
ATOM     30  O   UNL     1       0.779  -0.953   0.586  0.00  0.00    -0.465 OA
BRANCH  30  32
ATOM     31  C   UNL     1       0.100   0.964  -0.719  0.00  0.00    +0.048 C 
ATOM     32  C   UNL     1      -0.003  -0.552  -0.540  0.00  0.00    +0.229 C 
ENDBRANCH  30  32
ENDBRANCH  28  30
ENDBRANCH  21  28
ENDBRANCH  20  25
ENDBRANCH   1  20
TORSDOF 8
