REMARK  Name = ZINC63137984
REMARK  9 active torsions:
REMARK  status: ('A' for Active; 'I' for Inactive)
REMARK    1  A    between atoms: C_1  and  O_2
REMARK    2  A    between atoms: O_2  and  C_3
REMARK    3  A    between atoms: C_7  and  C_9
REMARK    4  A    between atoms: C_9  and  N_10
REMARK    5  A    between atoms: C_30  and  C_32
REMARK    6  A    between atoms: C_35  and  O_40
REMARK    7  A    between atoms: C_36  and  O_38
REMARK    8  A    between atoms: O_38  and  C_39
REMARK    9  A    between atoms: O_40  and  C_41
REMARK                            x       y       z     vdW  Elec       q    Type
REMARK                         _______ _______ _______ _____ _____    ______ ____
ROOT
ATOM      1  N   UNL     1       0.232  -4.680   2.923  0.00  0.00    -0.287 N 
ATOM      2  C   UNL     1       0.327  -4.841   4.364  0.00  0.00    +0.204 C 
ATOM      3  C   UNL     1      -0.936  -5.371   4.958  0.00  0.00    +0.234 C 
ATOM      4  O   UNL     1      -0.965  -5.545   6.157  0.00  0.00    -0.274 OA
ATOM      5  N   UNL     1      -2.039  -5.665   4.260  0.00  0.00    -0.279 N 
ATOM      6  C   UNL     1      -2.131  -5.480   2.816  0.00  0.00    +0.167 C 
ATOM      7  C   UNL     1      -0.865  -4.957   2.221  0.00  0.00    +0.237 C 
ATOM      8  O   UNL     1      -0.833  -4.778   1.022  0.00  0.00    -0.274 OA
ATOM      9  C   UNL     1      -3.290  -4.522   2.482  0.00  0.00    +0.065 C 
ATOM     10  C   UNL     1      -4.472  -4.974   3.303  0.00  0.00    -0.034 C 
ATOM     11  C   UNL     1      -5.725  -5.249   2.965  0.00  0.00    -0.001 A 
ATOM     12  C   UNL     1      -6.450  -5.106   1.692  0.00  0.00    +0.010 A 
ATOM     13  C   UNL     1      -7.748  -5.512   1.692  0.00  0.00    +0.001 A 
ATOM     14  C   UNL     1      -8.389  -6.039   2.818  0.00  0.00    +0.002 A 
ATOM     15  C   UNL     1      -7.802  -6.196   4.031  0.00  0.00    +0.026 A 
ATOM     16  C   UNL     1      -6.439  -5.797   4.158  0.00  0.00    +0.043 A 
ATOM     17  N   UNL     1      -5.651  -5.814   5.192  0.00  0.00    -0.375 N 
ATOM     18  C   UNL     1      -4.368  -5.227   4.803  0.00  0.00    +0.131 C 
ATOM     19  C   UNL     1      -3.203  -6.201   5.002  0.00  0.00    +0.134 C 
ATOM     20  H   UNL     1      -5.874  -6.157   6.071  0.00  0.00    +0.160 HD
ENDROOT
BRANCH  19  21
ATOM     21  C   UNL     1      -2.870  -6.307   6.468  0.00  0.00    -0.021 A 
ATOM     22  C   UNL     1      -2.396  -7.499   6.983  0.00  0.00    +0.009 A 
ATOM     23  C   UNL     1      -2.089  -7.601   8.327  0.00  0.00    +0.050 A 
ATOM     24  C   UNL     1      -2.257  -6.508   9.161  0.00  0.00    +0.162 A 
ATOM     25  C   UNL     1      -2.734  -5.308   8.642  0.00  0.00    +0.162 A 
ATOM     26  C   UNL     1      -3.035  -5.210   7.293  0.00  0.00    +0.055 A 
BRANCH  25  27
ATOM     27  O   UNL     1      -2.900  -4.232   9.457  0.00  0.00    -0.491 OA
ATOM     28  C   UNL     1      -3.394  -3.033   8.856  0.00  0.00    +0.277 C 
ENDBRANCH  25  27
BRANCH  24  29
ATOM     29  O   UNL     1      -1.956  -6.607  10.483  0.00  0.00    -0.491 OA
ATOM     30  C   UNL     1      -1.471  -7.869  10.945  0.00  0.00    +0.277 C 
ENDBRANCH  24  29
ENDBRANCH  19  21
BRANCH   1  31
ATOM     31  C   UNL     1       1.406  -4.179   2.204  0.00  0.00    +0.143 C 
BRANCH  31  36
ATOM     32  C   UNL     1       0.676  -0.663   1.027  0.00  0.00    +0.120 A 
ATOM     33  C   UNL     1       1.260   0.090   2.035  0.00  0.00    +0.045 A 
ATOM     34  C   UNL     1       1.888  -0.540   3.091  0.00  0.00    +0.004 A 
ATOM     35  C   UNL     1       1.934  -1.921   3.145  0.00  0.00    +0.005 A 
ATOM     36  C   UNL     1       1.353  -2.675   2.142  0.00  0.00    -0.027 A 
ATOM     37  C   UNL     1       0.719  -2.049   1.086  0.00  0.00    +0.050 A 
BRANCH  32  39
ATOM     38  C   UNL     1       0.051   1.383  -0.009  0.00  0.00    +0.277 C 
ATOM     39  O   UNL     1       0.057  -0.046  -0.013  0.00  0.00    -0.495 OA
ENDBRANCH  32  39
ENDBRANCH  31  36
ENDBRANCH   1  31
TORSDOF 6
