REMARK  Name = ZINC38570691
REMARK  6 active torsions:
REMARK  status: ('A' for Active; 'I' for Inactive)
REMARK    1  A    between atoms: C_1  and  N_2
REMARK    2  A    between atoms: C_3  and  O_36
REMARK    3  A    between atoms: C_5  and  C_19
REMARK    4  A    between atoms: N_9  and  C_12
REMARK    5  A    between atoms: C_26  and  O_31
REMARK    6  A    between atoms: O_31  and  C_32
REMARK                            x       y       z     vdW  Elec       q    Type
REMARK                         _______ _______ _______ _____ _____    ______ ____
ROOT
ATOM      1  C   UNL     1       0.177   1.298  -1.382  0.00  0.00    +0.136 C 
ATOM      2  N   UNL     1       0.149   0.008  -0.688  0.00  0.00    -0.262 N 
ATOM      3  C   UNL     1      -1.088  -0.437  -0.042  0.00  0.00    +0.219 C 
ATOM      4  C   UNL     1      -1.224  -1.954  -0.190  0.00  0.00    +0.146 C 
ATOM      5  C   UNL     1       0.090  -2.606   0.163  0.00  0.00    +0.236 C 
ATOM      6  O   UNL     1       0.102  -3.688   0.710  0.00  0.00    -0.274 OA
ATOM      7  N   UNL     1       1.248  -1.986  -0.129  0.00  0.00    -0.194 N 
ATOM      8  C   UNL     1       1.256  -0.752  -0.658  0.00  0.00    +0.317 C 
ATOM      9  O   UNL     1       2.291  -0.310  -1.117  0.00  0.00    -0.252 OA
ENDROOT
BRANCH   4  10
ATOM     10  C   UNL     1      -1.594  -2.297  -1.634  0.00  0.00    +0.117 C 
ATOM     11  C   UNL     1      -1.840  -3.782  -1.757  0.00  0.00    +0.038 A 
ATOM     12  H   UNL     1      -2.980  -4.274  -0.084  0.00  0.00    +0.166 HD
ATOM     13  C   UNL     1      -1.366  -4.525  -2.783  0.00  0.00    -0.016 A 
ATOM     14  C   UNL     1      -1.796  -5.887  -2.560  0.00  0.00    +0.007 A 
ATOM     15  C   UNL     1      -1.607  -7.072  -3.278  0.00  0.00    +0.056 A 
ATOM     16  C   UNL     1      -2.180  -8.220  -2.751  0.00  0.00    +0.121 A 
ATOM     17  C   UNL     1      -2.906  -8.199  -1.567  0.00  0.00    +0.047 A 
ATOM     18  C   UNL     1      -3.103  -7.036  -0.843  0.00  0.00    +0.030 A 
ATOM     19  C   UNL     1      -2.539  -5.868  -1.351  0.00  0.00    +0.047 A 
ATOM     20  N   UNL     1      -2.543  -4.578  -0.895  0.00  0.00    -0.356 N 
ATOM     21  C   UNL     1      -0.549  -3.954  -3.915  0.00  0.00    +0.052 C 
ATOM     22  C   UNL     1      -0.710  -2.428  -3.894  0.00  0.00    +0.086 C 
ATOM     23  N   UNL     1      -0.486  -1.927  -2.529  0.00  0.00    -0.307 NA
ATOM     24  H   UNL     1      -0.336  -0.929  -2.527  0.00  0.00    +0.123 HD
BRANCH  16  25
ATOM     25  O   UNL     1      -2.025  -9.399  -3.411  0.00  0.00    -0.495 OA
ATOM     26  C   UNL     1      -2.633 -10.554  -2.828  0.00  0.00    +0.277 C 
ENDBRANCH  16  25
ENDBRANCH   4  10
BRANCH   7  27
ATOM     27  C   UNL     1       2.463  -2.641   0.118  0.00  0.00    +0.045 A 
ATOM     28  C   UNL     1       3.115  -2.463   1.330  0.00  0.00    +0.025 A 
ATOM     29  C   UNL     1       4.312  -3.109   1.571  0.00  0.00    +0.022 A 
ATOM     30  C   UNL     1       4.862  -3.933   0.604  0.00  0.00    +0.041 A 
ATOM     31  C   UNL     1       4.214  -4.111  -0.606  0.00  0.00    +0.022 A 
ATOM     32  C   UNL     1       3.014  -3.472  -0.848  0.00  0.00    +0.025 A 
ATOM     33 CL   UNL     1       6.366  -4.742   0.910  0.00  0.00    -0.084 Cl
ENDBRANCH   7  27
BRANCH   3  34
ATOM     34  O   UNL     1      -2.205   0.203  -0.661  0.00  0.00    -0.373 OA
ATOM     35  H   UNL     1      -2.186   1.169  -0.606  0.00  0.00    +0.212 HD
ENDBRANCH   3  34
TORSDOF 4
