REMARK  Name = ZINC02049842
REMARK  6 active torsions:
REMARK  status: ('A' for Active; 'I' for Inactive)
REMARK    1  A    between atoms: C_4  and  N_7
REMARK    2  A    between atoms: C_15  and  C_18
REMARK    3  A    between atoms: C_18  and  C_19
REMARK    4  A    between atoms: C_19  and  C_20
REMARK    5  A    between atoms: C_20  and  C_21
REMARK    6  A    between atoms: C_21  and  C_36
REMARK                            x       y       z     vdW  Elec       q    Type
REMARK                         _______ _______ _______ _____ _____    ______ ____
ROOT
ATOM      1  C   UNL     1      -5.421   6.836  -1.922  0.00  0.00    +0.003 C 
ENDROOT
BRANCH   1  10
ATOM      2  N   UNL     1      -7.729   9.866  -4.569  0.00  0.00    -0.300 N 
ATOM      3  C   UNL     1      -8.830  10.277  -5.471  0.00  0.00    +0.214 C 
ATOM      4  N   UNL     1      -8.323  10.106  -6.839  0.00  0.00    -0.298 N 
ATOM      5  C   UNL     1      -7.238   9.304  -6.822  0.00  0.00    +0.238 C 
ATOM      6  O   UNL     1      -6.595   8.960  -7.791  0.00  0.00    -0.273 OA
ATOM      7  C   UNL     1      -6.962   8.908  -5.392  0.00  0.00    +0.112 C 
ATOM      8  C   UNL     1      -7.448   7.486  -5.130  0.00  0.00    +0.036 C 
ATOM      9  C   UNL     1      -7.185   7.115  -3.669  0.00  0.00    +0.006 C 
ATOM     10  C   UNL     1      -5.686   7.218  -3.379  0.00  0.00    -0.011 C 
ATOM     11  C   UNL     1      -5.217   8.653  -3.624  0.00  0.00    +0.006 C 
ATOM     12  C   UNL     1      -5.472   9.030  -5.085  0.00  0.00    +0.036 C 
ATOM     13  H   UNL     1      -8.829  10.604  -7.679  0.00  0.00    +0.150 HD
BRANCH   2  17
ATOM     14  C   UNL     1      -9.217   8.032  -1.140  0.00  0.00    +0.000 A 
ATOM     15  C   UNL     1      -8.116   8.864  -1.054  0.00  0.00    +0.002 A 
ATOM     16  C   UNL     1      -7.620   9.474  -2.190  0.00  0.00    +0.023 A 
ATOM     17  C   UNL     1      -8.228   9.251  -3.418  0.00  0.00    +0.032 A 
ATOM     18  C   UNL     1      -9.337   8.418  -3.500  0.00  0.00    +0.023 A 
ATOM     19  C   UNL     1      -9.825   7.807  -2.361  0.00  0.00    +0.002 A 
ENDBRANCH   2  17
ENDBRANCH   1  10
BRANCH   1  20
ATOM     20  C   UNL     1      -3.913   6.818  -1.665  0.00  0.00    +0.002 C 
BRANCH  20  21
ATOM     21  C   UNL     1      -3.648   6.437  -0.208  0.00  0.00    +0.027 C 
BRANCH  21  22
ATOM     22  C   UNL     1      -2.141   6.459   0.059  0.00  0.00    +0.087 C 
ATOM     23  C   UNL     1      -1.667   7.870  -0.081  0.00  0.00    +0.062 C 
ATOM     24  C   UNL     1      -0.300   8.085   0.482  0.00  0.00    -0.032 A 
ATOM     25  C   UNL     1      -0.163   8.678   1.731  0.00  0.00    +0.005 A 
ATOM     26  C   UNL     1       1.096   8.828   2.282  0.00  0.00    +0.000 A 
ATOM     27  C   UNL     1       2.216   8.382   1.603  0.00  0.00    +0.001 A 
ATOM     28  C   UNL     1       2.080   7.800   0.357  0.00  0.00    +0.015 A 
ATOM     29  C   UNL     1       0.809   7.673  -0.195  0.00  0.00    +0.016 A 
ATOM     30  S   UNL     1       0.604   7.002  -1.807  0.00  0.00    -0.089 S 
ATOM     31  C   UNL     1      -0.368   5.552  -1.614  0.00  0.00    +0.017 A 
ATOM     32  C   UNL     1      -1.494   5.440  -0.837  0.00  0.00    -0.013 A 
ATOM     33  C   UNL     1      -2.182   4.217  -0.839  0.00  0.00    +0.006 A 
ATOM     34  C   UNL     1      -1.755   3.138  -1.572  0.00  0.00    +0.000 A 
ATOM     35  C   UNL     1      -0.608   3.246  -2.337  0.00  0.00    +0.001 A 
ATOM     36  C   UNL     1       0.071   4.439  -2.353  0.00  0.00    +0.015 A 
BRANCH  22  37
ATOM     37  C   UNL     1      -1.924   6.042   1.454  0.00  0.00    +0.074 C 
ATOM     38  N   UNL     1      -1.756   5.720   2.531  0.00  0.00    -0.196 NA
ENDBRANCH  22  37
ENDBRANCH  21  22
ENDBRANCH  20  21
ENDBRANCH   1  20
TORSDOF 6
