REMARK  Name = ZINC09597500
REMARK  11 active torsions:
REMARK  status: ('A' for Active; 'I' for Inactive)
REMARK    1  A    between atoms: C_1  and  C_2
REMARK    2  A    between atoms: C_7  and  C_8
REMARK    3  A    between atoms: C_8  and  S_9
REMARK    4  A    between atoms: S_9  and  C_10
REMARK    5  A    between atoms: C_15  and  C_25
REMARK    6  A    between atoms: C_27  and  O_35
REMARK    7  A    between atoms: C_28  and  O_33
REMARK    8  A    between atoms: C_30  and  O_31
REMARK    9  A    between atoms: O_31  and  C_32
REMARK   10  A    between atoms: O_33  and  C_34
REMARK   11  A    between atoms: O_35  and  C_36
REMARK                            x       y       z     vdW  Elec       q    Type
REMARK                         _______ _______ _______ _____ _____    ______ ____
ROOT
ATOM      1  C   UNL     1       2.854   3.039   7.636  0.00  0.00    +0.211 A 
ATOM      2  N   UNL     1       1.787   2.770   8.402  0.00  0.00    -0.187 NA
ATOM      3  C   UNL     1       1.203   1.685   7.970  0.00  0.00    +0.219 A 
ATOM      4  N   UNL     1       1.896   1.232   6.897  0.00  0.00    -0.220 N 
ATOM      5  N   UNL     1       2.955   2.117   6.703  0.00  0.00    -0.141 NA
ATOM      6  C   UNL     1       1.526   0.037   6.149  0.00  0.00    +0.179 C 
ATOM      7  C   UNL     1       0.507  -0.765   6.929  0.00  0.00    +0.041 C 
ATOM      8  C   UNL     1      -0.149  -0.257   7.991  0.00  0.00    +0.020 C 
ATOM      9  N   UNL     1       0.083   1.021   8.441  0.00  0.00    -0.287 N 
ATOM     10  C   UNL     1      -1.178  -1.077   8.732  0.00  0.00    +0.052 C 
ATOM     11  C   UNL     1      -0.796  -2.557   8.675  0.00  0.00    +0.014 C 
ATOM     12  C   UNL     1      -0.711  -2.977   7.204  0.00  0.00    +0.080 C 
ATOM     13  C   UNL     1       0.270  -2.085   6.497  0.00  0.00    +0.163 C 
ATOM     14  O   UNL     1       0.872  -2.512   5.531  0.00  0.00    -0.292 OA
ATOM     15  H   UNL     1      -0.521   1.445   9.070  0.00  0.00    +0.155 HD
ENDROOT
BRANCH   6  16
ATOM     16  C   UNL     1       0.935   0.441   4.822  0.00  0.00    +0.027 A 
ATOM     17  C   UNL     1      -0.204   1.223   4.784  0.00  0.00    +0.059 A 
ATOM     18  C   UNL     1      -0.749   1.596   3.566  0.00  0.00    +0.162 A 
ATOM     19  C   UNL     1      -0.148   1.182   2.380  0.00  0.00    +0.165 A 
ATOM     20  C   UNL     1       0.989   0.393   2.421  0.00  0.00    +0.095 A 
ATOM     21  C   UNL     1       1.535   0.027   3.643  0.00  0.00    +0.129 A 
BRANCH  21  22
ATOM     22  O   UNL     1       2.655  -0.743   3.683  0.00  0.00    -0.495 OA
ATOM     23  C   UNL     1       3.220  -1.132   2.430  0.00  0.00    +0.277 C 
ENDBRANCH  21  22
BRANCH  19  24
ATOM     24  O   UNL     1      -0.682   1.547   1.184  0.00  0.00    -0.491 OA
ATOM     25  C   UNL     1      -0.013   1.086   0.008  0.00  0.00    +0.277 C 
ENDBRANCH  19  24
BRANCH  18  26
ATOM     26  O   UNL     1      -1.870   2.366   3.528  0.00  0.00    -0.491 OA
ATOM     27  C   UNL     1      -2.433   2.754   4.783  0.00  0.00    +0.277 C 
ENDBRANCH  18  26
ENDBRANCH   6  16
BRANCH   1  28
ATOM     28  S   UNL     1       3.946   4.406   7.847  0.00  0.00    -0.080 S 
BRANCH  28  29
ATOM     29  C   UNL     1       3.274   5.287   9.283  0.00  0.00    +0.112 C 
BRANCH  29  36
ATOM     30  C   UNL     1       2.656   7.824   8.046  0.00  0.00    +0.044 C 
ATOM     31  C   UNL     1       3.830   7.709   8.983  0.00  0.00    -0.046 A 
ATOM     32  C   UNL     1       4.612   8.817   9.252  0.00  0.00    +0.003 A 
ATOM     33  C   UNL     1       5.689   8.712  10.112  0.00  0.00    +0.000 A 
ATOM     34  C   UNL     1       5.984   7.498  10.704  0.00  0.00    +0.000 A 
ATOM     35  C   UNL     1       5.200   6.391  10.439  0.00  0.00    +0.005 A 
ATOM     36  C   UNL     1       4.126   6.495   9.575  0.00  0.00    -0.034 A 
ENDBRANCH  29  36
ENDBRANCH  28  29
ENDBRANCH   1  28
TORSDOF 7
