REMARK  Name = ZINC20559484
REMARK  9 active torsions:
REMARK  status: ('A' for Active; 'I' for Inactive)
REMARK    1  A    between atoms: C_1  and  C_2
REMARK    2  A    between atoms: C_5  and  C_8
REMARK    3  A    between atoms: C_8  and  C_10
REMARK    4  A    between atoms: C_8  and  N_21
REMARK    5  A    between atoms: C_26  and  C_29
REMARK    6  A    between atoms: C_29  and  C_30
REMARK    7  A    between atoms: N_32  and  C_33
REMARK    8  A    between atoms: C_36  and  C_40
REMARK    9  A    between atoms: C_38  and  C_39
REMARK                            x       y       z     vdW  Elec       q    Type
REMARK                         _______ _______ _______ _____ _____    ______ ____
ROOT
ATOM      1  N   UNL     1      -0.008   0.928   0.015  0.00  0.00    -0.314 N 
ATOM      2  C   UNL     1       1.159   1.635   0.008  0.00  0.00    +0.148 C 
ATOM      3  N   UNL     1       1.308   2.949   0.019  0.00  0.00    -0.158 NA
ATOM      4  C   UNL     1       2.464   3.558   0.012  0.00  0.00    +0.252 C 
ATOM      5  O   UNL     1       2.574   4.769   0.022  0.00  0.00    -0.272 OA
ATOM      6  C   UNL     1       3.663   2.617  -0.010  0.00  0.00    +0.150 C 
ATOM      7  S   UNL     1       2.778   1.007  -0.009  0.00  0.00    -0.080 S 
ATOM      8  H   UNL     1       0.015  -0.171   0.009  0.00  0.00    +0.149 HD
ENDROOT
BRANCH   1   9
ATOM      9  C   UNL     1      -1.291   1.635   0.029  0.00  0.00    +0.143 C 
BRANCH   9  10
ATOM     10  C   UNL     1      -1.681   1.999  -1.380  0.00  0.00    +0.106 A 
ATOM     11  C   UNL     1      -1.967   3.291  -1.707  0.00  0.00    +0.263 A 
ATOM     12  N   UNL     1      -2.313   3.601  -2.997  0.00  0.00    -0.275 N 
ATOM     13  H   UNL     1      -2.537   4.642  -3.272  0.00  0.00    +0.173 HD
ATOM     14  C   UNL     1      -2.383   2.637  -3.934  0.00  0.00    +0.329 A 
ATOM     15  O   UNL     1      -2.697   2.930  -5.072  0.00  0.00    -0.247 OA
ATOM     16  N   UNL     1      -2.110   1.355  -3.631  0.00  0.00    -0.275 N 
ATOM     17  H   UNL     1      -2.172   0.581  -4.409  0.00  0.00    +0.173 HD
ATOM     18  C   UNL     1      -1.760   1.009  -2.376  0.00  0.00    +0.263 A 
ATOM     19  O   UNL     1      -1.514  -0.154  -2.106  0.00  0.00    -0.267 OA
ATOM     20  O   UNL     1      -1.904   4.260  -0.768  0.00  0.00    -0.267 OA
ENDBRANCH   9  10
BRANCH   9  25
ATOM     21  C   UNL     1      -5.346  -1.783   2.325  0.00  0.00    +0.044 C 
ATOM     22  C   UNL     1      -4.288  -0.892   1.726  0.00  0.00    -0.050 A 
ATOM     23  C   UNL     1      -4.266   0.456   2.032  0.00  0.00    +0.004 A 
ATOM     24  C   UNL     1      -3.297   1.274   1.483  0.00  0.00    +0.006 A 
ATOM     25  C   UNL     1      -2.349   0.743   0.628  0.00  0.00    -0.022 A 
ATOM     26  C   UNL     1      -2.373  -0.604   0.319  0.00  0.00    +0.006 A 
ATOM     27  C   UNL     1      -3.341  -1.422   0.871  0.00  0.00    +0.004 A 
ENDBRANCH   9  25
ENDBRANCH   1   9
BRANCH   6  28
ATOM     28  C   UNL     1       4.522   2.777   1.246  0.00  0.00    +0.120 C 
BRANCH  28  29
ATOM     29  C   UNL     1       5.755   1.919   1.123  0.00  0.00    +0.219 C 
ATOM     30  O   UNL     1       5.929   1.246   0.130  0.00  0.00    -0.275 OA
ATOM     31  N   UNL     1       6.665   1.901   2.118  0.00  0.00    -0.285 N 
ATOM     32  H   UNL     1       6.554   2.578   2.977  0.00  0.00    +0.155 HD
BRANCH  31  33
ATOM     33  C   UNL     1       7.749   1.019   2.057  0.00  0.00    +0.036 A 
ATOM     34  C   UNL     1       7.656  -0.149   1.312  0.00  0.00    +0.024 A 
ATOM     35  C   UNL     1       8.730  -1.015   1.250  0.00  0.00    +0.005 A 
ATOM     36  C   UNL     1       9.895  -0.725   1.937  0.00  0.00    -0.050 A 
ATOM     37  C   UNL     1       9.989   0.435   2.684  0.00  0.00    +0.008 A 
ATOM     38  C   UNL     1       8.920   1.307   2.746  0.00  0.00    -0.029 A 
ATOM     39  C   UNL     1       9.024   2.571   3.561  0.00  0.00    +0.045 C 
ATOM     40  C   UNL     1      11.063  -1.675   1.872  0.00  0.00    +0.044 C 
ENDBRANCH  31  33
ENDBRANCH  28  29
ENDBRANCH   6  28
TORSDOF 6
