REMARK  Name = ZINC63312585
REMARK  10 active torsions:
REMARK  status: ('A' for Active; 'I' for Inactive)
REMARK    1  A    between atoms: C_1  and  C_2
REMARK    2  A    between atoms: C_2  and  O_3
REMARK    3  A    between atoms: O_3  and  C_4
REMARK    4  A    between atoms: C_7  and  C_28
REMARK    5  A    between atoms: C_9  and  S_10
REMARK    6  A    between atoms: S_10  and  N_13
REMARK    7  A    between atoms: N_13  and  C_14
REMARK    8  A    between atoms: C_14  and  C_15
REMARK    9  A    between atoms: C_15  and  C_16
REMARK   10  A    between atoms: C_24  and  C_26
REMARK                            x       y       z     vdW  Elec       q    Type
REMARK                         _______ _______ _______ _____ _____    ______ ____
ROOT
ATOM      1  N   UNL     1       3.537  -0.418   2.928  0.00  0.00    -0.190 NA
ATOM      2  H   UNL     1       4.439  -0.693   3.152  0.00  0.00    +0.148 HD
ENDROOT
BRANCH   1   3
ATOM      3  S   UNL     1       2.244  -1.131   3.678  0.00  0.00    +0.062 S 
ATOM      4  O   UNL     1       1.401  -0.077   4.123  0.00  0.00    -0.153 OA
ATOM      5  O   UNL     1       2.775  -2.107   4.563  0.00  0.00    -0.153 OA
BRANCH   3  11
ATOM      6  C   UNL     1       0.591  -1.313   1.508  0.00  0.00    +0.147 A 
ATOM      7  C   UNL     1      -0.113  -2.007   0.533  0.00  0.00    +0.048 A 
ATOM      8  C   UNL     1      -0.066  -3.387   0.500  0.00  0.00    +0.007 A 
ATOM      9  C   UNL     1       0.680  -4.077   1.437  0.00  0.00    -0.048 A 
ATOM     10  C   UNL     1       1.382  -3.389   2.409  0.00  0.00    +0.035 A 
ATOM     11  C   UNL     1       1.343  -2.008   2.443  0.00  0.00    +0.147 A 
ATOM     12  C   UNL     1       0.729  -5.583   1.399  0.00  0.00    +0.044 C 
BRANCH   6  13
ATOM     13  O   UNL     1       0.547   0.045   1.542  0.00  0.00    -0.490 OA
BRANCH  13  15
ATOM     14  C   UNL     1      -0.195   2.206   0.756  0.00  0.00    +0.048 C 
ATOM     15  C   UNL     1      -0.341   0.689   0.626  0.00  0.00    +0.226 C 
ENDBRANCH  13  15
ENDBRANCH   6  13
ENDBRANCH   3  11
ENDBRANCH   1   3
BRANCH   1  16
ATOM     16  C   UNL     1       3.317   0.627   1.925  0.00  0.00    +0.110 C 
BRANCH  16  17
ATOM     17  C   UNL     1       3.326   0.004   0.528  0.00  0.00    +0.050 C 
BRANCH  17  18
ATOM     18  C   UNL     1       3.184   1.090  -0.507  0.00  0.00    -0.037 C 
ATOM     19  C   UNL     1       3.112   2.422  -0.284  0.00  0.00    +0.000 A 
ATOM     20  C   UNL     1       3.142   3.228   0.942  0.00  0.00    +0.025 A 
ATOM     21  C   UNL     1       3.046   4.574   0.846  0.00  0.00    +0.019 A 
ATOM     22  C   UNL     1       2.919   5.217  -0.394  0.00  0.00    +0.017 A 
ATOM     23  C   UNL     1       2.884   4.544  -1.564  0.00  0.00    +0.027 A 
ATOM     24  C   UNL     1       2.977   3.125  -1.580  0.00  0.00    +0.043 A 
ATOM     25  N   UNL     1       2.967   2.261  -2.566  0.00  0.00    -0.378 N 
ATOM     26  C   UNL     1       3.100   0.911  -2.007  0.00  0.00    +0.103 C 
ATOM     27  C   UNL     1       4.373   0.243  -2.531  0.00  0.00    +0.035 C 
ATOM     28 BR   UNL     1       3.084   5.615   2.424  0.00  0.00    -0.050 Br
ATOM     29  H   UNL     1       2.889   2.478  -3.508  0.00  0.00    +0.160 HD
ENDBRANCH  17  18
ENDBRANCH  16  17
ENDBRANCH   1  16
TORSDOF 7
