REMARK  Name = ZINC20622657
REMARK  9 active torsions:
REMARK  status: ('A' for Active; 'I' for Inactive)
REMARK    1  A    between atoms: C_1  and  C_2
REMARK    2  A    between atoms: C_5  and  C_27
REMARK    3  A    between atoms: C_6  and  N_8
REMARK    4  A    between atoms: C_14  and  C_16
REMARK    5  A    between atoms: N_18  and  C_19
REMARK    6  A    between atoms: C_19  and  C_20
REMARK    7  A    between atoms: C_20  and  C_21
REMARK    8  A    between atoms: C_30  and  C_33
REMARK    9  A    between atoms: C_30  and  C_34
REMARK                            x       y       z     vdW  Elec       q    Type
REMARK                         _______ _______ _______ _____ _____    ______ ____
ROOT
ATOM      1  N   UNL     1      -0.903  11.564  -5.989  0.00  0.00    -0.311 N 
ATOM      2  C   UNL     1      -0.852  12.357  -4.754  0.00  0.00    +0.125 C 
ATOM      3  C   UNL     1       0.221  11.779  -3.824  0.00  0.00    +0.127 C 
ATOM      4  N   UNL     1      -0.050  10.347  -3.633  0.00  0.00    -0.291 N 
ATOM      5  C   UNL     1      -0.244   9.509  -4.826  0.00  0.00    +0.127 C 
ATOM      6  C   UNL     1      -1.304  10.177  -5.716  0.00  0.00    +0.125 C 
ATOM      7  C   UNL     1      -0.112   9.814  -2.396  0.00  0.00    +0.302 C 
ATOM      8  O   UNL     1      -0.085  10.537  -1.422  0.00  0.00    -0.265 OA
ENDROOT
BRANCH   1  14
ATOM      9  C   UNL     1      -4.912  14.019  -6.854  0.00  0.00    +0.066 C 
ATOM     10  C   UNL     1      -3.674  13.333  -7.372  0.00  0.00    +0.046 A 
ATOM     11  C   UNL     1      -3.430  13.312  -8.737  0.00  0.00    +0.004 A 
ATOM     12  C   UNL     1      -2.295  12.686  -9.208  0.00  0.00    -0.017 A 
ATOM     13  C   UNL     1      -1.426  12.088  -8.288  0.00  0.00    +0.095 A 
ATOM     14  C   UNL     1      -1.744  12.149  -6.920  0.00  0.00    +0.139 A 
ATOM     15  N   UNL     1      -2.848  12.760  -6.520  0.00  0.00    -0.236 NA
ATOM     16  C   UNL     1      -1.973  12.637 -10.677  0.00  0.00    +0.071 C 
ATOM     17  C   UNL     1      -3.225  12.971 -11.491  0.00  0.00    +0.068 C 
ATOM     18  O   UNL     1      -3.812  14.162 -10.954  0.00  0.00    -0.369 OA
ATOM     19  C   UNL     1      -4.410  13.969  -9.672  0.00  0.00    +0.197 C 
ATOM     20  C   UNL     1      -2.842  13.201 -12.954  0.00  0.00    +0.041 C 
ATOM     21  C   UNL     1      -4.225  11.817 -11.393  0.00  0.00    +0.041 C 
BRANCH  13  22
ATOM     22  C   UNL     1      -0.236  11.426  -8.732  0.00  0.00    +0.103 C 
ATOM     23  N   UNL     1       0.708  10.902  -9.083  0.00  0.00    -0.191 NA
ENDBRANCH  13  22
ENDBRANCH   1  14
BRANCH   7  24
ATOM     24  C   UNL     1      -0.216   8.333  -2.225  0.00  0.00    +0.299 C 
ATOM     25  O   UNL     1      -0.117   7.602  -3.189  0.00  0.00    -0.265 OA
ATOM     26  N   UNL     1      -0.419   7.809  -1.000  0.00  0.00    -0.307 N 
ATOM     27  H   UNL     1      -0.509   8.471  -0.126  0.00  0.00    +0.149 HD
BRANCH  26  28
ATOM     28  C   UNL     1      -0.520   6.357  -0.832  0.00  0.00    +0.109 C 
BRANCH  28  29
ATOM     29  C   UNL     1      -0.749   6.029   0.644  0.00  0.00    +0.054 C 
BRANCH  29  30
ATOM     30  C   UNL     1      -0.853   4.535   0.817  0.00  0.00    -0.046 A 
ATOM     31  C   UNL     1       0.282   3.787   1.066  0.00  0.00    +0.004 A 
ATOM     32  C   UNL     1       0.187   2.417   1.224  0.00  0.00    +0.000 A 
ATOM     33  C   UNL     1      -1.045   1.796   1.134  0.00  0.00    +0.000 A 
ATOM     34  C   UNL     1      -2.179   2.543   0.880  0.00  0.00    +0.000 A 
ATOM     35  C   UNL     1      -2.085   3.913   0.726  0.00  0.00    +0.004 A 
ENDBRANCH  29  30
ENDBRANCH  28  29
ENDBRANCH  26  28
ENDBRANCH   7  24
TORSDOF 6
