REMARK  Name = ZINC57608781
REMARK  10 active torsions:
REMARK  status: ('A' for Active; 'I' for Inactive)
REMARK    1  A    between atoms: C_1  and  C_2
REMARK    2  A    between atoms: C_6  and  C_15
REMARK    3  A    between atoms: C_13  and  C_14
REMARK    4  A    between atoms: C_15  and  C_17
REMARK    5  A    between atoms: C_15  and  N_28
REMARK    6  A    between atoms: N_21  and  C_22
REMARK    7  A    between atoms: N_28  and  C_29
REMARK    8  A    between atoms: N_28  and  C_35
REMARK    9  A    between atoms: C_29  and  C_30
REMARK   10  A    between atoms: C_35  and  C_36
REMARK                            x       y       z     vdW  Elec       q    Type
REMARK                         _______ _______ _______ _____ _____    ______ ____
ROOT
ATOM      1  C   UNL     1       0.576  -5.929  -3.799  0.00  0.00    +0.163 C 
ENDROOT
BRANCH   1   7
ATOM      2  C   UNL     1      -2.215  -0.491   0.475  0.00  0.00    +0.044 C 
ATOM      3  C   UNL     1      -1.980  -1.954   0.195  0.00  0.00    -0.047 A 
ATOM      4  C   UNL     1      -1.297  -2.327  -0.927  0.00  0.00    +0.013 A 
ATOM      5  C   UNL     1      -1.079  -3.683  -1.188  0.00  0.00    -0.001 A 
ATOM      6  C   UNL     1      -0.351  -4.119  -2.381  0.00  0.00    +0.021 A 
ATOM      7  C   UNL     1      -0.170  -5.447  -2.580  0.00  0.00    +0.042 A 
ATOM      8  C   UNL     1      -0.677  -6.382  -1.652  0.00  0.00    +0.254 A 
ATOM      9  O   UNL     1      -0.504  -7.571  -1.851  0.00  0.00    -0.268 OA
ATOM     10  N   UNL     1      -1.347  -5.992  -0.553  0.00  0.00    -0.322 N 
ATOM     11  H   UNL     1      -1.682  -6.660   0.065  0.00  0.00    +0.169 HD
ATOM     12  C   UNL     1      -1.565  -4.656  -0.293  0.00  0.00    +0.049 A 
ATOM     13  C   UNL     1      -2.259  -4.252   0.843  0.00  0.00    +0.030 A 
ATOM     14  C   UNL     1      -2.456  -2.909   1.083  0.00  0.00    -0.046 A 
ATOM     15  C   UNL     1      -3.202  -2.473   2.318  0.00  0.00    +0.044 C 
ENDBRANCH   1   7
BRANCH   1  16
ATOM     16  C   UNL     1      -0.313  -6.843  -4.602  0.00  0.00    +0.173 A 
ATOM     17  N   UNL     1      -0.616  -8.087  -4.320  0.00  0.00    -0.111 NA
ATOM     18  N   UNL     1      -1.398  -8.526  -5.245  0.00  0.00    -0.023 NA
ATOM     19  N   UNL     1      -1.602  -7.594  -6.110  0.00  0.00    -0.044 NA
ATOM     20  N   UNL     1      -0.954  -6.540  -5.746  0.00  0.00    -0.224 N 
BRANCH  20  21
ATOM     21  C   UNL     1      -0.920  -5.254  -6.447  0.00  0.00    +0.111 C 
ATOM     22  C   UNL     1      -2.345  -4.717  -6.598  0.00  0.00    +0.027 C 
ATOM     23  C   UNL     1      -2.310  -3.374  -7.330  0.00  0.00    +0.002 C 
ATOM     24  C   UNL     1      -1.688  -3.566  -8.715  0.00  0.00    +0.000 C 
ATOM     25  C   UNL     1      -0.263  -4.102  -8.565  0.00  0.00    +0.002 C 
ATOM     26  C   UNL     1      -0.299  -5.445  -7.832  0.00  0.00    +0.027 C 
ENDBRANCH  20  21
ENDBRANCH   1  16
BRANCH   1  27
ATOM     27  N   UNL     1       1.779  -6.660  -3.379  0.00  0.00    -0.279 NA
BRANCH  27  28
ATOM     28  C   UNL     1       2.559  -7.102  -4.543  0.00  0.00    +0.159 C 
BRANCH  28  29
ATOM     29  C   UNL     1       1.931  -8.341  -5.127  0.00  0.00    +0.119 A 
ATOM     30  C   UNL     1       1.275  -8.413  -6.300  0.00  0.00    +0.046 A 
ATOM     31  C   UNL     1       0.856  -9.754  -6.453  0.00  0.00    +0.041 A 
ATOM     32  C   UNL     1       1.280 -10.422  -5.365  0.00  0.00    +0.195 A 
ATOM     33  O   UNL     1       1.935  -9.562  -4.568  0.00  0.00    -0.467 OA
ENDBRANCH  28  29
ENDBRANCH  27  28
BRANCH  27  34
ATOM     34  C   UNL     1       2.600  -5.845  -2.474  0.00  0.00    +0.117 C 
BRANCH  34  35
ATOM     35  C   UNL     1       2.104  -6.022  -1.037  0.00  0.00    +0.132 C 
ATOM     36  C   UNL     1       3.068  -5.315  -0.060  0.00  0.00    +0.035 C 
ATOM     37  C   UNL     1       3.115  -6.309   1.133  0.00  0.00    +0.031 C 
ATOM     38  C   UNL     1       2.989  -7.664   0.392  0.00  0.00    +0.160 C 
ATOM     39  O   UNL     1       2.084  -7.414  -0.698  0.00  0.00    -0.375 OA
ENDBRANCH  34  35
ENDBRANCH  27  34
ENDBRANCH   1  27
TORSDOF 8
