REMARK  Name = ZINC35025753
REMARK  15 active torsions:
REMARK  status: ('A' for Active; 'I' for Inactive)
REMARK    1  A    between atoms: C_1  and  C_2
REMARK    2  A    between atoms: C_2  and  C_3
REMARK    3  A    between atoms: C_2  and  C_4
REMARK    4  A    between atoms: C_2  and  C_5
REMARK    5  A    between atoms: C_7  and  C_16
REMARK    6  A    between atoms: C_9  and  C_12
REMARK    7  A    between atoms: C_10  and  O_11
REMARK    8  A    between atoms: C_12  and  C_13
REMARK    9  A    between atoms: C_12  and  C_14
REMARK   10  A    between atoms: C_12  and  C_15
REMARK   11  A    between atoms: C_16  and  C_18
REMARK   12  A    between atoms: C_16  and  N_27
REMARK   13  A    between atoms: C_21  and  N_24
REMARK   14  A    between atoms: N_24  and  C_25
REMARK   15  A    between atoms: N_24  and  C_26
REMARK                            x       y       z     vdW  Elec       q    Type
REMARK                         _______ _______ _______ _____ _____    ______ ____
ROOT
ATOM      1  C   UNL     1       2.418   0.968  -4.270  0.00  0.00    +0.117 C 
ENDROOT
BRANCH   1   2
ATOM      2  N   UNL     1       3.771   0.543  -4.654  0.00  0.00    -0.287 NA
ATOM      3  C   UNL     1       4.605   0.304  -3.465  0.00  0.00    +0.090 C 
ATOM      4  C   UNL     1       5.851  -0.472  -3.895  0.00  0.00    +0.051 C 
ATOM      5  C   UNL     1       6.501   0.209  -5.072  0.00  0.00    -0.042 A 
ATOM      6  C   UNL     1       7.812  -0.118  -5.383  0.00  0.00    +0.004 A 
ATOM      7  C   UNL     1       8.444   0.480  -6.455  0.00  0.00    +0.000 A 
ATOM      8  C   UNL     1       7.765   1.409  -7.223  0.00  0.00    +0.000 A 
ATOM      9  C   UNL     1       6.461   1.736  -6.912  0.00  0.00    +0.005 A 
ATOM     10  C   UNL     1       5.825   1.138  -5.834  0.00  0.00    -0.030 A 
ATOM     11  C   UNL     1       4.405   1.536  -5.528  0.00  0.00    +0.120 C 
ENDBRANCH   1   2
BRANCH   1  14
ATOM     12  C   UNL     1       0.487  -0.751  -1.520  0.00  0.00    +0.000 A 
ATOM     13  C   UNL     1       1.081   0.233  -2.287  0.00  0.00    +0.013 A 
ATOM     14  C   UNL     1       1.772  -0.107  -3.435  0.00  0.00    -0.025 A 
ATOM     15  C   UNL     1       1.872  -1.432  -3.818  0.00  0.00    +0.013 A 
ATOM     16  C   UNL     1       1.280  -2.420  -3.055  0.00  0.00    +0.000 A 
ATOM     17  C   UNL     1       0.591  -2.082  -1.899  0.00  0.00    +0.124 A 
BRANCH  12  19
ATOM     18  C   UNL     1      -0.228   1.138  -0.082  0.00  0.00    +0.015 C 
ATOM     19  C   UNL     1      -0.266  -0.380  -0.269  0.00  0.00    -0.009 C 
ATOM     20  C   UNL     1       0.384  -1.059   0.939  0.00  0.00    +0.015 C 
ATOM     21  C   UNL     1      -1.719  -0.843  -0.393  0.00  0.00    +0.015 C 
ENDBRANCH  12  19
BRANCH  16  22
ATOM     22  C   UNL     1       1.389  -3.863  -3.473  0.00  0.00    -0.009 C 
ATOM     23  C   UNL     1       2.199  -3.960  -4.767  0.00  0.00    +0.015 C 
ATOM     24  C   UNL     1       2.089  -4.662  -2.372  0.00  0.00    +0.015 C 
ATOM     25  C   UNL     1      -0.012  -4.434  -3.705  0.00  0.00    +0.015 C 
ENDBRANCH  16  22
BRANCH  17  26
ATOM     26  O   UNL     1       0.013  -3.052  -1.143  0.00  0.00    -0.506 OA
ATOM     27  H   UNL     1      -0.898  -3.256  -1.394  0.00  0.00    +0.292 HD
ENDBRANCH  17  26
ENDBRANCH   1  14
BRANCH   1  28
ATOM     28  C   UNL     1       1.595   1.203  -5.511  0.00  0.00    -0.026 A 
ATOM     29  C   UNL     1       1.637   0.291  -6.550  0.00  0.00    +0.007 A 
ATOM     30  C   UNL     1       0.884   0.503  -7.688  0.00  0.00    +0.023 A 
ATOM     31  C   UNL     1       0.084   1.634  -7.788  0.00  0.00    +0.029 A 
ATOM     32  C   UNL     1       0.044   2.548  -6.743  0.00  0.00    +0.023 A 
ATOM     33  C   UNL     1       0.795   2.327  -5.605  0.00  0.00    +0.007 A 
BRANCH  31  34
ATOM     34  N   UNL     1      -0.679   1.852  -8.938  0.00  0.00    -0.336 N 
ATOM     35  C   UNL     1      -0.635   0.888 -10.040  0.00  0.00    +0.129 C 
ATOM     36  C   UNL     1      -1.522   3.045  -9.042  0.00  0.00    +0.129 C 
ENDBRANCH  31  34
ENDBRANCH   1  28
TORSDOF 7
