REMARK  Name = ZINC10121085
REMARK  9 active torsions:
REMARK  status: ('A' for Active; 'I' for Inactive)
REMARK    1  A    between atoms: C_1  and  C_2
REMARK    2  A    between atoms: C_4  and  C_30
REMARK    3  A    between atoms: C_6  and  N_8
REMARK    4  A    between atoms: N_8  and  S_9
REMARK    5  A    between atoms: S_9  and  C_12
REMARK    6  A    between atoms: C_15  and  N_18
REMARK    7  A    between atoms: N_18  and  C_19
REMARK    8  A    between atoms: C_24  and  C_28
REMARK    9  A    between atoms: C_24  and  C_29
REMARK                            x       y       z     vdW  Elec       q    Type
REMARK                         _______ _______ _______ _____ _____    ______ ____
ROOT
ATOM      1  C   UNL     1      -0.470   4.628   0.677  0.00  0.00    +0.109 A 
ATOM      2  C   UNL     1       0.843   4.670   1.111  0.00  0.00    +0.030 A 
ATOM      3  C   UNL     1       1.655   5.730   0.757  0.00  0.00    +0.025 A 
ATOM      4  C   UNL     1       1.149   6.759  -0.027  0.00  0.00    +0.031 A 
ATOM      5  C   UNL     1      -0.171   6.716  -0.456  0.00  0.00    +0.025 A 
ATOM      6  C   UNL     1      -0.977   5.652  -0.102  0.00  0.00    +0.030 A 
ENDROOT
BRANCH   1   7
ATOM      7  S   UNL     1      -1.501   3.271   1.126  0.00  0.00    +0.072 S 
ATOM      8  O   UNL     1      -2.842   3.720   0.993  0.00  0.00    -0.150 OA
ATOM      9  O   UNL     1      -0.987   2.757   2.346  0.00  0.00    -0.150 OA
BRANCH   7  10
ATOM     10  N   UNL     1      -1.280   2.092  -0.015  0.00  0.00    -0.216 N 
ATOM     11  H   UNL     1      -2.020   1.820  -0.581  0.00  0.00    +0.174 HD
BRANCH  10  17
ATOM     12  C   UNL     1       2.878   1.551  -2.578  0.00  0.00    +0.044 C 
ATOM     13  C   UNL     1       2.007   1.204  -1.398  0.00  0.00    -0.048 A 
ATOM     14  C   UNL     1       2.444   0.284  -0.463  0.00  0.00    +0.006 A 
ATOM     15  C   UNL     1       1.647  -0.036   0.621  0.00  0.00    -0.048 A 
ATOM     16  C   UNL     1       0.412   0.563   0.774  0.00  0.00    +0.028 A 
ATOM     17  C   UNL     1      -0.030   1.488  -0.164  0.00  0.00    +0.049 A 
ATOM     18  C   UNL     1       0.773   1.807  -1.252  0.00  0.00    +0.028 A 
ATOM     19  C   UNL     1       2.128  -1.040   1.638  0.00  0.00    +0.044 C 
ENDBRANCH  10  17
ENDBRANCH   7  10
ENDBRANCH   1   7
BRANCH   4  20
ATOM     20  N   UNL     1       1.967   7.835  -0.382  0.00  0.00    -0.320 N 
ATOM     21  H   UNL     1       1.613   8.554  -0.929  0.00  0.00    +0.152 HD
BRANCH  20  22
ATOM     22  C   UNL     1       3.250   7.875   0.036  0.00  0.00    +0.094 C 
ATOM     23  C   UNL     1       4.058   8.939  -0.316  0.00  0.00    +0.157 C 
ATOM     24  C   UNL     1       3.581  10.068  -1.155  0.00  0.00    +0.350 C 
ATOM     25  O   UNL     1       2.783   9.915  -2.059  0.00  0.00    -0.245 OA
ATOM     26  O   UNL     1       4.104  11.287  -0.833  0.00  0.00    -0.419 OA
ATOM     27  C   UNL     1       5.544  11.311  -0.624  0.00  0.00    +0.255 C 
ATOM     28  O   UNL     1       5.912  10.310   0.368  0.00  0.00    -0.419 OA
ATOM     29  C   UNL     1       5.477   9.045   0.110  0.00  0.00    +0.350 C 
ATOM     30  O   UNL     1       6.199   8.073   0.220  0.00  0.00    -0.245 OA
ATOM     31  C   UNL     1       5.965  12.696  -0.129  0.00  0.00    +0.104 C 
ATOM     32  C   UNL     1       6.255  11.005  -1.944  0.00  0.00    +0.104 C 
ENDBRANCH  20  22
ENDBRANCH   4  20
TORSDOF 5
