REMARK  Name = ZINC25679376
REMARK  10 active torsions:
REMARK  status: ('A' for Active; 'I' for Inactive)
REMARK    1  A    between atoms: C_1  and  C_2
REMARK    2  A    between atoms: C_2  and  C_26
REMARK    3  A    between atoms: N_5  and  N_9
REMARK    4  A    between atoms: C_10  and  C_12
REMARK    5  A    between atoms: C_12  and  N_13
REMARK    6  A    between atoms: N_13  and  C_14
REMARK    7  A    between atoms: N_13  and  C_15
REMARK    8  A    between atoms: C_15  and  C_16
REMARK    9  A    between atoms: C_29  and  O_32
REMARK   10  A    between atoms: O_32  and  C_33
REMARK                            x       y       z     vdW  Elec       q    Type
REMARK                         _______ _______ _______ _____ _____    ______ ____
ROOT
ATOM      1  N   UNL     1       8.366   5.309   3.095  0.00  0.00    -0.225 N 
ATOM      2  C   UNL     1       7.130   4.849   2.818  0.00  0.00    +0.213 C 
ATOM      3  O   UNL     1       6.420   4.442   3.713  0.00  0.00    -0.276 OA
ATOM      4  H   UNL     1       9.010   5.678   2.283  0.00  0.00    +0.173 HD
ENDROOT
BRANCH   1   9
ATOM      5  C   UNL     1      11.382   5.234   6.617  0.00  0.00    +0.047 C 
ATOM      6  C   UNL     1       9.928   4.832   6.360  0.00  0.00    +0.137 C 
ATOM      7  C   UNL     1       9.731   4.444   4.908  0.00  0.00    +0.267 C 
ATOM      8  O   UNL     1      10.271   3.536   4.313  0.00  0.00    -0.271 OA
ATOM      9  N   UNL     1       8.831   5.317   4.417  0.00  0.00    -0.137 N 
ATOM     10  C   UNL     1       8.439   6.198   5.345  0.00  0.00    +0.327 C 
ATOM     11  O   UNL     1       7.636   7.086   5.138  0.00  0.00    -0.251 OA
ATOM     12  N   UNL     1       9.032   5.988   6.535  0.00  0.00    -0.280 N 
ATOM     13  H   UNL     1       8.962   6.487   7.512  0.00  0.00    +0.152 HD
BRANCH   6  14
ATOM     14  C   UNL     1       9.521   3.703   7.271  0.00  0.00    -0.015 A 
ATOM     15  C   UNL     1       9.637   2.393   6.842  0.00  0.00    +0.010 A 
ATOM     16  C   UNL     1       9.269   1.356   7.677  0.00  0.00    +0.046 A 
ATOM     17  C   UNL     1       8.771   1.629   8.943  0.00  0.00    +0.120 A 
ATOM     18  C   UNL     1       8.650   2.944   9.369  0.00  0.00    +0.046 A 
ATOM     19  C   UNL     1       9.025   3.978   8.532  0.00  0.00    +0.010 A 
BRANCH  17  20
ATOM     20  O   UNL     1       8.403   0.611   9.764  0.00  0.00    -0.495 OA
ATOM     21  C   UNL     1       8.555  -0.717   9.259  0.00  0.00    +0.277 C 
ENDBRANCH  17  20
ENDBRANCH   6  14
ENDBRANCH   1   9
BRANCH   2  22
ATOM     22  C   UNL     1       6.630   4.839   1.396  0.00  0.00    +0.020 C 
BRANCH  22  23
ATOM     23  N   UNL     1       5.266   4.295   1.360  0.00  0.00    +0.386 N 
ATOM     24  C   UNL     1       4.326   5.184   2.055  0.00  0.00    -0.095 C 
ATOM     25  H   UNL     1       5.273   3.330   1.889  0.00  0.00    -0.081 HD
BRANCH  23  26
ATOM     26  C   UNL     1       4.834   4.049  -0.022  0.00  0.00    -0.043 C 
BRANCH  26  27
ATOM     27  C   UNL     1       3.544   3.271  -0.014  0.00  0.00    -0.063 A 
ATOM     28  C   UNL     1       3.583   1.877  -0.021  0.00  0.00    +0.002 A 
ATOM     29  C   UNL     1       2.436   1.144  -0.014  0.00  0.00    +0.009 A 
ATOM     30  C   UNL     1       1.193   1.799   0.000  0.00  0.00    -0.018 A 
ATOM     31  C   UNL     1      -0.013   1.076   0.008  0.00  0.00    +0.008 A 
ATOM     32  C   UNL     1      -1.198   1.744   0.017  0.00  0.00    +0.001 A 
ATOM     33  C   UNL     1      -1.237   3.137   0.031  0.00  0.00    +0.001 A 
ATOM     34  C   UNL     1      -0.090   3.870   0.023  0.00  0.00    +0.008 A 
ATOM     35  C   UNL     1       1.153   3.215   0.008  0.00  0.00    -0.018 A 
ATOM     36  C   UNL     1       2.358   3.938   0.000  0.00  0.00    +0.010 A 
ENDBRANCH  26  27
ENDBRANCH  23  26
ENDBRANCH  22  23
ENDBRANCH   2  22
TORSDOF 7
