REMARK  Name = ZINC13025015
REMARK  16 active torsions:
REMARK  status: ('A' for Active; 'I' for Inactive)
REMARK    1  A    between atoms: C_1  and  C_2
REMARK    2  A    between atoms: C_2  and  C_3
REMARK    3  A    between atoms: C_2  and  C_4
REMARK    4  A    between atoms: C_4  and  C_6
REMARK    5  A    between atoms: C_4  and  N_8
REMARK    6  A    between atoms: C_18  and  S_19
REMARK    7  A    between atoms: S_19  and  C_20
REMARK    8  A    between atoms: C_20  and  C_21
REMARK    9  A    between atoms: N_23  and  C_24
REMARK   10  A    between atoms: N_23  and  C_28
REMARK   11  A    between atoms: C_24  and  C_25
REMARK   12  A    between atoms: C_25  and  O_26
REMARK   13  A    between atoms: O_26  and  C_27
REMARK   14  A    between atoms: C_28  and  C_29
REMARK   15  A    between atoms: C_29  and  O_30
REMARK   16  A    between atoms: O_30  and  C_31
REMARK                            x       y       z     vdW  Elec       q    Type
REMARK                         _______ _______ _______ _____ _____    ______ ____
ROOT
ATOM      1  N   UNL     1       0.435  -2.539  -0.318  0.00  0.00    -0.273 N 
ATOM      2  C   UNL     1       1.718  -2.176  -0.551  0.00  0.00    +0.263 A 
ATOM      3  O   UNL     1       2.603  -3.006  -0.638  0.00  0.00    -0.267 OA
ATOM      4  C   UNL     1       2.001  -0.741  -0.696  0.00  0.00    +0.065 A 
ATOM      5  C   UNL     1       3.289  -0.266  -0.938  0.00  0.00    +0.015 A 
ATOM      6  C   UNL     1       3.498   1.080  -1.063  0.00  0.00    +0.001 A 
ATOM      7  C   UNL     1       2.442   1.976  -0.953  0.00  0.00    +0.002 A 
ATOM      8  C   UNL     1       1.169   1.537  -0.716  0.00  0.00    +0.028 A 
ATOM      9  C   UNL     1       0.923   0.167  -0.583  0.00  0.00    +0.079 A 
ATOM     10  N   UNL     1      -0.316  -0.309  -0.349  0.00  0.00    -0.223 NA
ATOM     11  C   UNL     1      -0.546  -1.593  -0.224  0.00  0.00    +0.173 A 
ENDROOT
BRANCH   1  12
ATOM     12  C   UNL     1       0.096  -3.956  -0.166  0.00  0.00    +0.208 C 
BRANCH  12  14
ATOM     13  C   UNL     1       2.262  -4.549   0.930  0.00  0.00    +0.010 C 
ATOM     14  C   UNL     1       1.367  -4.800  -0.286  0.00  0.00    +0.017 C 
ATOM     15  C   UNL     1       0.992  -6.282  -0.346  0.00  0.00    +0.010 C 
ENDBRANCH  12  14
BRANCH  12  16
ATOM     16  C   UNL     1      -0.530  -4.181   1.186  0.00  0.00    +0.379 C 
ATOM     17  O   UNL     1      -0.679  -3.252   1.944  0.00  0.00    -0.244 OA
ATOM     18  O   UNL     1      -0.924  -5.412   1.547  0.00  0.00    -0.244 OA
ENDBRANCH  12  16
ENDBRANCH   1  12
BRANCH  11  19
ATOM     19  S   UNL     1      -2.198  -2.125   0.081  0.00  0.00    -0.078 S 
BRANCH  19  20
ATOM     20  C   UNL     1      -3.043  -0.524   0.108  0.00  0.00    +0.173 C 
BRANCH  20  21
ATOM     21  C   UNL     1      -4.513  -0.737   0.361  0.00  0.00    +0.226 C 
ATOM     22  O   UNL     1      -4.947  -1.859   0.508  0.00  0.00    -0.275 OA
ATOM     23  N   UNL     1      -5.346   0.321   0.424  0.00  0.00    -0.296 N 
BRANCH  23  24
ATOM     24  C   UNL     1      -4.822   1.678   0.246  0.00  0.00    +0.136 C 
BRANCH  24  25
ATOM     25  C   UNL     1      -4.870   2.053  -1.237  0.00  0.00    +0.178 C 
BRANCH  25  26
ATOM     26  O   UNL     1      -6.230   2.114  -1.669  0.00  0.00    -0.381 OA
ATOM     27  C   UNL     1      -6.388   2.458  -3.047  0.00  0.00    +0.194 C 
ENDBRANCH  25  26
ENDBRANCH  24  25
ENDBRANCH  23  24
BRANCH  23  28
ATOM     28  C   UNL     1      -6.775   0.115   0.670  0.00  0.00    +0.136 C 
BRANCH  28  29
ATOM     29  C   UNL     1      -7.043   0.140   2.176  0.00  0.00    +0.178 C 
BRANCH  29  30
ATOM     30  O   UNL     1      -6.755   1.443   2.689  0.00  0.00    -0.381 OA
ATOM     31  C   UNL     1      -6.973   1.575   4.095  0.00  0.00    +0.194 C 
ENDBRANCH  29  30
ENDBRANCH  28  29
ENDBRANCH  23  28
ENDBRANCH  20  21
ENDBRANCH  19  20
ENDBRANCH  11  19
TORSDOF 12
