REMARK  Name = ZINC33040629
REMARK  6 active torsions:
REMARK  status: ('A' for Active; 'I' for Inactive)
REMARK    1  A    between atoms: C_1  and  N_2
REMARK    2  A    between atoms: N_2  and  C_3
REMARK    3  A    between atoms: N_2  and  C_4
REMARK    4  A    between atoms: C_7  and  C_10
REMARK    5  A    between atoms: N_30  and  C_31
REMARK    6  A    between atoms: C_31  and  C_32
REMARK                            x       y       z     vdW  Elec       q    Type
REMARK                         _______ _______ _______ _____ _____    ______ ____
ROOT
ATOM      1  C   UNL     1       1.126   7.287   3.240  0.00  0.00    +0.155 C 
ATOM      2  C   UNL     1       1.922   7.174   4.506  0.00  0.00    +0.049 A 
ATOM      3  C   UNL     1       3.117   7.701   4.811  0.00  0.00    +0.025 A 
ATOM      4  C   UNL     1       3.407   7.347   6.147  0.00  0.00    +0.020 A 
ATOM      5  C   UNL     1       2.377   6.598   6.603  0.00  0.00    +0.092 A 
ATOM      6  N   UNL     1       1.481   6.462   5.597  0.00  0.00    -0.312 N 
ATOM      7  C   UNL     1       0.305   5.728   5.507  0.00  0.00    +0.090 A 
ATOM      8  C   UNL     1      -0.022   4.940   4.448  0.00  0.00    +0.005 A 
ATOM      9  C   UNL     1      -1.270   4.287   4.502  0.00  0.00    -0.030 A 
ATOM     10  C   UNL     1      -2.031   4.470   5.613  0.00  0.00    -0.005 A 
ATOM     11  S   UNL     1      -1.059   5.566   6.618  0.00  0.00    -0.075 S 
ATOM     12  C   UNL     1      -3.373   3.884   5.908  0.00  0.00    +0.043 C 
ATOM     13  C   UNL     1      -3.953   3.326   4.599  0.00  0.00    +0.005 C 
ATOM     14  C   UNL     1      -2.876   2.490   3.901  0.00  0.00    +0.005 C 
ATOM     15  C   UNL     1      -1.771   3.401   3.365  0.00  0.00    +0.036 C 
ATOM     16  C   UNL     1       0.938   4.777   3.296  0.00  0.00    +0.148 C 
ATOM     17  N   UNL     1       1.089   6.005   2.496  0.00  0.00    -0.269 N 
ATOM     18  C   UNL     1       1.183   5.966   1.152  0.00  0.00    +0.304 C 
ATOM     19  O   UNL     1       1.302   6.999   0.520  0.00  0.00    -0.253 OA
ATOM     20  N   UNL     1       1.146   4.783   0.508  0.00  0.00    -0.295 N 
ATOM     21  H   UNL     1       1.039   3.849   1.079  0.00  0.00    +0.151 HD
ENDROOT
BRANCH   1  25
ATOM     22  C   UNL     1      -2.871   8.449   4.210  0.00  0.00    +0.029 A 
ATOM     23  C   UNL     1      -1.802   8.962   4.934  0.00  0.00    +0.023 A 
ATOM     24  C   UNL     1      -0.512   8.585   4.618  0.00  0.00    +0.007 A 
ATOM     25  C   UNL     1      -0.283   7.697   3.582  0.00  0.00    -0.021 A 
ATOM     26  C   UNL     1      -1.345   7.189   2.856  0.00  0.00    +0.007 A 
ATOM     27  C   UNL     1      -2.638   7.558   3.170  0.00  0.00    +0.023 A 
BRANCH  22  29
ATOM     28  C   UNL     1      -4.421   9.769   5.624  0.00  0.00    +0.129 C 
ATOM     29  N   UNL     1      -4.178   8.829   4.527  0.00  0.00    -0.336 N 
ATOM     30  C   UNL     1      -5.304   8.287   3.763  0.00  0.00    +0.129 C 
ENDBRANCH  22  29
ENDBRANCH   1  25
BRANCH  20  31
ATOM     31  C   UNL     1       1.249   4.740  -0.953  0.00  0.00    +0.141 C 
BRANCH  31  32
ATOM     32  C   UNL     1       1.182   3.309  -1.420  0.00  0.00    -0.030 A 
ATOM     33  C   UNL     1      -0.041   2.737  -1.720  0.00  0.00    +0.008 A 
ATOM     34  C   UNL     1      -0.104   1.425  -2.148  0.00  0.00    +0.038 A 
ATOM     35  C   UNL     1       1.058   0.683  -2.276  0.00  0.00    +0.123 A 
ATOM     36  C   UNL     1       2.281   1.256  -1.976  0.00  0.00    +0.038 A 
ATOM     37  C   UNL     1       2.342   2.569  -1.548  0.00  0.00    +0.008 A 
ATOM     38  F   UNL     1       0.997  -0.601  -2.695  0.00  0.00    -0.205 F 
ENDBRANCH  31  32
ENDBRANCH  20  31
TORSDOF 4
