REMARK  Name = ZINC09881635
REMARK  8 active torsions:
REMARK  status: ('A' for Active; 'I' for Inactive)
REMARK    1  A    between atoms: C_1  and  C_2
REMARK    2  A    between atoms: C_2  and  C_4
REMARK    3  A    between atoms: C_2  and  S_18
REMARK    4  A    between atoms: N_6  and  C_7
REMARK    5  A    between atoms: S_18  and  C_19
REMARK    6  A    between atoms: C_22  and  C_31
REMARK    7  A    between atoms: N_23  and  C_24
REMARK    8  A    between atoms: C_31  and  N_67
REMARK                            x       y       z     vdW  Elec       q    Type
REMARK                         _______ _______ _______ _____ _____    ______ ____
ROOT
ATOM      1  C   UNL     1       2.648   3.742   1.077  0.00  0.00    +0.197 A 
ATOM      2  N   UNL     1       3.757   4.399   0.832  0.00  0.00    -0.122 NA
ATOM      3  N   UNL     1       3.741   4.854  -0.370  0.00  0.00    -0.135 NA
ATOM      4  C   UNL     1       2.633   4.513  -0.964  0.00  0.00    +0.122 A 
ATOM      5  N   UNL     1       1.896   3.788  -0.065  0.00  0.00    -0.276 N 
ENDROOT
BRANCH   5   6
ATOM      6  C   UNL     1       0.630   3.217  -0.271  0.00  0.00    +0.050 A 
ATOM      7  C   UNL     1       0.482   1.837  -0.265  0.00  0.00    +0.029 A 
ATOM      8  C   UNL     1      -0.764   1.276  -0.468  0.00  0.00    +0.040 A 
ATOM      9  C   UNL     1      -1.864   2.091  -0.683  0.00  0.00    +0.124 A 
ATOM     10  C   UNL     1      -1.718   3.468  -0.683  0.00  0.00    +0.040 A 
ATOM     11  C   UNL     1      -0.474   4.031  -0.480  0.00  0.00    +0.029 A 
ATOM     12  F   UNL     1      -3.081   1.541  -0.887  0.00  0.00    -0.205 F 
ENDBRANCH   5   6
BRANCH   1  13
ATOM     13  S   UNL     1       2.211   2.947   2.587  0.00  0.00    -0.073 S 
BRANCH  13  15
ATOM     14  C   UNL     1       4.898   2.632   2.967  0.00  0.00    +0.029 C 
ATOM     15  C   UNL     1       3.679   3.326   3.577  0.00  0.00    +0.137 C 
BRANCH  15  16
ATOM     16  C   UNL     1       3.474   2.835   4.987  0.00  0.00    +0.227 C 
ATOM     17  O   UNL     1       2.704   1.925   5.206  0.00  0.00    -0.275 OA
ATOM     18  N   UNL     1       4.148   3.408   6.004  0.00  0.00    -0.308 N 
ATOM     19  H   UNL     1       4.764   4.136   5.829  0.00  0.00    +0.149 HD
BRANCH  18  20
ATOM     20  C   UNL     1       3.949   2.931   7.375  0.00  0.00    +0.103 C 
ATOM     21  C   UNL     1       5.201   3.228   8.198  0.00  0.00    +0.027 C 
ATOM     22  C   UNL     1       4.896   2.922   9.669  0.00  0.00    +0.007 C 
ATOM     23  C   UNL     1       3.915   3.972  10.187  0.00  0.00    +0.035 C 
ATOM     24  C   UNL     1       2.730   4.089   9.264  0.00  0.00    -0.042 A 
ATOM     25  C   UNL     1       2.748   3.617   7.971  0.00  0.00    -0.024 A 
ATOM     26  C   UNL     1       1.625   3.769   7.167  0.00  0.00    +0.006 A 
ATOM     27  C   UNL     1       0.492   4.386   7.656  0.00  0.00    +0.000 A 
ATOM     28  C   UNL     1       0.472   4.855   8.956  0.00  0.00    +0.000 A 
ATOM     29  C   UNL     1       1.586   4.705   9.755  0.00  0.00    +0.004 A 
ENDBRANCH  18  20
ENDBRANCH  15  16
ENDBRANCH  13  15
ENDBRANCH   1  13
BRANCH   4  30
ATOM     30  C   UNL     1       2.235   4.852  -2.377  0.00  0.00    -0.001 C 
BRANCH  30  36
ATOM     31  C   UNL     1       4.051   3.667  -3.454  0.00  0.00    -0.078 C 
ATOM     32  C   UNL     1       4.401   2.417  -4.264  0.00  0.00    -0.019 C 
ATOM     33  C   UNL     1       3.697   2.482  -5.622  0.00  0.00    -0.004 C 
ATOM     34  C   UNL     1       2.187   2.607  -5.400  0.00  0.00    -0.019 C 
ATOM     35  C   UNL     1       1.902   3.852  -4.557  0.00  0.00    -0.078 C 
ATOM     36  N   UNL     1       2.588   3.716  -3.254  0.00  0.00    +0.384 N 
ATOM     37  H   UNL     1       2.283   2.843  -2.807  0.00  0.00    -0.081 HD
ENDBRANCH  30  36
ENDBRANCH   4  30
TORSDOF 7
