REMARK  Name = ZINC43095164
REMARK  9 active torsions:
REMARK  status: ('A' for Active; 'I' for Inactive)
REMARK    1  A    between atoms: C_1  and  C_2
REMARK    2  A    between atoms: C_2  and  C_3
REMARK    3  A    between atoms: C_3  and  C_5
REMARK    4  A    between atoms: C_3  and  N_22
REMARK    5  A    between atoms: C_5  and  C_7
REMARK    6  A    between atoms: C_5  and  O_14
REMARK    7  A    between atoms: O_14  and  C_15
REMARK    8  A    between atoms: C_15  and  C_16
REMARK    9  A    between atoms: C_16  and  C_17
REMARK                            x       y       z     vdW  Elec       q    Type
REMARK                         _______ _______ _______ _____ _____    ______ ____
ROOT
ATOM      1  C   UNL     1       0.603  -2.039  -1.427  0.00  0.00    +0.135 C 
ENDROOT
BRANCH   1   2
ATOM      2  C   UNL     1      -0.873  -2.320  -1.310  0.00  0.00    -0.007 A 
ATOM      3  C   UNL     1      -1.659  -2.374  -2.446  0.00  0.00    +0.007 A 
ATOM      4  C   UNL     1      -3.013  -2.631  -2.338  0.00  0.00    +0.000 A 
ATOM      5  C   UNL     1      -3.582  -2.835  -1.095  0.00  0.00    +0.001 A 
ATOM      6  C   UNL     1      -2.797  -2.781   0.042  0.00  0.00    +0.015 A 
ATOM      7  C   UNL     1      -1.441  -2.528  -0.066  0.00  0.00    +0.023 A 
ATOM      8 BR   UNL     1      -0.366  -2.461   1.488  0.00  0.00    -0.050 Br
ENDBRANCH   1   2
BRANCH   1   9
ATOM      9  C   UNL     1       0.856  -0.544  -1.223  0.00  0.00    -0.041 C 
BRANCH   9  10
ATOM     10  N   UNL     1       2.287  -0.262  -1.396  0.00  0.00    +0.382 N 
ATOM     11  H   UNL     1       2.819  -0.800  -0.729  0.00  0.00    -0.090 HD
ATOM     12  H   UNL     1       2.569  -0.513  -2.332  0.00  0.00    -0.090 HD
ATOM     13  H   UNL     1       2.456   0.721  -1.246  0.00  0.00    -0.090 HD
ENDBRANCH   9  10
BRANCH   9  15
ATOM     14  C   UNL     1       0.559   1.374   0.350  0.00  0.00    +0.002 C 
ATOM     15  C   UNL     1       0.423  -0.141   0.188  0.00  0.00    -0.017 C 
ENDBRANCH   9  15
ENDBRANCH   1   9
BRANCH   1  16
ATOM     16  O   UNL     1       1.060  -2.428  -2.724  0.00  0.00    -0.367 OA
BRANCH  16  17
ATOM     17  C   UNL     1       1.521  -3.778  -2.797  0.00  0.00    +0.242 C 
BRANCH  17  18
ATOM     18  C   UNL     1       1.882  -4.116  -4.245  0.00  0.00    +0.330 C 
ATOM     19  F   UNL     1       2.333  -5.438  -4.318  0.00  0.00    -0.197 F 
ATOM     20  F   UNL     1       0.751  -3.964  -5.055  0.00  0.00    -0.197 F 
BRANCH  18  21
ATOM     21  C   UNL     1       2.985  -3.173  -4.729  0.00  0.00    +0.412 C 
ATOM     22  F   UNL     1       4.116  -3.324  -3.920  0.00  0.00    -0.203 F 
ATOM     23  F   UNL     1       3.315  -3.481  -6.053  0.00  0.00    -0.203 F 
ENDBRANCH  18  21
ENDBRANCH  17  18
ENDBRANCH  16  17
ENDBRANCH   1  16
TORSDOF 8
