REMARK  Name = ZINC04325733
REMARK  10 active torsions:
REMARK  status: ('A' for Active; 'I' for Inactive)
REMARK    1  A    between atoms: C_1  and  C_2
REMARK    2  A    between atoms: C_2  and  C_3
REMARK    3  A    between atoms: C_3  and  O_4
REMARK    4  A    between atoms: O_4  and  C_5
REMARK    5  A    between atoms: C_8  and  N_11
REMARK    6  A    between atoms: C_16  and  C_30
REMARK    7  A    between atoms: N_18  and  C_24
REMARK    8  A    between atoms: C_33  and  O_38
REMARK    9  A    between atoms: C_34  and  O_36
REMARK   10  A    between atoms: O_36  and  C_37
REMARK                            x       y       z     vdW  Elec       q    Type
REMARK                         _______ _______ _______ _____ _____    ______ ____
ROOT
ATOM      1  N   UNL     1       3.299  -4.440   5.465  0.00  0.00    -0.208 N 
ATOM      2  C   UNL     1       3.311  -5.769   5.619  0.00  0.00    +0.235 C 
ATOM      3  O   UNL     1       2.774  -6.565   4.879  0.00  0.00    -0.274 OA
ATOM      4  C   UNL     1       4.097  -6.124   6.860  0.00  0.00    +0.145 C 
ATOM      5  C   UNL     1       3.137  -6.696   7.928  0.00  0.00    +0.157 C 
ATOM      6  N   UNL     1       3.515  -5.938   9.146  0.00  0.00    -0.244 N 
ATOM      7  O   UNL     1       3.777  -4.614   8.678  0.00  0.00    -0.257 OA
ATOM      8  C   UNL     1       4.517  -4.741   7.428  0.00  0.00    +0.249 C 
ATOM      9  C   UNL     1       3.957  -3.766   6.415  0.00  0.00    +0.259 C 
ATOM     10  O   UNL     1       4.083  -2.561   6.459  0.00  0.00    -0.272 OA
ENDROOT
BRANCH   1  14
ATOM     11  C   UNL     1       1.384  -2.555   2.274  0.00  0.00    +0.121 A 
ATOM     12  C   UNL     1       2.496  -3.351   2.042  0.00  0.00    +0.047 A 
ATOM     13  C   UNL     1       3.131  -3.975   3.098  0.00  0.00    +0.027 A 
ATOM     14  C   UNL     1       2.655  -3.806   4.392  0.00  0.00    +0.044 A 
ATOM     15  C   UNL     1       1.542  -3.009   4.623  0.00  0.00    +0.027 A 
ATOM     16  C   UNL     1       0.912  -2.381   3.567  0.00  0.00    +0.047 A 
BRANCH  11  17
ATOM     17  O   UNL     1       0.760  -1.940   1.234  0.00  0.00    -0.492 OA
BRANCH  17  18
ATOM     18  C   UNL     1       1.300  -2.164  -0.070  0.00  0.00    +0.229 C 
BRANCH  18  20
ATOM     19  C   UNL     1       1.050  -1.636  -2.499  0.00  0.00    +0.007 C 
ATOM     20  C   UNL     1       0.472  -1.397  -1.103  0.00  0.00    +0.038 C 
ENDBRANCH  18  20
ENDBRANCH  17  18
ENDBRANCH  11  17
ENDBRANCH   1  14
BRANCH   6  21
ATOM     21  C   UNL     1       3.596  -6.412  10.457  0.00  0.00    +0.065 A 
ATOM     22  C   UNL     1       3.309  -7.742  10.735  0.00  0.00    +0.028 A 
ATOM     23  C   UNL     1       3.391  -8.208  12.033  0.00  0.00    +0.002 A 
ATOM     24  C   UNL     1       3.757  -7.351  13.055  0.00  0.00    +0.000 A 
ATOM     25  C   UNL     1       4.043  -6.026  12.781  0.00  0.00    +0.002 A 
ATOM     26  C   UNL     1       3.969  -5.556  11.485  0.00  0.00    +0.028 A 
ENDBRANCH   6  21
BRANCH   5  27
ATOM     27  C   UNL     1       1.702  -6.431   7.554  0.00  0.00    -0.018 A 
ATOM     28  C   UNL     1       1.146  -5.187   7.786  0.00  0.00    +0.009 A 
ATOM     29  C   UNL     1      -0.170  -4.940   7.444  0.00  0.00    +0.049 A 
ATOM     30  C   UNL     1      -0.936  -5.940   6.866  0.00  0.00    +0.158 A 
ATOM     31  C   UNL     1      -0.377  -7.192   6.632  0.00  0.00    +0.162 A 
ATOM     32  C   UNL     1       0.945  -7.432   6.973  0.00  0.00    +0.055 A 
BRANCH  31  33
ATOM     33  O   UNL     1      -1.124  -8.178   6.066  0.00  0.00    -0.491 OA
ATOM     34  C   UNL     1      -0.484  -9.438   5.856  0.00  0.00    +0.277 C 
ENDBRANCH  31  33
BRANCH  30  35
ATOM     35  O   UNL     1      -2.231  -5.698   6.530  0.00  0.00    -0.503 OA
ATOM     36  H   UNL     1      -2.348  -5.363   5.630  0.00  0.00    +0.292 HD
ENDBRANCH  30  35
ENDBRANCH   5  27
TORSDOF 8
