REMARK  Name = ZINC00870759
REMARK  10 active torsions:
REMARK  status: ('A' for Active; 'I' for Inactive)
REMARK    1  A    between atoms: C_1  and  C_2
REMARK    2  A    between atoms: C_3  and  C_30
REMARK    3  A    between atoms: C_4  and  C_25
REMARK    4  A    between atoms: C_10  and  C_15
REMARK    5  A    between atoms: C_18  and  O_23
REMARK    6  A    between atoms: C_19  and  O_21
REMARK    7  A    between atoms: O_21  and  C_22
REMARK    8  A    between atoms: O_23  and  C_24
REMARK    9  A    between atoms: C_30  and  O_32
REMARK   10  A    between atoms: O_32  and  C_33
REMARK                            x       y       z     vdW  Elec       q    Type
REMARK                         _______ _______ _______ _____ _____    ______ ____
ROOT
ATOM      1  C   UNL     1       1.321  -2.184  -0.418  0.00  0.00    +0.061 C 
ATOM      2  C   UNL     1       1.216  -0.681  -0.386  0.00  0.00    +0.016 C 
ATOM      3  C   UNL     1       0.055  -0.101  -0.037  0.00  0.00    +0.066 C 
ATOM      4  C   UNL     1      -0.089   1.393  -0.000  0.00  0.00    +0.099 C 
ATOM      5  C   UNL     1       1.260   2.065   0.033  0.00  0.00    +0.024 C 
ATOM      6  C   UNL     1       2.374   1.394  -0.326  0.00  0.00    +0.016 C 
ATOM      7  N   UNL     1       2.301   0.082  -0.713  0.00  0.00    -0.321 N 
ATOM      8  C   UNL     1       3.725   2.066  -0.313  0.00  0.00    +0.059 C 
ATOM      9  C   UNL     1       3.758   3.133   0.782  0.00  0.00    +0.032 C 
ATOM     10  C   UNL     1       2.635   4.141   0.514  0.00  0.00    +0.088 C 
ATOM     11  C   UNL     1       1.324   3.407   0.447  0.00  0.00    +0.162 C 
ATOM     12  O   UNL     1       0.301   3.985   0.757  0.00  0.00    -0.292 OA
ATOM     13  H   UNL     1       3.127  -0.355  -1.292  0.00  0.00    +0.152 HD
ENDROOT
BRANCH   9  14
ATOM     14  C   UNL     1       5.089   3.840   0.761  0.00  0.00    -0.040 A 
ATOM     15  C   UNL     1       5.501   4.500  -0.382  0.00  0.00    +0.008 A 
ATOM     16  C   UNL     1       6.721   5.150  -0.406  0.00  0.00    +0.049 A 
ATOM     17  C   UNL     1       7.533   5.140   0.716  0.00  0.00    +0.161 A 
ATOM     18  C   UNL     1       7.119   4.475   1.866  0.00  0.00    +0.162 A 
ATOM     19  C   UNL     1       5.892   3.831   1.886  0.00  0.00    +0.053 A 
BRANCH  18  20
ATOM     20  O   UNL     1       7.913   4.462   2.970  0.00  0.00    -0.491 OA
ATOM     21  C   UNL     1       7.423   3.760   4.114  0.00  0.00    +0.277 C 
ENDBRANCH  18  20
BRANCH  17  22
ATOM     22  O   UNL     1       8.734   5.779   0.694  0.00  0.00    -0.491 OA
ATOM     23  C   UNL     1       9.095   6.440  -0.521  0.00  0.00    +0.277 C 
ENDBRANCH  17  22
ENDBRANCH   9  14
BRANCH   4  24
ATOM     24  C   UNL     1      -0.840   1.847  -1.225  0.00  0.00    +0.002 A 
ATOM     25  C   UNL     1      -2.015   2.518  -1.307  0.00  0.00    +0.012 A 
ATOM     26  C   UNL     1      -2.521   2.835  -2.553  0.00  0.00    +0.008 A 
ATOM     27  C   UNL     1      -1.827   2.467  -3.658  0.00  0.00    +0.045 A 
ATOM     28  S   UNL     1      -0.407   1.651  -2.946  0.00  0.00    -0.101 S 
ENDBRANCH   4  24
BRANCH   3  29
ATOM     29  C   UNL     1      -1.052  -0.913   0.304  0.00  0.00    +0.338 C 
ATOM     30  O   UNL     1      -0.982  -2.121   0.177  0.00  0.00    -0.245 OA
BRANCH  29  31
ATOM     31  O   UNL     1      -2.186  -0.348   0.770  0.00  0.00    -0.458 OA
BRANCH  31  32
ATOM     32  C   UNL     1      -3.264  -1.228   1.094  0.00  0.00    +0.177 C 
ATOM     33  C   UNL     1      -4.146  -1.429  -0.140  0.00  0.00    +0.044 C 
ATOM     34  C   UNL     1      -5.301  -2.372   0.207  0.00  0.00    +0.004 C 
ATOM     35  C   UNL     1      -6.134  -1.764   1.337  0.00  0.00    +0.000 C 
ATOM     36  C   UNL     1      -5.251  -1.562   2.571  0.00  0.00    +0.004 C 
ATOM     37  C   UNL     1      -4.097  -0.620   2.224  0.00  0.00    +0.044 C 
ENDBRANCH  31  32
ENDBRANCH  29  31
ENDBRANCH   3  29
TORSDOF 7
