REMARK  Name = ZINC01784646
REMARK  6 active torsions:
REMARK  status: ('A' for Active; 'I' for Inactive)
REMARK    1  A    between atoms: C_1  and  C_2
REMARK    2  A    between atoms: C_5  and  C_8
REMARK    3  A    between atoms: N_15  and  C_18
REMARK    4  A    between atoms: C_18  and  C_19
REMARK    5  A    between atoms: N_21  and  N_22
REMARK    6  A    between atoms: C_23  and  C_24
REMARK                            x       y       z     vdW  Elec       q    Type
REMARK                         _______ _______ _______ _____ _____    ______ ____
ROOT
ATOM      1  C   UNL     1     -10.697   1.652   2.400  0.00  0.00    +0.004 A 
ATOM      2  C   UNL     1     -11.703   0.779   2.149  0.00  0.00    +0.056 A 
ATOM      3  S   UNL     1     -11.778   0.737   0.369  0.00  0.00    -0.076 S 
ATOM      4  C   UNL     1     -10.472   1.882   0.006  0.00  0.00    +0.116 A 
ATOM      5  C   UNL     1     -10.007   2.269   1.274  0.00  0.00    +0.080 A 
ATOM      6  C   UNL     1      -8.928   3.210   1.277  0.00  0.00    +0.263 A 
ATOM      7  O   UNL     1      -8.457   3.607   2.329  0.00  0.00    -0.267 OA
ATOM      8  N   UNL     1      -8.442   3.649   0.102  0.00  0.00    -0.290 N 
ATOM      9  C   UNL     1      -8.959   3.223  -1.079  0.00  0.00    +0.203 A 
ATOM     10  N   UNL     1      -9.939   2.361  -1.115  0.00  0.00    -0.230 NA
ENDROOT
BRANCH   1  15
ATOM     11  C   UNL     1      -9.180   2.902   7.812  0.00  0.00    +0.044 C 
ATOM     12  C   UNL     1      -9.577   2.575   6.396  0.00  0.00    -0.050 A 
ATOM     13  C   UNL     1     -10.907   2.640   6.021  0.00  0.00    +0.004 A 
ATOM     14  C   UNL     1     -11.276   2.341   4.725  0.00  0.00    +0.009 A 
ATOM     15  C   UNL     1     -10.306   1.974   3.793  0.00  0.00    -0.017 A 
ATOM     16  C   UNL     1      -8.968   1.905   4.178  0.00  0.00    +0.009 A 
ATOM     17  C   UNL     1      -8.610   2.212   5.475  0.00  0.00    +0.004 A 
ENDBRANCH   1  15
BRANCH   8  18
ATOM     18  C   UNL     1      -7.337   4.612   0.097  0.00  0.00    +0.223 C 
BRANCH  18  19
ATOM     19  C   UNL     1      -6.025   3.871   0.080  0.00  0.00    +0.252 C 
ATOM     20  O   UNL     1      -6.014   2.658   0.073  0.00  0.00    -0.272 OA
ATOM     21  N   UNL     1      -4.865   4.556   0.072  0.00  0.00    -0.206 N 
ATOM     22  H   UNL     1      -4.874   5.526   0.078  0.00  0.00    +0.177 HD
BRANCH  21  23
ATOM     23  N   UNL     1      -3.645   3.867   0.057  0.00  0.00    -0.188 NA
ATOM     24  C   UNL     1      -2.527   4.526   0.050  0.00  0.00    +0.138 C 
BRANCH  24  25
ATOM     25  C   UNL     1      -1.243   3.801   0.034  0.00  0.00    -0.004 A 
ATOM     26  C   UNL     1      -0.038   4.508   0.026  0.00  0.00    +0.011 A 
ATOM     27  C   UNL     1       1.159   3.825   0.011  0.00  0.00    +0.022 A 
ATOM     28  C   UNL     1       1.170   2.440   0.004  0.00  0.00    +0.059 A 
ATOM     29  C   UNL     1      -0.021   1.732   0.012  0.00  0.00    +0.060 A 
ATOM     30  C   UNL     1      -1.227   2.404   0.021  0.00  0.00    +0.031 A 
ATOM     31 CL   UNL     1       0.002  -0.004   0.002  0.00  0.00    -0.082 Cl
ATOM     32 CL   UNL     1       2.682   1.587  -0.016  0.00  0.00    -0.082 Cl
ENDBRANCH  24  25
ENDBRANCH  21  23
ENDBRANCH  18  19
ENDBRANCH   8  18
TORSDOF 5
