REMARK  Name = ZINC13757504
REMARK  9 active torsions:
REMARK  status: ('A' for Active; 'I' for Inactive)
REMARK    1  A    between atoms: C_1  and  C_2
REMARK    2  A    between atoms: C_7  and  C_14
REMARK    3  A    between atoms: C_14  and  N_15
REMARK    4  A    between atoms: N_15  and  C_16
REMARK    5  A    between atoms: C_21  and  C_22
REMARK    6  A    between atoms: C_23  and  C_25
REMARK    7  A    between atoms: C_25  and  C_26
REMARK    8  A    between atoms: C_25  and  C_27
REMARK    9  A    between atoms: C_25  and  C_28
REMARK                            x       y       z     vdW  Elec       q    Type
REMARK                         _______ _______ _______ _____ _____    ______ ____
ROOT
ATOM      1  C   UNL     1       0.445   3.827  -0.064  0.00  0.00    +0.154 C 
ENDROOT
BRANCH   1   8
ATOM      2  C   UNL     1       0.469   6.559  -7.558  0.00  0.00    +0.044 C 
ATOM      3  C   UNL     1       0.275   6.177  -6.112  0.00  0.00    -0.048 A 
ATOM      4  C   UNL     1      -0.778   6.724  -5.393  0.00  0.00    +0.004 A 
ATOM      5  C   UNL     1      -0.972   6.391  -4.082  0.00  0.00    +0.010 A 
ATOM      6  C   UNL     1      -0.100   5.492  -3.459  0.00  0.00    -0.001 A 
ATOM      7  C   UNL     1      -0.277   5.114  -2.056  0.00  0.00    +0.020 A 
ATOM      8  C   UNL     1       0.599   4.237  -1.506  0.00  0.00    +0.035 A 
ATOM      9  C   UNL     1       1.658   3.712  -2.276  0.00  0.00    +0.254 A 
ATOM     10  O   UNL     1       2.438   2.930  -1.761  0.00  0.00    -0.268 OA
ATOM     11  N   UNL     1       1.826   4.050  -3.567  0.00  0.00    -0.322 N 
ATOM     12  H   UNL     1       2.656   3.617  -4.145  0.00  0.00    +0.169 HD
ATOM     13  C   UNL     1       0.969   4.935  -4.186  0.00  0.00    +0.049 A 
ATOM     14  C   UNL     1       1.146   5.289  -5.519  0.00  0.00    +0.029 A 
ENDBRANCH   1   8
BRANCH   1  15
ATOM     15  N   UNL     1      -0.310   2.574   0.009  0.00  0.00    -0.266 N 
ATOM     16  C   UNL     1       0.342   1.397   0.090  0.00  0.00    +0.225 C 
ATOM     17  O   UNL     1       1.553   1.379   0.167  0.00  0.00    -0.275 OA
BRANCH  15  18
ATOM     18  C   UNL     1      -1.710   2.598  -0.005  0.00  0.00    +0.040 A 
ATOM     19  C   UNL     1      -2.416   2.710   1.186  0.00  0.00    +0.024 A 
ATOM     20  C   UNL     1      -3.796   2.738   1.169  0.00  0.00    +0.002 A 
ATOM     21  C   UNL     1      -4.476   2.646  -0.032  0.00  0.00    +0.000 A 
ATOM     22  C   UNL     1      -3.776   2.529  -1.219  0.00  0.00    +0.005 A 
ATOM     23  C   UNL     1      -2.395   2.505  -1.208  0.00  0.00    -0.029 A 
ATOM     24  C   UNL     1      -1.633   2.377  -2.502  0.00  0.00    +0.045 C 
ENDBRANCH  15  18
BRANCH  16  25
ATOM     25  C   UNL     1      -0.432   0.104   0.091  0.00  0.00    +0.039 C 
ATOM     26  C   UNL     1       0.529  -1.065   0.315  0.00  0.00    +0.020 C 
ATOM     27  C   UNL     1      -1.471   0.133   1.214  0.00  0.00    +0.020 C 
ATOM     28  C   UNL     1      -1.140  -0.067  -1.254  0.00  0.00    +0.020 C 
ENDBRANCH  16  25
ENDBRANCH   1  15
TORSDOF 4
