REMARK  Name = ZINC34890273
REMARK  9 active torsions:
REMARK  status: ('A' for Active; 'I' for Inactive)
REMARK    1  A    between atoms: C_1  and  C_2
REMARK    2  A    between atoms: C_2  and  C_3
REMARK    3  A    between atoms: C_2  and  C_4
REMARK    4  A    between atoms: C_4  and  C_6
REMARK    5  A    between atoms: C_4  and  N_16
REMARK    6  A    between atoms: N_16  and  C_17
REMARK    7  A    between atoms: C_17  and  C_18
REMARK    8  A    between atoms: C_20  and  O_21
REMARK    9  A    between atoms: C_30  and  C_32
REMARK                            x       y       z     vdW  Elec       q    Type
REMARK                         _______ _______ _______ _____ _____    ______ ____
ROOT
ATOM      1  C   UNL     1      -0.675  -2.558   1.895  0.00  0.00    -0.045 C 
ENDROOT
BRANCH   1   2
ATOM      2  C   UNL     1      -0.736  -4.007   1.483  0.00  0.00    -0.047 A 
ATOM      3  C   UNL     1      -1.940  -4.682   1.452  0.00  0.00    +0.090 A 
ATOM      4  C   UNL     1      -1.976  -6.015   1.070  0.00  0.00    +0.285 A 
ATOM      5  O   UNL     1      -0.863  -6.671   0.727  0.00  0.00    -0.425 OA
ATOM      6  C   UNL     1       0.340  -6.060   0.740  0.00  0.00    +0.141 A 
ATOM      7  C   UNL     1       0.435  -4.702   1.116  0.00  0.00    +0.019 A 
ATOM      8  C   UNL     1       1.687  -4.060   1.126  0.00  0.00    +0.013 A 
ATOM      9  C   UNL     1       2.804  -4.746   0.769  0.00  0.00    +0.024 A 
ATOM     10  C   UNL     1       2.717  -6.097   0.388  0.00  0.00    +0.037 A 
ATOM     11  C   UNL     1       1.484  -6.751   0.384  0.00  0.00    +0.070 A 
ATOM     12  N   UNL     1       3.844  -6.773   0.032  0.00  0.00    -0.286 N 
ATOM     13  C   UNL     1       3.748  -7.919  -0.614  0.00  0.00    +0.214 C 
ATOM     14  O   UNL     1       2.662  -8.312  -1.000  0.00  0.00    -0.276 OA
ATOM     15  C   UNL     1       4.984  -8.743  -0.873  0.00  0.00    +0.109 C 
ATOM     16  H   UNL     1       4.716  -6.413   0.254  0.00  0.00    +0.155 HD
BRANCH   4  17
ATOM     17  O   UNL     1      -3.158  -6.661   1.043  0.00  0.00    -0.480 OA
ATOM     18  H   UNL     1      -3.094  -7.586   0.766  0.00  0.00    +0.295 HD
ENDBRANCH   4  17
ENDBRANCH   1   2
BRANCH   1  19
ATOM     19  N   UNL     1      -0.961  -1.706   0.733  0.00  0.00    +0.386 N 
ATOM     20  H   UNL     1      -1.848  -1.971   0.332  0.00  0.00    -0.085 HD
ATOM     21  H   UNL     1      -0.232  -1.822   0.045  0.00  0.00    -0.085 HD
BRANCH  19  22
ATOM     22  C   UNL     1      -1.016  -0.301   1.158  0.00  0.00    -0.038 C 
BRANCH  22  23
ATOM     23  C   UNL     1      -2.165  -0.110   2.113  0.00  0.00    -0.057 A 
ATOM     24  C   UNL     1      -3.366  -0.755   1.886  0.00  0.00    +0.006 A 
ATOM     25  C   UNL     1      -4.423  -0.581   2.759  0.00  0.00    +0.049 A 
ATOM     26  C   UNL     1      -4.282   0.242   3.866  0.00  0.00    +0.162 A 
ATOM     27  C   UNL     1      -3.074   0.889   4.096  0.00  0.00    +0.162 A 
ATOM     28  C   UNL     1      -2.015   0.707   3.218  0.00  0.00    +0.051 A 
ATOM     29  O   UNL     1      -2.911   1.695   5.181  0.00  0.00    -0.485 OA
ATOM     30  C   UNL     1      -4.103   2.143   5.835  0.00  0.00    +0.270 C 
ATOM     31  C   UNL     1      -5.036   0.938   6.011  0.00  0.00    +0.270 C 
ATOM     32  O   UNL     1      -5.333   0.407   4.715  0.00  0.00    -0.485 OA
ENDBRANCH  22  23
BRANCH  22  34
ATOM     33  C   UNL     1      -1.162   2.062   0.362  0.00  0.00    +0.006 C 
ATOM     34  C   UNL     1      -1.215   0.594  -0.066  0.00  0.00    -0.027 C 
ATOM     35  C   UNL     1      -0.107   0.320  -1.085  0.00  0.00    +0.006 C 
ENDBRANCH  22  34
ENDBRANCH  19  22
ENDBRANCH   1  19
TORSDOF 6
