REMARK  Name = ZINC41166672
REMARK  4 active torsions:
REMARK  status: ('A' for Active; 'I' for Inactive)
REMARK    1  A    between atoms: C_1  and  C_2
REMARK    2  A    between atoms: C_4  and  C_13
REMARK    3  A    between atoms: C_15  and  C_18
REMARK    4  A    between atoms: C_21  and  N_24
REMARK                            x       y       z     vdW  Elec       q    Type
REMARK                         _______ _______ _______ _____ _____    ______ ____
ROOT
ATOM      1  C   UNL     1      -2.101  -0.787  -1.276  0.00  0.00    +0.202 A 
ATOM      2  N   UNL     1      -3.360  -1.242  -1.407  0.00  0.00    -0.187 NA
ATOM      3  C   UNL     1      -3.659  -1.367  -2.679  0.00  0.00    +0.259 A 
ATOM      4  O   UNL     1      -2.590  -0.993  -3.404  0.00  0.00    -0.332 OA
ATOM      5  N   UNL     1      -1.587  -0.613  -2.473  0.00  0.00    -0.056 NA
ENDROOT
BRANCH   1   8
ATOM      6  C   UNL     1      -0.019   1.526   0.010  0.00  0.00    +0.057 C 
ATOM      7  C   UNL     1       0.002  -0.004   0.002  0.00  0.00    +0.204 C 
ATOM      8  C   UNL     1      -1.413  -0.520   0.000  0.00  0.00    +0.040 C 
ATOM      9  C   UNL     1      -2.049  -0.738   1.170  0.00  0.00    +0.022 C 
ATOM     10  C   UNL     1      -1.311  -0.467   2.417  0.00  0.00    +0.017 A 
ATOM     11  C   UNL     1      -1.969  -0.337   3.638  0.00  0.00    +0.011 A 
ATOM     12  C   UNL     1      -1.238  -0.084   4.781  0.00  0.00    +0.001 A 
ATOM     13  C   UNL     1       0.140   0.040   4.717  0.00  0.00    +0.004 A 
ATOM     14  C   UNL     1       0.803  -0.087   3.509  0.00  0.00    +0.046 A 
ATOM     15  C   UNL     1       0.086  -0.341   2.354  0.00  0.00    +0.128 A 
ATOM     16  O   UNL     1       0.704  -0.472   1.154  0.00  0.00    -0.484 OA
ENDBRANCH   1   8
BRANCH   3  17
ATOM     17  C   UNL     1      -4.949  -1.840  -3.221  0.00  0.00    +0.040 A 
ATOM     18  C   UNL     1      -5.984  -2.196  -2.353  0.00  0.00    +0.015 A 
ATOM     19  C   UNL     1      -7.186  -2.636  -2.861  0.00  0.00    +0.023 A 
ATOM     20  C   UNL     1      -7.369  -2.728  -4.238  0.00  0.00    +0.025 A 
ATOM     21  C   UNL     1      -6.339  -2.374  -5.104  0.00  0.00    +0.023 A 
ATOM     22  C   UNL     1      -5.138  -1.928  -4.602  0.00  0.00    +0.015 A 
BRANCH  20  23
ATOM     23  N   UNL     1      -8.585  -3.174  -4.749  0.00  0.00    -0.358 N 
ATOM     24  H   UNL     1      -9.303  -3.421  -4.146  0.00  0.00    +0.142 HD
ATOM     25  H   UNL     1      -8.714  -3.238  -5.708  0.00  0.00    +0.142 HD
ENDBRANCH  20  23
ENDBRANCH   3  17
TORSDOF 3
