REMARK  Name = ZINC48333377
REMARK  7 active torsions:
REMARK  status: ('A' for Active; 'I' for Inactive)
REMARK    1  A    between atoms: C_1  and  C_2
REMARK    2  A    between atoms: C_3  and  N_11
REMARK    3  A    between atoms: C_4  and  C_10
REMARK    4  A    between atoms: N_5  and  C_7
REMARK    5  A    between atoms: C_7  and  C_8
REMARK    6  A    between atoms: C_7  and  C_9
REMARK    7  A    between atoms: N_14  and  C_15
REMARK                            x       y       z     vdW  Elec       q    Type
REMARK                         _______ _______ _______ _____ _____    ______ ____
ROOT
ATOM      1  N   UNL     1      -0.190  -0.385  -2.472  0.00  0.00    -0.266 N 
ATOM      2  C   UNL     1       0.157   0.875  -2.801  0.00  0.00    +0.308 C 
ATOM      3  O   UNL     1       0.690   1.594  -1.978  0.00  0.00    -0.252 OA
ATOM      4  N   UNL     1      -0.086   1.338  -4.043  0.00  0.00    -0.269 N 
ATOM      5  H   UNL     1      -0.556  -0.979  -3.146  0.00  0.00    +0.156 HD
ATOM      6  H   UNL     1      -0.448   0.745  -4.720  0.00  0.00    +0.156 HD
ENDROOT
BRANCH   4   7
ATOM      7  C   UNL     1       0.182   2.675  -4.356  0.00  0.00    +0.038 A 
ATOM      8  C   UNL     1       1.252   3.322  -3.757  0.00  0.00    +0.023 A 
ATOM      9  C   UNL     1       1.515   4.642  -4.068  0.00  0.00    +0.002 A 
ATOM     10  C   UNL     1       0.709   5.309  -4.968  0.00  0.00    +0.004 A 
ATOM     11  C   UNL     1      -0.365   4.667  -5.570  0.00  0.00    -0.042 A 
ATOM     12  C   UNL     1      -0.626   3.349  -5.273  0.00  0.00    -0.023 A 
ATOM     13  C   UNL     1      -1.760   2.583  -5.903  0.00  0.00    +0.037 C 
ATOM     14  C   UNL     1      -2.776   3.541  -6.521  0.00  0.00    +0.005 C 
ATOM     15  C   UNL     1      -2.025   4.525  -7.427  0.00  0.00    +0.005 C 
ATOM     16  C   UNL     1      -1.205   5.460  -6.536  0.00  0.00    +0.035 C 
ENDBRANCH   4   7
BRANCH   1  19
ATOM     17  C   UNL     1      -0.500   1.401   0.062  0.00  0.00    +0.069 C 
ATOM     18  C   UNL     1      -0.153  -0.065   0.013  0.00  0.00    +0.081 A 
ATOM     19  C   UNL     1      -0.021  -0.839  -1.149  0.00  0.00    +0.078 A 
ATOM     20  C   UNL     1       0.297  -2.104  -0.773  0.00  0.00    +0.058 A 
ATOM     21  N   UNL     1       0.363  -2.123   0.584  0.00  0.00    -0.264 N 
ATOM     22  N   UNL     1       0.081  -0.832   1.047  0.00  0.00    -0.174 NA
ATOM     23  C   UNL     1       0.534  -3.274  -1.693  0.00  0.00    +0.067 C 
BRANCH  21  24
ATOM     24  C   UNL     1       0.679  -3.288   1.415  0.00  0.00    +0.101 C 
ATOM     25  C   UNL     1       1.933  -2.999   2.243  0.00  0.00    +0.032 C 
ATOM     26  C   UNL     1      -0.495  -3.578   2.353  0.00  0.00    +0.032 C 
ENDBRANCH  21  24
ENDBRANCH   1  19
TORSDOF 3
