REMARK  Name = ZINC14989720
REMARK  7 active torsions:
REMARK  status: ('A' for Active; 'I' for Inactive)
REMARK    1  A    between atoms: C_6  and  C_7
REMARK    2  A    between atoms: C_7  and  C_8
REMARK    3  A    between atoms: C_8  and  C_9
REMARK    4  A    between atoms: C_17  and  C_21
REMARK    5  A    between atoms: C_21  and  C_22
REMARK    6  A    between atoms: C_22  and  N_23
REMARK    7  A    between atoms: C_24  and  C_26
REMARK                            x       y       z     vdW  Elec       q    Type
REMARK                         _______ _______ _______ _____ _____    ______ ____
ROOT
ATOM      1  C   UNL     1       7.475  -1.198   1.775  0.00  0.00    +0.216 C 
ATOM      2  O   UNL     1       7.652  -0.950   2.949  0.00  0.00    -0.276 OA
ATOM      3  N   UNL     1       8.513  -1.569   1.000  0.00  0.00    -0.299 N 
ATOM      4  C   UNL     1       8.310  -1.870  -0.419  0.00  0.00    +0.115 C 
ATOM      5  C   UNL     1       9.309  -2.956  -0.830  0.00  0.00    +0.095 C 
ATOM      6  C   UNL     1      10.628  -2.313  -1.168  0.00  0.00    +0.135 A 
ATOM      7  N   UNL     1      11.366  -2.551  -2.216  0.00  0.00    -0.134 NA
ATOM      8  N   UNL     1      12.443  -1.850  -2.153  0.00  0.00    -0.134 NA
ATOM      9  C   UNL     1      12.432  -1.125  -1.067  0.00  0.00    +0.135 A 
ATOM     10  N   UNL     1      11.267  -1.380  -0.425  0.00  0.00    -0.313 N 
ATOM     11  C   UNL     1      10.802  -0.736   0.803  0.00  0.00    +0.143 C 
ATOM     12  C   UNL     1       9.867  -1.671   1.566  0.00  0.00    +0.129 C 
ENDROOT
BRANCH   1  13
ATOM     13  C   UNL     1       6.093  -1.090   1.183  0.00  0.00    +0.100 C 
BRANCH  13  14
ATOM     14  C   UNL     1       5.106  -0.655   2.267  0.00  0.00    +0.044 C 
BRANCH  14  20
ATOM     15  C   UNL     1       2.886  -1.646   1.677  0.00  0.00    +0.007 A 
ATOM     16  C   UNL     1       1.617  -1.552   1.135  0.00  0.00    +0.050 A 
ATOM     17  C   UNL     1       1.183  -0.356   0.589  0.00  0.00    +0.166 A 
ATOM     18  C   UNL     1       2.029   0.752   0.587  0.00  0.00    +0.166 A 
ATOM     19  C   UNL     1       3.298   0.650   1.131  0.00  0.00    +0.053 A 
ATOM     20  C   UNL     1       3.724  -0.547   1.675  0.00  0.00    -0.043 A 
ATOM     21  O   UNL     1       1.376   1.797  -0.001  0.00  0.00    -0.453 OA
ATOM     22  C   UNL     1      -0.018   1.436   0.010  0.00  0.00    +0.466 C 
ATOM     23  O   UNL     1       0.002  -0.004   0.002  0.00  0.00    -0.453 OA
ENDBRANCH  14  20
ENDBRANCH  13  14
ENDBRANCH   1  13
BRANCH   9  24
ATOM     24  C   UNL     1      13.515  -0.181  -0.613  0.00  0.00    +0.095 C 
BRANCH  24  25
ATOM     25  C   UNL     1      13.248   1.214  -1.183  0.00  0.00    +0.112 C 
BRANCH  25  26
ATOM     26  N   UNL     1      14.300   2.132  -0.741  0.00  0.00    -0.315 N 
ATOM     27  C   UNL     1      14.271   3.424  -1.123  0.00  0.00    +0.216 C 
ATOM     28  O   UNL     1      13.374   3.827  -1.833  0.00  0.00    -0.276 OA
ATOM     29  H   UNL     1      15.018   1.810  -0.173  0.00  0.00    +0.149 HD
BRANCH  27  30
ATOM     30  C   UNL     1      15.354   4.369  -0.669  0.00  0.00    +0.075 C 
ATOM     31  C   UNL     1      15.364   4.436   0.860  0.00  0.00    +0.013 C 
ATOM     32  C   UNL     1      16.464   5.395   1.321  0.00  0.00    +0.001 C 
ATOM     33  C   UNL     1      16.196   6.789   0.751  0.00  0.00    +0.000 C 
ATOM     34  C   UNL     1      16.186   6.722  -0.777  0.00  0.00    +0.001 C 
ATOM     35  C   UNL     1      15.087   5.763  -1.239  0.00  0.00    +0.013 C 
ENDBRANCH  27  30
ENDBRANCH  25  26
ENDBRANCH  24  25
ENDBRANCH   9  24
TORSDOF 7
