REMARK  Name = ZINC37604398
REMARK  9 active torsions:
REMARK  status: ('A' for Active; 'I' for Inactive)
REMARK    1  A    between atoms: C_1  and  C_2
REMARK    2  A    between atoms: C_5  and  C_8
REMARK    3  A    between atoms: C_12  and  O_24
REMARK    4  A    between atoms: C_19  and  C_21
REMARK    5  A    between atoms: O_24  and  C_25
REMARK    6  A    between atoms: C_25  and  C_26
REMARK    7  A    between atoms: C_29  and  C_31
REMARK    8  A    between atoms: N_33  and  C_34
REMARK    9  A    between atoms: C_37  and  C_40
REMARK                            x       y       z     vdW  Elec       q    Type
REMARK                         _______ _______ _______ _____ _____    ______ ____
ROOT
ATOM      1  C   UNL     1       0.078  -4.257  -0.010  0.00  0.00    +0.137 C 
ATOM      2  C   UNL     1       1.499  -4.750   0.099  0.00  0.00    -0.016 A 
ATOM      3  C   UNL     1       2.328  -4.580  -1.000  0.00  0.00    +0.051 A 
ATOM      4  C   UNL     1       3.646  -5.003  -0.957  0.00  0.00    +0.121 A 
ATOM      5  C   UNL     1       4.137  -5.599   0.195  0.00  0.00    +0.046 A 
ATOM      6  C   UNL     1       3.309  -5.770   1.284  0.00  0.00    +0.007 A 
ATOM      7  C   UNL     1       1.985  -5.351   1.239  0.00  0.00    -0.040 A 
ATOM      8  C   UNL     1       1.135  -5.597   2.458  0.00  0.00    +0.054 C 
ATOM      9  C   UNL     1      -0.094  -4.689   2.457  0.00  0.00    +0.113 C 
ATOM     10  N   UNL     1      -0.708  -4.761   1.122  0.00  0.00    -0.290 N 
ATOM     11  C   UNL     1      -1.944  -5.270   0.946  0.00  0.00    +0.219 C 
ATOM     12  O   UNL     1      -2.428  -5.317  -0.165  0.00  0.00    -0.275 OA
ENDROOT
BRANCH   1  17
ATOM     13  C   UNL     1       0.041   1.521   0.041  0.00  0.00    +0.044 C 
ATOM     14  C   UNL     1       0.050   0.014   0.028  0.00  0.00    -0.050 A 
ATOM     15  C   UNL     1       0.661  -0.682   1.054  0.00  0.00    +0.004 A 
ATOM     16  C   UNL     1       0.670  -2.065   1.042  0.00  0.00    +0.006 A 
ATOM     17  C   UNL     1       0.067  -2.751   0.004  0.00  0.00    -0.023 A 
ATOM     18  C   UNL     1      -0.545  -2.054  -1.022  0.00  0.00    +0.006 A 
ATOM     19  C   UNL     1      -0.557  -0.672  -1.007  0.00  0.00    +0.004 A 
ENDBRANCH   1  17
BRANCH  11  20
ATOM     20  C   UNL     1      -2.724  -5.779   2.131  0.00  0.00    +0.075 C 
ATOM     21  C   UNL     1      -2.969  -7.287   2.220  0.00  0.00    +0.013 C 
ATOM     22  C   UNL     1      -4.121  -6.344   1.866  0.00  0.00    +0.013 C 
ENDBRANCH  11  20
BRANCH   4  23
ATOM     23  O   UNL     1       4.453  -4.835  -2.038  0.00  0.00    -0.484 OA
BRANCH  23  24
ATOM     24  C   UNL     1       5.800  -5.296  -1.919  0.00  0.00    +0.303 C 
BRANCH  24  25
ATOM     25  C   UNL     1       6.538  -5.028  -3.205  0.00  0.00    +0.143 A 
ATOM     26  C   UNL     1       7.232  -3.905  -3.495  0.00  0.00    +0.049 A 
ATOM     27  C   UNL     1       7.759  -4.067  -4.786  0.00  0.00    +0.055 A 
ATOM     28  C   UNL     1       7.355  -5.296  -5.224  0.00  0.00    +0.190 A 
ATOM     29  O   UNL     1       6.620  -5.866  -4.247  0.00  0.00    -0.452 OA
BRANCH  28  30
ATOM     30  C   UNL     1       7.671  -5.893  -6.525  0.00  0.00    +0.284 C 
ATOM     31  O   UNL     1       8.351  -5.281  -7.327  0.00  0.00    -0.266 OA
ATOM     32  N   UNL     1       7.207  -7.120  -6.833  0.00  0.00    -0.279 N 
ATOM     33  H   UNL     1       6.602  -7.577  -6.227  0.00  0.00    +0.155 HD
BRANCH  32  34
ATOM     34  C   UNL     1       7.597  -7.736  -8.027  0.00  0.00    +0.034 A 
ATOM     35  C   UNL     1       6.704  -8.546  -8.716  0.00  0.00    +0.023 A 
ATOM     36  C   UNL     1       7.092  -9.152  -9.895  0.00  0.00    +0.005 A 
ATOM     37  C   UNL     1       8.368  -8.953 -10.389  0.00  0.00    -0.050 A 
ATOM     38  C   UNL     1       9.260  -8.147  -9.705  0.00  0.00    +0.005 A 
ATOM     39  C   UNL     1       8.876  -7.534  -8.528  0.00  0.00    +0.023 A 
ATOM     40  C   UNL     1       8.789  -9.617 -11.675  0.00  0.00    +0.044 C 
ENDBRANCH  32  34
ENDBRANCH  28  30
ENDBRANCH  24  25
ENDBRANCH  23  24
ENDBRANCH   4  23
TORSDOF 7
