REMARK  Name = ZINC02530623
REMARK  10 active torsions:
REMARK  status: ('A' for Active; 'I' for Inactive)
REMARK    1  A    between atoms: C_1  and  C_2
REMARK    2  A    between atoms: C_5  and  C_8
REMARK    3  A    between atoms: C_8  and  O_10
REMARK    4  A    between atoms: O_10  and  C_11
REMARK    5  A    between atoms: C_20  and  C_21
REMARK    6  A    between atoms: N_22  and  N_23
REMARK    7  A    between atoms: C_24  and  C_26
REMARK    8  A    between atoms: C_26  and  C_28
REMARK    9  A    between atoms: C_26  and  O_29
REMARK   10  A    between atoms: O_29  and  C_30
REMARK                            x       y       z     vdW  Elec       q    Type
REMARK                         _______ _______ _______ _____ _____    ______ ____
ROOT
ATOM      1  C   UNL     1       0.953   6.339  -1.105  0.00  0.00    +0.141 A 
ATOM      2  C   UNL     1       2.087   5.854  -1.756  0.00  0.00    +0.047 A 
ATOM      3  C   UNL     1       2.364   4.525  -1.818  0.00  0.00    +0.012 A 
ATOM      4  C   UNL     1       1.507   3.583  -1.223  0.00  0.00    -0.017 A 
ATOM      5  C   UNL     1       1.783   2.206  -1.282  0.00  0.00    +0.008 A 
ATOM      6  C   UNL     1       0.930   1.323  -0.693  0.00  0.00    +0.001 A 
ATOM      7  C   UNL     1      -0.217   1.761  -0.037  0.00  0.00    +0.001 A 
ATOM      8  C   UNL     1      -0.513   3.089   0.044  0.00  0.00    +0.009 A 
ATOM      9  C   UNL     1       0.342   4.026  -0.550  0.00  0.00    -0.006 A 
ATOM     10  C   UNL     1       0.060   5.459  -0.493  0.00  0.00    +0.045 A 
ENDROOT
BRANCH  10  11
ATOM     11  C   UNL     1      -1.137   5.962   0.196  0.00  0.00    +0.142 C 
ATOM     12  N   UNL     1      -1.351   7.242   0.275  0.00  0.00    -0.187 NA
BRANCH  12  13
ATOM     13  N   UNL     1      -2.433   7.726   1.022  0.00  0.00    -0.204 N 
ATOM     14  C   UNL     1      -2.683   9.049   1.066  0.00  0.00    +0.273 C 
ATOM     15  O   UNL     1      -1.917   9.829   0.539  0.00  0.00    -0.270 OA
ATOM     16  H   UNL     1      -3.002   7.108   1.507  0.00  0.00    +0.177 HD
BRANCH  14  17
ATOM     17  C   UNL     1      -3.913   9.561   1.770  0.00  0.00    +0.257 C 
ATOM     18  C   UNL     1      -5.162   9.072   1.034  0.00  0.00    +0.062 C 
BRANCH  17  19
ATOM     19  O   UNL     1      -3.896  10.990   1.782  0.00  0.00    -0.479 OA
BRANCH  19  20
ATOM     20  C   UNL     1      -4.625  11.607   2.747  0.00  0.00    +0.129 A 
ATOM     21  C   UNL     1      -5.371  10.870   3.624  0.00  0.00    +0.046 A 
ATOM     22  C   UNL     1      -6.123  11.488   4.619  0.00  0.00    +0.004 A 
ATOM     23  C   UNL     1      -6.138  12.843   4.748  0.00  0.00    +0.009 A 
ATOM     24  C   UNL     1      -5.385  13.637   3.867  0.00  0.00    -0.014 A 
ATOM     25  C   UNL     1      -4.613  13.012   2.856  0.00  0.00    +0.024 A 
ATOM     26  C   UNL     1      -3.864  13.806   1.972  0.00  0.00    +0.012 A 
ATOM     27  C   UNL     1      -3.881  15.161   2.104  0.00  0.00    +0.001 A 
ATOM     28  C   UNL     1      -4.636  15.775   3.101  0.00  0.00    +0.001 A 
ATOM     29  C   UNL     1      -5.378  15.038   3.972  0.00  0.00    +0.008 A 
ENDBRANCH  19  20
ENDBRANCH  17  19
ENDBRANCH  14  17
ENDBRANCH  12  13
ENDBRANCH  10  11
BRANCH   1  30
ATOM     30  O   UNL     1       0.716   7.675  -1.067  0.00  0.00    -0.422 OA
BRANCH  30  31
ATOM     31  C   UNL     1       1.175   8.348   0.006  0.00  0.00    +0.344 C 
ATOM     32  O   UNL     1       1.688   7.744   0.927  0.00  0.00    -0.245 OA
BRANCH  31  37
ATOM     33  C   UNL     1       0.710  14.078   0.228  0.00  0.00    +0.044 C 
ATOM     34  C   UNL     1       0.832  12.577   0.170  0.00  0.00    -0.050 A 
ATOM     35  C   UNL     1       1.363  11.887   1.245  0.00  0.00    +0.004 A 
ATOM     36  C   UNL     1       1.477  10.513   1.199  0.00  0.00    +0.015 A 
ATOM     37  C   UNL     1       1.055   9.819   0.064  0.00  0.00    +0.059 A 
ATOM     38  C   UNL     1       0.525  10.521  -1.020  0.00  0.00    +0.015 A 
ATOM     39  C   UNL     1       0.411  11.895  -0.958  0.00  0.00    +0.004 A 
ENDBRANCH  31  37
ENDBRANCH  30  31
ENDBRANCH   1  30
TORSDOF 8
