REMARK  Name = ZINC40377010
REMARK  9 active torsions:
REMARK  status: ('A' for Active; 'I' for Inactive)
REMARK    1  A    between atoms: C_1  and  C_2
REMARK    2  A    between atoms: C_3  and  S_9
REMARK    3  A    between atoms: C_4  and  C_8
REMARK    4  A    between atoms: S_9  and  N_12
REMARK    5  A    between atoms: N_12  and  C_13
REMARK    6  A    between atoms: C_13  and  C_14
REMARK    7  A    between atoms: C_13  and  C_15
REMARK    8  A    between atoms: C_13  and  C_16
REMARK    9  A    between atoms: N_17  and  O_18
REMARK                            x       y       z     vdW  Elec       q    Type
REMARK                         _______ _______ _______ _____ _____    ______ ____
ROOT
ATOM      1  N   UNL     1       2.284  -0.209  -2.617  0.00  0.00    -0.177 NA
ATOM      2  H   UNL     1       2.811   0.605  -2.624  0.00  0.00    +0.149 HD
ENDROOT
BRANCH   1   3
ATOM      3  S   UNL     1       0.657  -0.138  -2.315  0.00  0.00    +0.063 S 
ATOM      4  O   UNL     1       0.017  -0.834  -3.376  0.00  0.00    -0.153 OA
ATOM      5  O   UNL     1       0.360   1.216  -2.004  0.00  0.00    -0.153 OA
BRANCH   3   8
ATOM      6  C   UNL     1       1.159   0.678   0.827  0.00  0.00    +0.067 C 
ATOM      7  C   UNL     1       0.594  -0.657   0.417  0.00  0.00    +0.060 A 
ATOM      8  C   UNL     1       0.358  -1.069  -0.850  0.00  0.00    +0.148 A 
ATOM      9  C   UNL     1      -0.165  -2.365  -0.790  0.00  0.00    +0.086 A 
ATOM     10  N   UNL     1      -0.241  -2.718   0.467  0.00  0.00    -0.177 NA
ATOM     11  N   UNL     1       0.237  -1.659   1.249  0.00  0.00    -0.280 N 
ATOM     12  H   UNL     1       0.299  -1.646   2.217  0.00  0.00    +0.189 HD
ATOM     13  C   UNL     1      -0.572  -3.209  -1.971  0.00  0.00    +0.069 C 
ENDBRANCH   3   8
ENDBRANCH   1   3
BRANCH   1  14
ATOM     14  C   UNL     1       2.926  -1.500  -2.873  0.00  0.00    +0.092 C 
ATOM     15  C   UNL     1       2.882  -2.352  -1.603  0.00  0.00    +0.037 C 
ATOM     16  C   UNL     1       2.185  -2.224  -3.999  0.00  0.00    +0.037 C 
BRANCH  14  17
ATOM     17  C   UNL     1       4.360  -1.276  -3.279  0.00  0.00    +0.153 C 
ATOM     18  N   UNL     1       5.313  -1.861  -2.632  0.00  0.00    -0.075 NA
ATOM     19  N   UNL     1       4.654  -0.448  -4.339  0.00  0.00    -0.342 N 
ATOM     20  H   UNL     1       3.939  -0.009  -4.825  0.00  0.00    +0.144 HD
ATOM     21  H   UNL     1       5.577  -0.304  -4.600  0.00  0.00    +0.144 HD
BRANCH  18  22
ATOM     22  O   UNL     1       6.660  -1.651  -3.013  0.00  0.00    -0.408 OA
ATOM     23  H   UNL     1       7.302  -2.130  -2.471  0.00  0.00    +0.328 HD
ENDBRANCH  18  22
ENDBRANCH  14  17
ENDBRANCH   1  14
TORSDOF 5
