REMARK  Name = ZINC38581471
REMARK  2 active torsions:
REMARK  status: ('A' for Active; 'I' for Inactive)
REMARK    1  A    between atoms: C_1  and  C_2
REMARK    2  A    between atoms: C_12  and  C_24
REMARK                            x       y       z     vdW  Elec       q    Type
REMARK                         _______ _______ _______ _____ _____    ______ ____
ROOT
ATOM      1  C   UNL     1      -0.019   1.526   0.010  0.00  0.00    +0.012 C 
ATOM      2  C   UNL     1       0.002  -0.004   0.002  0.00  0.00    +0.017 C 
ATOM      3  C   UNL     1      -1.432  -0.535   0.018  0.00  0.00    +0.008 C 
ATOM      4  C   UNL     1      -1.419  -2.055   0.209  0.00  0.00    +0.006 C 
ATOM      5  C   UNL     1      -0.981  -2.364   1.648  0.00  0.00    +0.042 C 
ATOM      6  C   UNL     1       0.240  -1.554   1.956  0.00  0.00    -0.008 C 
ATOM      7  C   UNL     1       0.734  -0.511   1.239  0.00  0.00    -0.026 C 
ATOM      8  C   UNL     1       2.006   0.052   1.689  0.00  0.00    +0.030 C 
ATOM      9  C   UNL     1       3.058   0.633   1.062  0.00  0.00    +0.130 C 
ATOM     10  N   UNL     1       3.205   1.141  -0.192  0.00  0.00    -0.333 N 
ATOM     11  C   UNL     1       4.386   1.667  -0.325  0.00  0.00    +0.087 C 
ATOM     12  N   UNL     1       5.092   1.526   0.839  0.00  0.00    -0.245 N 
ATOM     13  N   UNL     1       4.272   0.805   1.726  0.00  0.00    -0.171 N 
ATOM     14  C   UNL     1       4.508   0.295   2.993  0.00  0.00    +0.244 A 
ATOM     15  N   UNL     1       5.613   0.147   3.685  0.00  0.00    -0.110 NA
ATOM     16  N   UNL     1       5.285  -0.448   4.910  0.00  0.00    -0.120 NA
ATOM     17  C   UNL     1       3.987  -0.636   4.935  0.00  0.00    +0.205 A 
ATOM     18  S   UNL     1       3.069  -1.361   6.253  0.00  0.00    -0.009 SA
ATOM     19  N   UNL     1       3.473  -0.172   3.761  0.00  0.00    -0.271 N 
ATOM     20  C   UNL     1       2.122  -0.077   3.220  0.00  0.00    +0.189 C 
ATOM     21  S   UNL     1       1.319  -1.732   3.365  0.00  0.00    -0.099 S 
ATOM     22  C   UNL     1       4.902   2.333  -1.575  0.00  0.00    +0.082 C 
ATOM     23  H   UNL     1       5.985   1.858   1.018  0.00  0.00    +0.172 HD
ATOM     24  H   UNL     1       2.527   1.113  -0.885  0.00  0.00    +0.168 HD
ENDROOT
TORSDOF 0
