REMARK  Name = ZINC63373806
REMARK  7 active torsions:
REMARK  status: ('A' for Active; 'I' for Inactive)
REMARK    1  A    between atoms: C_1  and  C_2
REMARK    2  A    between atoms: C_2  and  C_3
REMARK    3  A    between atoms: C_6  and  C_9
REMARK    4  A    between atoms: N_15  and  C_30
REMARK    5  A    between atoms: C_18  and  C_29
REMARK    6  A    between atoms: C_33  and  O_36
REMARK    7  A    between atoms: O_36  and  C_37
REMARK                            x       y       z     vdW  Elec       q    Type
REMARK                         _______ _______ _______ _____ _____    ______ ____
ROOT
ATOM      1  C   UNL     1      -5.133  -2.035  -0.093  0.00  0.00    +0.065 C 
ATOM      2  C   UNL     1      -6.138  -0.991  -0.620  0.00  0.00    +0.123 C 
ATOM      3  N   UNL     1      -6.918  -1.616  -1.691  0.00  0.00    -0.268 N 
ATOM      4  C   UNL     1      -8.249  -1.754  -1.771  0.00  0.00    +0.317 C 
ATOM      5  O   UNL     1      -9.033  -1.224  -1.008  0.00  0.00    -0.252 OA
ATOM      6  N   UNL     1      -8.616  -2.543  -2.790  0.00  0.00    -0.192 N 
ATOM      7  C   UNL     1      -7.553  -2.932  -3.525  0.00  0.00    +0.253 C 
ATOM      8  O   UNL     1      -7.558  -3.671  -4.487  0.00  0.00    -0.272 OA
ATOM      9  C   UNL     1      -6.355  -2.254  -2.899  0.00  0.00    +0.137 C 
ATOM     10  C   UNL     1      -5.325  -3.285  -2.444  0.00  0.00    +0.139 C 
ATOM     11  C   UNL     1      -5.320  -3.283  -0.920  0.00  0.00    -0.027 C 
ATOM     12  C   UNL     1      -5.524  -4.543  -0.545  0.00  0.00    -0.000 A 
ATOM     13  C   UNL     1      -5.536  -5.177   0.782  0.00  0.00    +0.010 A 
ATOM     14  C   UNL     1      -5.800  -6.511   0.807  0.00  0.00    +0.001 A 
ATOM     15  C   UNL     1      -6.051  -7.266  -0.343  0.00  0.00    +0.002 A 
ATOM     16  C   UNL     1      -6.051  -6.766  -1.605  0.00  0.00    +0.026 A 
ATOM     17  C   UNL     1      -5.777  -5.376  -1.759  0.00  0.00    +0.043 A 
ATOM     18  N   UNL     1      -5.687  -4.644  -2.852  0.00  0.00    -0.375 N 
ATOM     19  C   UNL     1      -5.745  -1.217  -3.845  0.00  0.00    +0.044 C 
ATOM     20  H   UNL     1      -5.835  -4.943  -3.763  0.00  0.00    +0.160 HD
ENDROOT
BRANCH   1  24
ATOM     21  C   UNL     1      -1.144  -0.574  -0.535  0.00  0.00    -0.048 A 
ATOM     22  C   UNL     1      -1.916  -0.825  -1.654  0.00  0.00    +0.004 A 
ATOM     23  C   UNL     1      -3.207  -1.298  -1.510  0.00  0.00    +0.004 A 
ATOM     24  C   UNL     1      -3.726  -1.521  -0.249  0.00  0.00    -0.039 A 
ATOM     25  C   UNL     1      -2.953  -1.271   0.870  0.00  0.00    +0.004 A 
ATOM     26  C   UNL     1      -1.661  -0.802   0.727  0.00  0.00    +0.004 A 
BRANCH  21  28
ATOM     27  C   UNL     1       1.232  -1.239  -0.787  0.00  0.00    +0.009 C 
ATOM     28  C   UNL     1       0.264  -0.059  -0.691  0.00  0.00    +0.032 C 
ENDBRANCH  21  28
ENDBRANCH   1  24
BRANCH   6  29
ATOM     29  C   UNL     1      -9.941  -2.918  -3.060  0.00  0.00    +0.046 A 
ATOM     30  C   UNL     1     -10.981  -2.373  -2.320  0.00  0.00    +0.027 A 
ATOM     31  C   UNL     1     -12.285  -2.742  -2.586  0.00  0.00    +0.047 A 
ATOM     32  C   UNL     1     -12.555  -3.658  -3.592  0.00  0.00    +0.120 A 
ATOM     33  C   UNL     1     -11.516  -4.203  -4.331  0.00  0.00    +0.047 A 
ATOM     34  C   UNL     1     -10.212  -3.830  -4.070  0.00  0.00    +0.027 A 
BRANCH  32  35
ATOM     35  O   UNL     1     -13.839  -4.022  -3.852  0.00  0.00    -0.495 OA
ATOM     36  C   UNL     1     -14.044  -4.970  -4.902  0.00  0.00    +0.277 C 
ENDBRANCH  32  35
ENDBRANCH   6  29
TORSDOF 4
