REMARK  Name = ZINC64600332
REMARK  7 active torsions:
REMARK  status: ('A' for Active; 'I' for Inactive)
REMARK    1  A    between atoms: C_1  and  C_2
REMARK    2  A    between atoms: C_5  and  S_8
REMARK    3  A    between atoms: S_8  and  N_11
REMARK    4  A    between atoms: C_20  and  C_22
REMARK    5  A    between atoms: N_24  and  C_25
REMARK    6  A    between atoms: C_25  and  C_26
REMARK    7  A    between atoms: C_26  and  C_27
REMARK                            x       y       z     vdW  Elec       q    Type
REMARK                         _______ _______ _______ _____ _____    ______ ____
ROOT
ATOM      1  N   UNL     1       1.545  -5.465   0.144  0.00  0.00    -0.160 NA
ATOM      2  C   UNL     1       2.353  -5.685  -1.060  0.00  0.00    +0.145 C 
ATOM      3  C   UNL     1       3.456  -6.668  -0.758  0.00  0.00    -0.028 A 
ATOM      4  C   UNL     1       4.173  -7.186  -1.829  0.00  0.00    +0.005 A 
ATOM      5  C   UNL     1       5.200  -8.082  -1.616  0.00  0.00    +0.000 A 
ATOM      6  C   UNL     1       5.519  -8.465  -0.326  0.00  0.00    +0.000 A 
ATOM      7  C   UNL     1       4.806  -7.955   0.738  0.00  0.00    +0.004 A 
ATOM      8  C   UNL     1       3.766  -7.057   0.526  0.00  0.00    -0.041 A 
ATOM      9  C   UNL     1       3.014  -6.562   1.733  0.00  0.00    +0.065 C 
ATOM     10  C   UNL     1       2.264  -5.264   1.413  0.00  0.00    +0.170 C 
ENDROOT
BRANCH  10  11
ATOM     11  C   UNL     1       1.280  -4.955   2.513  0.00  0.00    +0.232 C 
ATOM     12  O   UNL     1       0.597  -5.841   2.982  0.00  0.00    -0.274 OA
ATOM     13  N   UNL     1       1.160  -3.695   2.975  0.00  0.00    -0.314 N 
ATOM     14  H   UNL     1       1.706  -2.987   2.600  0.00  0.00    +0.149 HD
BRANCH  13  15
ATOM     15  C   UNL     1       0.204  -3.395   4.044  0.00  0.00    +0.108 C 
BRANCH  15  16
ATOM     16  C   UNL     1       0.266  -1.904   4.380  0.00  0.00    +0.052 C 
BRANCH  16  17
ATOM     17  C   UNL     1      -0.718  -1.595   5.479  0.00  0.00    -0.040 C 
ATOM     18  C   UNL     1      -0.461  -1.530   6.805  0.00  0.00    -0.001 A 
ATOM     19  C   UNL     1       0.764  -1.721   7.591  0.00  0.00    +0.010 A 
ATOM     20  C   UNL     1       0.708  -1.588   8.936  0.00  0.00    +0.001 A 
ATOM     21  C   UNL     1      -0.488  -1.274   9.596  0.00  0.00    +0.002 A 
ATOM     22  C   UNL     1      -1.654  -1.084   8.943  0.00  0.00    +0.026 A 
ATOM     23  C   UNL     1      -1.710  -1.198   7.526  0.00  0.00    +0.043 A 
ATOM     24  N   UNL     1      -2.701  -1.064   6.679  0.00  0.00    -0.380 N 
ATOM     25  C   UNL     1      -2.191  -1.289   5.322  0.00  0.00    +0.144 C 
ATOM     26  H   UNL     1      -3.618  -0.847   6.910  0.00  0.00    +0.160 HD
ENDBRANCH  16  17
ENDBRANCH  15  16
ENDBRANCH  13  15
ENDBRANCH  10  11
BRANCH   1  27
ATOM     27  S   UNL     1      -0.109  -5.437   0.078  0.00  0.00    +0.062 S 
ATOM     28  O   UNL     1      -0.456  -4.983  -1.224  0.00  0.00    -0.153 OA
ATOM     29  O   UNL     1      -0.552  -4.779   1.257  0.00  0.00    -0.153 OA
BRANCH  27  34
ATOM     30  C   UNL     1      -2.011 -11.149   0.474  0.00  0.00    +0.044 C 
ATOM     31  C   UNL     1      -1.536  -9.722   0.375  0.00  0.00    -0.050 A 
ATOM     32  C   UNL     1      -1.499  -8.926   1.504  0.00  0.00    +0.005 A 
ATOM     33  C   UNL     1      -1.063  -7.618   1.414  0.00  0.00    +0.029 A 
ATOM     34  C   UNL     1      -0.664  -7.105   0.193  0.00  0.00    +0.106 A 
ATOM     35  C   UNL     1      -0.701  -7.901  -0.936  0.00  0.00    +0.029 A 
ATOM     36  C   UNL     1      -1.132  -9.211  -0.845  0.00  0.00    +0.005 A 
ENDBRANCH  27  34
ENDBRANCH   1  27
TORSDOF 6
