REMARK  Name = ZINC02373107
REMARK  6 active torsions:
REMARK  status: ('A' for Active; 'I' for Inactive)
REMARK    1  A    between atoms: C_4  and  C_7
REMARK    2  A    between atoms: C_7  and  C_8
REMARK    3  A    between atoms: C_7  and  N_59
REMARK    4  A    between atoms: N_16  and  N_19
REMARK    5  A    between atoms: C_20  and  C_21
REMARK    6  A    between atoms: C_30  and  O_31
REMARK                            x       y       z     vdW  Elec       q    Type
REMARK                         _______ _______ _______ _____ _____    ______ ____
ROOT
ATOM      1  C   UNL     1      -3.419   9.887   1.548  0.00  0.00    -0.057 C 
ATOM      2  C   UNL     1      -2.274   9.147   0.849  0.00  0.00    +0.107 C 
ATOM      3  N   UNL     1      -2.406   7.710   1.131  0.00  0.00    -0.259 N 
ATOM      4  C   UNL     1      -3.704   7.067   0.878  0.00  0.00    +0.107 C 
ATOM      5  C   UNL     1      -4.795   7.891   1.582  0.00  0.00    -0.057 C 
ATOM      6  N   UNL     1      -4.702   9.292   1.117  0.00  0.00    +0.389 N 
ATOM      7  H   UNL     1      -4.749   9.306   0.092  0.00  0.00    -0.080 HD
ENDROOT
BRANCH   3   8
ATOM      8  N   UNL     1      -1.321   6.971   1.621  0.00  0.00    -0.192 NA
ATOM      9  C   UNL     1      -1.427   5.685   1.774  0.00  0.00    +0.142 C 
BRANCH   9  10
ATOM     10  C   UNL     1      -0.338   4.928   2.408  0.00  0.00    +0.044 A 
ATOM     11  C   UNL     1      -0.440   3.481   2.587  0.00  0.00    -0.006 A 
ATOM     12  C   UNL     1      -1.571   2.770   2.165  0.00  0.00    +0.009 A 
ATOM     13  C   UNL     1      -1.623   1.420   2.344  0.00  0.00    +0.001 A 
ATOM     14  C   UNL     1      -0.573   0.738   2.953  0.00  0.00    +0.001 A 
ATOM     15  C   UNL     1       0.540   1.398   3.376  0.00  0.00    +0.008 A 
ATOM     16  C   UNL     1       0.632   2.789   3.202  0.00  0.00    -0.017 A 
ATOM     17  C   UNL     1       1.766   3.504   3.626  0.00  0.00    +0.012 A 
ATOM     18  C   UNL     1       1.844   4.851   3.451  0.00  0.00    +0.046 A 
ATOM     19  C   UNL     1       0.815   5.574   2.852  0.00  0.00    +0.126 A 
BRANCH  19  20
ATOM     20  O   UNL     1       0.936   6.918   2.698  0.00  0.00    -0.506 OA
ATOM     21  H   UNL     1       1.345   7.183   1.862  0.00  0.00    +0.292 HD
ENDBRANCH  19  20
ENDBRANCH   9  10
ENDBRANCH   3   8
BRANCH   6  22
ATOM     22  C   UNL     1      -5.830  10.078   1.660  0.00  0.00    -0.007 C 
BRANCH  22  26
ATOM     23  C   UNL     1      -5.603  14.059   0.127  0.00  0.00    +0.000 A 
ATOM     24  C   UNL     1      -5.840  13.849   1.473  0.00  0.00    +0.000 A 
ATOM     25  C   UNL     1      -5.914  12.560   1.968  0.00  0.00    +0.002 A 
ATOM     26  C   UNL     1      -5.750  11.482   1.119  0.00  0.00    -0.057 A 
ATOM     27  C   UNL     1      -5.507  11.692  -0.226  0.00  0.00    +0.002 A 
ATOM     28  C   UNL     1      -5.438  12.980  -0.722  0.00  0.00    +0.000 A 
ENDBRANCH  22  26
BRANCH  22  29
ATOM     29  C   UNL     1      -7.124   9.443   1.220  0.00  0.00    -0.057 A 
ATOM     30  C   UNL     1      -7.261   8.976  -0.074  0.00  0.00    +0.002 A 
ATOM     31  C   UNL     1      -8.446   8.390  -0.476  0.00  0.00    +0.000 A 
ATOM     32  C   UNL     1      -9.499   8.280   0.413  0.00  0.00    +0.000 A 
ATOM     33  C   UNL     1      -9.365   8.752   1.705  0.00  0.00    +0.000 A 
ATOM     34  C   UNL     1      -8.177   9.334   2.109  0.00  0.00    +0.002 A 
ENDBRANCH  22  29
ENDBRANCH   6  22
TORSDOF 6
