REMARK  Name = ZINC19175450
REMARK  9 active torsions:
REMARK  status: ('A' for Active; 'I' for Inactive)
REMARK    1  A    between atoms: C_5  and  N_7
REMARK    2  A    between atoms: N_7  and  C_8
REMARK    3  A    between atoms: C_8  and  N_10
REMARK    4  A    between atoms: N_10  and  N_11
REMARK    5  A    between atoms: C_12  and  C_14
REMARK    6  A    between atoms: C_14  and  C_15
REMARK    7  A    between atoms: C_15  and  C_16
REMARK    8  A    between atoms: C_19  and  S_22
REMARK    9  A    between atoms: S_22  and  N_25
REMARK                            x       y       z     vdW  Elec       q    Type
REMARK                         _______ _______ _______ _____ _____    ______ ____
ROOT
ATOM      1  N   UNL     1       1.098   3.830   0.054  0.00  0.00    -0.235 N 
ATOM      2  C   UNL     1       2.245   4.537   0.064  0.00  0.00    +0.229 C 
ATOM      3  O   UNL     1       3.299   3.984  -0.171  0.00  0.00    -0.274 OA
ATOM      4  H   UNL     1       0.255   4.272   0.242  0.00  0.00    +0.173 HD
ENDROOT
BRANCH   1   5
ATOM      5  N   UNL     1       1.122   2.458  -0.226  0.00  0.00    -0.246 N 
ATOM      6  H   UNL     1       1.965   2.016  -0.413  0.00  0.00    +0.172 HD
BRANCH   5   7
ATOM      7  C   UNL     1      -0.025   1.751  -0.235  0.00  0.00    +0.151 C 
ATOM      8  S   UNL     1       0.005   0.074  -0.577  0.00  0.00    -0.017 S 
BRANCH   7   9
ATOM      9  N   UNL     1      -1.197   2.366   0.021  0.00  0.00    -0.294 N 
ATOM     10  H   UNL     1      -1.209   3.301   0.276  0.00  0.00    +0.154 HD
BRANCH   9  15
ATOM     11  C   UNL     1      -3.706  -0.297   0.402  0.00  0.00    +0.002 A 
ATOM     12  C   UNL     1      -4.773   0.246  -0.288  0.00  0.00    +0.003 A 
ATOM     13  C   UNL     1      -4.658   1.492  -0.877  0.00  0.00    +0.040 A 
ATOM     14  C   UNL     1      -3.474   2.198  -0.777  0.00  0.00    +0.144 A 
ATOM     15  C   UNL     1      -2.399   1.654  -0.083  0.00  0.00    +0.068 A 
ATOM     16  C   UNL     1      -2.517   0.400   0.501  0.00  0.00    +0.026 A 
ATOM     17  F   UNL     1      -3.361   3.415  -1.353  0.00  0.00    -0.204 F 
ENDBRANCH   9  15
ENDBRANCH   7   9
ENDBRANCH   5   7
ENDBRANCH   1   5
BRANCH   2  18
ATOM     18  C   UNL     1       2.219   6.013   0.365  0.00  0.00    +0.102 C 
BRANCH  18  19
ATOM     19  C   UNL     1       3.643   6.570   0.311  0.00  0.00    +0.044 C 
BRANCH  19  20
ATOM     20  C   UNL     1       3.616   8.046   0.613  0.00  0.00    -0.047 A 
ATOM     21  C   UNL     1       3.474   8.959  -0.415  0.00  0.00    +0.005 A 
ATOM     22  C   UNL     1       3.445  10.313  -0.139  0.00  0.00    +0.029 A 
ATOM     23  C   UNL     1       3.568  10.755   1.166  0.00  0.00    +0.105 A 
ATOM     24  C   UNL     1       3.716   9.842   2.193  0.00  0.00    +0.029 A 
ATOM     25  C   UNL     1       3.740   8.488   1.917  0.00  0.00    +0.005 A 
BRANCH  23  26
ATOM     26  S   UNL     1       3.536  12.481   1.518  0.00  0.00    +0.056 S 
ATOM     27  O   UNL     1       2.841  13.101   0.445  0.00  0.00    -0.153 OA
ATOM     28  O   UNL     1       3.122  12.611   2.871  0.00  0.00    -0.153 OA
BRANCH  26  29
ATOM     29  N   UNL     1       5.099  13.024   1.447  0.00  0.00    -0.204 NA
ATOM     30  H   UNL     1       5.818  12.407   1.239  0.00  0.00    +0.144 HD
ATOM     31  H   UNL     1       5.295  13.960   1.613  0.00  0.00    +0.144 HD
ENDBRANCH  26  29
ENDBRANCH  23  26
ENDBRANCH  19  20
ENDBRANCH  18  19
ENDBRANCH   2  18
TORSDOF 9
