REMARK  Name = ZINC25155535
REMARK  9 active torsions:
REMARK  status: ('A' for Active; 'I' for Inactive)
REMARK    1  A    between atoms: C_1  and  C_2
REMARK    2  A    between atoms: C_2  and  C_3
REMARK    3  A    between atoms: C_6  and  C_9
REMARK    4  A    between atoms: C_17  and  O_39
REMARK    5  A    between atoms: C_24  and  C_26
REMARK    6  A    between atoms: C_26  and  C_28
REMARK    7  A    between atoms: C_26  and  C_29
REMARK    8  A    between atoms: C_29  and  C_30
REMARK    9  A    between atoms: O_39  and  C_40
REMARK                            x       y       z     vdW  Elec       q    Type
REMARK                         _______ _______ _______ _____ _____    ______ ____
ROOT
ATOM      1  C   UNL     1       3.155  -6.217   2.739  0.00  0.00    +0.247 C 
ATOM      2  O   UNL     1       2.342  -6.626   1.932  0.00  0.00    -0.270 OA
ATOM      3  N   UNL     1       2.780  -5.977   4.011  0.00  0.00    -0.288 N 
ATOM      4  C   UNL     1       1.425  -6.313   4.474  0.00  0.00    +0.113 C 
ATOM      5  C   UNL     1       1.522  -7.401   5.550  0.00  0.00    +0.056 C 
ATOM      6  C   UNL     1       2.620  -7.038   6.517  0.00  0.00    -0.016 A 
ATOM      7  C   UNL     1       2.847  -7.555   7.851  0.00  0.00    +0.007 A 
ATOM      8  C   UNL     1       2.163  -8.492   8.633  0.00  0.00    +0.056 A 
ATOM      9  C   UNL     1       2.680  -8.748   9.894  0.00  0.00    +0.121 A 
ATOM     10  C   UNL     1       3.821  -8.108  10.363  0.00  0.00    +0.047 A 
ATOM     11  C   UNL     1       4.509  -7.178   9.604  0.00  0.00    +0.030 A 
ATOM     12  C   UNL     1       4.011  -6.902   8.332  0.00  0.00    +0.047 A 
ATOM     13  N   UNL     1       4.438  -6.055   7.347  0.00  0.00    -0.356 N 
ATOM     14  H   UNL     1       5.336  -5.439   7.503  0.00  0.00    +0.166 HD
ATOM     15  C   UNL     1       3.600  -6.142   6.268  0.00  0.00    +0.041 A 
ATOM     16  C   UNL     1       3.716  -5.370   4.973  0.00  0.00    +0.126 C 
ENDROOT
BRANCH   1  20
ATOM     17  C   UNL     1       7.176  -5.545   1.547  0.00  0.00    -0.048 A 
ATOM     18  C   UNL     1       6.427  -6.525   0.920  0.00  0.00    +0.004 A 
ATOM     19  C   UNL     1       5.120  -6.749   1.303  0.00  0.00    +0.013 A 
ATOM     20  C   UNL     1       4.555  -5.983   2.324  0.00  0.00    +0.037 A 
ATOM     21  C   UNL     1       5.314  -4.992   2.948  0.00  0.00    +0.013 A 
ATOM     22  C   UNL     1       6.622  -4.783   2.560  0.00  0.00    +0.004 A 
BRANCH  17  24
ATOM     23  C   UNL     1       8.637  -4.261   0.008  0.00  0.00    +0.009 C 
ATOM     24  C   UNL     1       8.603  -5.307   1.125  0.00  0.00    +0.032 C 
ENDBRANCH  17  24
ENDBRANCH   1  20
BRANCH  16  25
ATOM     25  C   UNL     1       3.345  -3.905   5.206  0.00  0.00    +0.017 C 
ATOM     26  C   UNL     1       4.292  -3.297   6.242  0.00  0.00    +0.010 C 
BRANCH  25  27
ATOM     27  C   UNL     1       3.465  -3.132   3.890  0.00  0.00    +0.040 C 
BRANCH  27  28
ATOM     28  C   UNL     1       2.983  -1.719   4.092  0.00  0.00    -0.043 A 
ATOM     29  C   UNL     1       3.872  -0.736   4.483  0.00  0.00    +0.007 A 
ATOM     30  C   UNL     1       3.435   0.562   4.669  0.00  0.00    +0.050 A 
ATOM     31  C   UNL     1       2.102   0.881   4.463  0.00  0.00    +0.166 A 
ATOM     32  C   UNL     1       1.206  -0.110   4.068  0.00  0.00    +0.166 A 
ATOM     33  C   UNL     1       1.652  -1.408   3.884  0.00  0.00    +0.053 A 
ATOM     34  O   UNL     1      -0.031   0.450   3.933  0.00  0.00    -0.453 OA
ATOM     35  C   UNL     1       0.033   1.702   4.642  0.00  0.00    +0.466 C 
ATOM     36  O   UNL     1       1.426   2.061   4.574  0.00  0.00    -0.453 OA
ENDBRANCH  27  28
ENDBRANCH  25  27
ENDBRANCH  16  25
BRANCH   9  37
ATOM     37  O   UNL     1       2.052  -9.651  10.694  0.00  0.00    -0.495 OA
ATOM     38  C   UNL     1       2.623  -9.881  11.984  0.00  0.00    +0.277 C 
ENDBRANCH   9  37
TORSDOF 6
