REMARK  Name = ZINC34787653
REMARK  8 active torsions:
REMARK  status: ('A' for Active; 'I' for Inactive)
REMARK    1  A    between atoms: C_1  and  C_2
REMARK    2  A    between atoms: C_4  and  C_33
REMARK    3  A    between atoms: C_16  and  C_18
REMARK    4  A    between atoms: C_16  and  C_19
REMARK    5  A    between atoms: C_20  and  S_22
REMARK    6  A    between atoms: S_22  and  C_23
REMARK    7  A    between atoms: C_23  and  C_24
REMARK    8  A    between atoms: N_26  and  C_27
REMARK                            x       y       z     vdW  Elec       q    Type
REMARK                         _______ _______ _______ _____ _____    ______ ____
ROOT
ATOM      1  C   UNL     1      -0.018   1.503   0.010  0.00  0.00    +0.067 C 
ATOM      2  C   UNL     1       0.002  -0.004   0.002  0.00  0.00    +0.061 A 
ATOM      3  C   UNL     1       0.008  -0.817  -1.138  0.00  0.00    +0.048 A 
ATOM      4  C   UNL     1       0.027  -2.107  -0.730  0.00  0.00    +0.045 A 
ATOM      5  N   UNL     1       0.034  -2.108   0.629  0.00  0.00    -0.202 N 
ATOM      6  N   UNL     1       0.023  -0.775   1.058  0.00  0.00    -0.169 NA
ATOM      7  C   UNL     1       0.052  -3.237   1.449  0.00  0.00    +0.254 A 
ATOM      8  N   UNL     1       0.051  -3.083   2.765  0.00  0.00    -0.203 NA
ATOM      9  C   UNL     1       0.069  -4.136   3.558  0.00  0.00    +0.115 A 
ATOM     10  C   UNL     1       0.090  -5.448   3.042  0.00  0.00    +0.043 A 
ATOM     11  C   UNL     1       0.109  -6.519   4.037  0.00  0.00    -0.020 A 
ATOM     12  C   UNL     1       0.104  -6.151   5.336  0.00  0.00    +0.021 A 
ATOM     13  S   UNL     1       0.074  -4.381   5.315  0.00  0.00    -0.071 S 
ATOM     14  C   UNL     1       0.118  -7.072   6.517  0.00  0.00    +0.203 C 
ATOM     15  O   UNL     1      -0.180  -8.397   6.049  0.00  0.00    -0.368 OA
ATOM     16  C   UNL     1       0.590  -8.785   4.908  0.00  0.00    +0.068 C 
ATOM     17  C   UNL     1       0.135  -8.001   3.673  0.00  0.00    +0.071 C 
ATOM     18  C   UNL     1       2.069  -8.498   5.173  0.00  0.00    +0.041 C 
ATOM     19  C   UNL     1       0.404 -10.282   4.655  0.00  0.00    +0.041 C 
ATOM     20  C   UNL     1       0.090  -5.548   1.622  0.00  0.00    +0.111 A 
ATOM     21  N   UNL     1       0.066  -4.442   0.897  0.00  0.00    -0.204 NA
ATOM     22  C   UNL     1       0.039  -3.321  -1.622  0.00  0.00    +0.066 C 
ENDROOT
BRANCH  20  23
ATOM     23  S   UNL     1       0.116  -7.127   0.840  0.00  0.00    -0.096 S 
BRANCH  23  24
ATOM     24  C   UNL     1       0.108  -6.738  -0.932  0.00  0.00    +0.171 C 
BRANCH  24  25
ATOM     25  C   UNL     1       0.128  -8.018  -1.727  0.00  0.00    +0.223 C 
ATOM     26  O   UNL     1       0.146  -9.087  -1.155  0.00  0.00    -0.275 OA
ATOM     27  N   UNL     1       0.127  -7.975  -3.074  0.00  0.00    -0.312 N 
ATOM     28  H   UNL     1       0.112  -7.120  -3.532  0.00  0.00    +0.149 HD
BRANCH  27  29
ATOM     29  C   UNL     1       0.146  -9.219  -3.847  0.00  0.00    +0.073 C 
ATOM     30  C   UNL     1      -1.283  -9.742  -4.008  0.00  0.00    +0.022 C 
ATOM     31  C   UNL     1      -1.262 -11.042  -4.815  0.00  0.00    +0.002 C 
ATOM     32  C   UNL     1      -0.658 -10.776  -6.195  0.00  0.00    +0.000 C 
ATOM     33  C   UNL     1       0.771 -10.253  -6.034  0.00  0.00    +0.002 C 
ATOM     34  C   UNL     1       0.751  -8.953  -5.227  0.00  0.00    +0.022 C 
ENDBRANCH  27  29
ENDBRANCH  24  25
ENDBRANCH  23  24
ENDBRANCH  20  23
TORSDOF 4
