REMARK  Name = ZINC22851995
REMARK  5 active torsions:
REMARK  status: ('A' for Active; 'I' for Inactive)
REMARK    1  A    between atoms: N_9  and  C_11
REMARK    2  A    between atoms: C_11  and  C_13
REMARK    3  A    between atoms: C_11  and  C_20
REMARK    4  A    between atoms: C_21  and  O_33
REMARK    5  A    between atoms: C_26  and  C_28
REMARK                            x       y       z     vdW  Elec       q    Type
REMARK                         _______ _______ _______ _____ _____    ______ ____
ROOT
ATOM      1  C   UNL     1      -8.386   0.319   0.037  0.00  0.00    +0.130 C 
ENDROOT
BRANCH   1  10
ATOM      2  C   UNL     1     -11.644  -3.628  -3.850  0.00  0.00    +0.000 A 
ATOM      3  C   UNL     1     -12.409  -3.379  -2.726  0.00  0.00    +0.000 A 
ATOM      4  C   UNL     1     -11.950  -2.503  -1.763  0.00  0.00    +0.005 A 
ATOM      5  C   UNL     1     -10.724  -1.872  -1.915  0.00  0.00    -0.030 A 
ATOM      6  C   UNL     1      -9.961  -2.124  -3.035  0.00  0.00    -0.042 A 
ATOM      7  C   UNL     1     -10.424  -3.002  -4.003  0.00  0.00    +0.004 A 
ATOM      8  C   UNL     1      -8.620  -1.467  -3.242  0.00  0.00    +0.051 C 
ATOM      9  C   UNL     1      -8.481  -0.259  -2.315  0.00  0.00    +0.090 C 
ATOM     10  N   UNL     1      -8.826  -0.679  -0.947  0.00  0.00    -0.286 NA
ATOM     11  C   UNL     1     -10.268  -0.922  -0.839  0.00  0.00    +0.120 C 
ENDBRANCH   1  10
BRANCH   1  12
ATOM     12  C   UNL     1      -6.881   0.400   0.031  0.00  0.00    +0.076 A 
ATOM     13  C   UNL     1      -6.094   1.482   0.034  0.00  0.00    +0.228 A 
ATOM     14  N   UNL     1      -4.726   1.354   0.028  0.00  0.00    -0.173 N 
ATOM     15  C   UNL     1      -4.219   0.084   0.019  0.00  0.00    +0.200 A 
ATOM     16  S   UNL     1      -5.682  -0.924   0.019  0.00  0.00    -0.047 S 
ATOM     17  N   UNL     1      -2.916   0.130   0.009  0.00  0.00    -0.197 NA
ATOM     18  C   UNL     1      -2.518   1.410   0.020  0.00  0.00    +0.218 A 
ATOM     19  N   UNL     1      -3.578   2.189   0.029  0.00  0.00    -0.138 NA
BRANCH  18  20
ATOM     20  C   UNL     1      -1.115   1.872   0.017  0.00  0.00    +0.173 A 
ATOM     21  C   UNL     1      -0.013   1.076   0.008  0.00  0.00    +0.053 A 
ATOM     22  C   UNL     1       1.107   1.932   0.002  0.00  0.00    +0.042 A 
ATOM     23  C   UNL     1       0.638   3.195   0.013  0.00  0.00    +0.196 A 
ATOM     24  O   UNL     1      -0.705   3.155   0.026  0.00  0.00    -0.460 OA
ENDBRANCH  18  20
BRANCH  13  25
ATOM     25  O   UNL     1      -6.654   2.721   0.043  0.00  0.00    -0.492 OA
ATOM     26  H   UNL     1      -6.012   3.615   0.045  0.00  0.00    +0.294 HD
ENDBRANCH  13  25
ENDBRANCH   1  12
BRANCH   1  27
ATOM     27  C   UNL     1      -8.862  -0.083   1.409  0.00  0.00    -0.025 A 
ATOM     28  C   UNL     1      -8.829  -1.412   1.789  0.00  0.00    +0.007 A 
ATOM     29  C   UNL     1      -9.261  -1.781   3.050  0.00  0.00    +0.020 A 
ATOM     30  C   UNL     1      -9.736  -0.822   3.926  0.00  0.00    +0.041 A 
ATOM     31  C   UNL     1      -9.774   0.507   3.542  0.00  0.00    +0.020 A 
ATOM     32  C   UNL     1      -9.337   0.875   2.284  0.00  0.00    +0.007 A 
ATOM     33 CL   UNL     1     -10.286  -1.285   5.506  0.00  0.00    -0.084 Cl
ENDBRANCH   1  27
TORSDOF 5
