REMARK  Name = ZINC29386603
REMARK  8 active torsions:
REMARK  status: ('A' for Active; 'I' for Inactive)
REMARK    1  A    between atoms: C_1  and  C_2
REMARK    2  A    between atoms: C_5  and  C_8
REMARK    3  A    between atoms: C_8  and  N_9
REMARK    4  A    between atoms: C_16  and  C_18
REMARK    5  A    between atoms: C_18  and  N_19
REMARK    6  A    between atoms: C_20  and  C_22
REMARK    7  A    between atoms: C_25  and  C_29
REMARK    8  A    between atoms: C_26  and  C_28
REMARK                            x       y       z     vdW  Elec       q    Type
REMARK                         _______ _______ _______ _____ _____    ______ ____
ROOT
ATOM      1  N   UNL     1       9.588   2.088  -0.274  0.00  0.00    -0.331 N 
ATOM      2  C   UNL     1      10.608   2.974  -0.386  0.00  0.00    +0.088 A 
ATOM      3  C   UNL     1      10.370   4.309  -0.380  0.00  0.00    +0.018 A 
ATOM      4  C   UNL     1       9.060   4.787  -0.263  0.00  0.00    +0.005 A 
ATOM      5  C   UNL     1       8.027   3.897  -0.154  0.00  0.00    +0.042 A 
ATOM      6  C   UNL     1       8.301   2.524  -0.163  0.00  0.00    +0.105 A 
ATOM      7  N   UNL     1       7.299   1.638  -0.056  0.00  0.00    -0.270 N 
ATOM      8  C   UNL     1       6.043   2.057  -0.051  0.00  0.00    +0.235 C 
ATOM      9  O   UNL     1       5.626   2.741  -0.967  0.00  0.00    -0.274 OA
ATOM     10  H   UNL     1       7.521   0.564   0.026  0.00  0.00    +0.156 HD
ENDROOT
BRANCH   1  11
ATOM     11  C   UNL     1       9.871   0.651  -0.277  0.00  0.00    +0.158 C 
BRANCH  11  16
ATOM     12  C   UNL     1      14.604  -0.373  -3.429  0.00  0.00    +0.044 C 
ATOM     13  C   UNL     1      13.370  -0.107  -2.607  0.00  0.00    -0.050 A 
ATOM     14  C   UNL     1      13.483   0.147  -1.253  0.00  0.00    +0.004 A 
ATOM     15  C   UNL     1      12.351   0.393  -0.499  0.00  0.00    +0.005 A 
ATOM     16  C   UNL     1      11.105   0.384  -1.099  0.00  0.00    -0.028 A 
ATOM     17  C   UNL     1      10.992   0.124  -2.452  0.00  0.00    +0.005 A 
ATOM     18  C   UNL     1      12.124  -0.117  -3.207  0.00  0.00    +0.004 A 
ENDBRANCH  11  16
ENDBRANCH   1  11
BRANCH   8  19
ATOM     19  C   UNL     1       5.130   1.687   1.089  0.00  0.00    +0.200 C 
BRANCH  19  20
ATOM     20  N   UNL     1       3.804   2.267   0.862  0.00  0.00    -0.303 N 
ATOM     21  C   UNL     1       2.818   2.067   1.758  0.00  0.00    +0.244 C 
ATOM     22  O   UNL     1       3.028   1.404   2.756  0.00  0.00    -0.270 OA
ATOM     23  H   UNL     1       3.614   2.867  -0.040  0.00  0.00    +0.150 HD
BRANCH  21  24
ATOM     24  C   UNL     1       1.480   2.653   1.529  0.00  0.00    +0.037 A 
ATOM     25  C   UNL     1       1.235   3.414   0.385  0.00  0.00    +0.013 A 
ATOM     26  C   UNL     1      -0.015   3.958   0.177  0.00  0.00    +0.004 A 
ATOM     27  C   UNL     1      -1.026   3.751   1.099  0.00  0.00    -0.047 A 
ATOM     28  C   UNL     1      -0.791   2.993   2.232  0.00  0.00    -0.047 A 
ATOM     29  C   UNL     1       0.457   2.447   2.455  0.00  0.00    +0.016 A 
ATOM     30  C   UNL     1      -1.899   2.766   3.228  0.00  0.00    +0.044 C 
ATOM     31  C   UNL     1      -2.389   4.349   0.866  0.00  0.00    +0.044 C 
ENDBRANCH  21  24
ENDBRANCH  19  20
ENDBRANCH   8  19
TORSDOF 5
