REMARK  Name = ZINC01925299
REMARK  12 active torsions:
REMARK  status: ('A' for Active; 'I' for Inactive)
REMARK    1  A    between atoms: C_1  and  C_2
REMARK    2  A    between atoms: C_4  and  C_36
REMARK    3  A    between atoms: C_5  and  N_9
REMARK    4  A    between atoms: C_6  and  C_8
REMARK    5  A    between atoms: C_10  and  C_12
REMARK    6  A    between atoms: C_12  and  O_13
REMARK    7  A    between atoms: O_13  and  C_14
REMARK    8  A    between atoms: C_24  and  C_25
REMARK    9  A    between atoms: C_28  and  C_31
REMARK   10  A    between atoms: C_31  and  C_32
REMARK   11  A    between atoms: C_31  and  C_33
REMARK   12  A    between atoms: C_31  and  C_34
REMARK                            x       y       z     vdW  Elec       q    Type
REMARK                         _______ _______ _______ _____ _____    ______ ____
ROOT
ATOM      1  C   UNL     1      -7.289   1.402  -0.623  0.00  0.00    +0.211 A 
ATOM      2  C   UNL     1      -7.796   1.287  -1.943  0.00  0.00    +0.235 A 
ATOM      3  O   UNL     1      -7.174   1.714  -2.901  0.00  0.00    -0.283 OA
ATOM      4  C   UNL     1      -9.104   0.625  -2.111  0.00  0.00    +0.069 A 
ATOM      5  C   UNL     1      -9.677   0.463  -3.372  0.00  0.00    +0.035 A 
ATOM      6  C   UNL     1     -10.904  -0.155  -3.488  0.00  0.00    +0.042 A 
ATOM      7  C   UNL     1     -11.565  -0.614  -2.356  0.00  0.00    +0.023 A 
ATOM      8  C   UNL     1     -11.008  -0.461  -1.105  0.00  0.00    +0.048 A 
ATOM      9  C   UNL     1      -9.772   0.160  -0.967  0.00  0.00    +0.140 A 
ATOM     10  O   UNL     1      -9.212   0.320   0.250  0.00  0.00    -0.451 OA
ATOM     11  C   UNL     1      -8.020   0.916   0.420  0.00  0.00    +0.181 A 
ATOM     12 CL   UNL     1     -11.624  -0.361  -5.053  0.00  0.00    -0.084 Cl
ENDROOT
BRANCH  11  13
ATOM     13  C   UNL     1      -7.481   1.048   1.788  0.00  0.00    +0.021 A 
ATOM     14  C   UNL     1      -7.471  -0.053   2.648  0.00  0.00    +0.012 A 
ATOM     15  C   UNL     1      -6.962   0.077   3.923  0.00  0.00    +0.005 A 
ATOM     16  C   UNL     1      -6.471   1.297   4.354  0.00  0.00    -0.042 A 
ATOM     17  C   UNL     1      -6.482   2.393   3.509  0.00  0.00    +0.005 A 
ATOM     18  C   UNL     1      -6.984   2.276   2.230  0.00  0.00    +0.012 A 
BRANCH  16  19
ATOM     19  C   UNL     1      -5.921   1.432   5.751  0.00  0.00    -0.013 C 
ATOM     20  C   UNL     1      -6.728   2.483   6.516  0.00  0.00    +0.015 C 
ATOM     21  C   UNL     1      -6.023   0.086   6.472  0.00  0.00    +0.015 C 
ATOM     22  C   UNL     1      -4.455   1.864   5.683  0.00  0.00    +0.015 C 
ENDBRANCH  16  19
ENDBRANCH  11  13
BRANCH   1  23
ATOM     23  O   UNL     1      -6.087   1.998  -0.399  0.00  0.00    -0.476 OA
BRANCH  23  24
ATOM     24  C   UNL     1      -4.923   1.178  -0.524  0.00  0.00    +0.325 C 
BRANCH  24  26
ATOM     25  N   UNL     1      -2.473   1.436  -0.302  0.00  0.00    -0.282 N 
ATOM     26  C   UNL     1      -3.694   2.003  -0.243  0.00  0.00    +0.255 C 
ATOM     27  O   UNL     1      -3.804   3.178   0.037  0.00  0.00    -0.272 OA
ATOM     28  H   UNL     1      -2.389   0.480  -0.445  0.00  0.00    +0.155 HD
BRANCH  25  33
ATOM     29  C   UNL     1       2.180   4.626   0.293  0.00  0.00    +0.044 C 
ATOM     30  C   UNL     1       0.942   3.781   0.133  0.00  0.00    -0.050 A 
ATOM     31  C   UNL     1      -0.021   3.775   1.125  0.00  0.00    +0.008 A 
ATOM     32  C   UNL     1      -1.156   3.001   0.982  0.00  0.00    -0.029 A 
ATOM     33  C   UNL     1      -1.327   2.225  -0.157  0.00  0.00    +0.039 A 
ATOM     34  C   UNL     1      -0.361   2.239  -1.154  0.00  0.00    -0.029 A 
ATOM     35  C   UNL     1       0.773   3.014  -1.005  0.00  0.00    +0.008 A 
ATOM     36  C   UNL     1      -0.545   1.403  -2.394  0.00  0.00    +0.045 C 
ATOM     37  C   UNL     1      -2.206   2.994   2.064  0.00  0.00    +0.045 C 
ENDBRANCH  25  33
ENDBRANCH  24  26
ENDBRANCH  23  24
ENDBRANCH   1  23
TORSDOF 6
