REMARK  Name = ZINC35447979
REMARK  9 active torsions:
REMARK  status: ('A' for Active; 'I' for Inactive)
REMARK    1  A    between atoms: C_1  and  C_2
REMARK    2  A    between atoms: C_5  and  O_15
REMARK    3  A    between atoms: C_6  and  N_8
REMARK    4  A    between atoms: C_9  and  C_11
REMARK    5  A    between atoms: C_11  and  C_12
REMARK    6  A    between atoms: C_11  and  C_13
REMARK    7  A    between atoms: C_11  and  C_14
REMARK    8  A    between atoms: O_15  and  C_16
REMARK    9  A    between atoms: C_16  and  C_17
REMARK                            x       y       z     vdW  Elec       q    Type
REMARK                         _______ _______ _______ _____ _____    ______ ____
ROOT
ATOM      1  O   UNL     1       0.063  -4.126  -0.038  0.00  0.00    -0.484 OA
ENDROOT
BRANCH   1   6
ATOM      2  C   UNL     1       0.016   1.511   0.025  0.00  0.00    +0.044 C 
ATOM      3  C   UNL     1       0.029   0.004   0.011  0.00  0.00    -0.048 A 
ATOM      4  C   UNL     1       0.036  -0.675  -1.193  0.00  0.00    +0.007 A 
ATOM      5  C   UNL     1       0.048  -2.057  -1.212  0.00  0.00    +0.048 A 
ATOM      6  C   UNL     1       0.052  -2.766  -0.021  0.00  0.00    +0.142 A 
ATOM      7  C   UNL     1       0.046  -2.083   1.192  0.00  0.00    +0.076 A 
ATOM      8  C   UNL     1       0.040  -0.696   1.203  0.00  0.00    +0.030 A 
BRANCH   7   9
ATOM      9  N   UNL     1       0.050  -2.795   2.399  0.00  0.00    -0.282 N 
ATOM     10  C   UNL     1      -0.440  -2.226   3.519  0.00  0.00    +0.223 C 
ATOM     11  O   UNL     1      -0.977  -1.140   3.462  0.00  0.00    -0.275 OA
ATOM     12  H   UNL     1       0.407  -3.696   2.429  0.00  0.00    +0.155 HD
BRANCH  10  13
ATOM     13  C   UNL     1      -0.323  -2.941   4.840  0.00  0.00    +0.039 C 
ATOM     14  C   UNL     1      -0.954  -2.086   5.940  0.00  0.00    +0.020 C 
ATOM     15  C   UNL     1      -1.048  -4.285   4.760  0.00  0.00    +0.020 C 
ATOM     16  C   UNL     1       1.154  -3.177   5.162  0.00  0.00    +0.020 C 
ENDBRANCH  10  13
ENDBRANCH   7   9
ENDBRANCH   1   6
BRANCH   1  17
ATOM     17  C   UNL     1       0.069  -4.759  -1.319  0.00  0.00    +0.282 C 
BRANCH  17  18
ATOM     18  C   UNL     1       0.081  -6.255  -1.140  0.00  0.00    +0.061 A 
ATOM     19  C   UNL     1       0.078  -6.811   0.122  0.00  0.00    +0.095 A 
ATOM     20  C   UNL     1       0.089  -8.198   0.268  0.00  0.00    +0.259 A 
ATOM     21  O   UNL     1       0.087  -8.696   1.383  0.00  0.00    -0.267 OA
ATOM     22  N   UNL     1       0.102  -8.999  -0.840  0.00  0.00    -0.260 N 
ATOM     23  C   UNL     1       0.114 -10.387  -0.831  0.00  0.00    +0.039 A 
ATOM     24  C   UNL     1       0.125 -11.030  -2.006  0.00  0.00    +0.013 A 
ATOM     25  S   UNL     1       0.120  -9.721  -3.204  0.00  0.00    -0.056 S 
ATOM     26  C   UNL     1       0.103  -8.365  -2.050  0.00  0.00    +0.159 A 
ATOM     27  N   UNL     1       0.088  -7.064  -2.197  0.00  0.00    -0.336 N 
ATOM     28  C   UNL     1       0.139 -12.505  -2.248  0.00  0.00    +0.044 C 
ATOM     29  C   UNL     1       0.505 -13.208  -0.932  0.00  0.00    +0.006 C 
ATOM     30  C   UNL     1      -0.340 -12.606   0.195  0.00  0.00    +0.006 C 
ATOM     31  C   UNL     1       0.114 -11.174   0.478  0.00  0.00    +0.055 C 
ATOM     32  H   UNL     1       0.086  -6.683  -3.089  0.00  0.00    +0.168 HD
ENDBRANCH  17  18
ENDBRANCH   1  17
TORSDOF 5
