REMARK  Name = ZINC27022287
REMARK  7 active torsions:
REMARK  status: ('A' for Active; 'I' for Inactive)
REMARK    1  A    between atoms: C_1  and  C_2
REMARK    2  A    between atoms: C_5  and  N_8
REMARK    3  A    between atoms: C_12  and  S_13
REMARK    4  A    between atoms: S_13  and  C_14
REMARK    5  A    between atoms: C_14  and  C_16
REMARK    6  A    between atoms: C_14  and  C_17
REMARK    7  A    between atoms: N_19  and  C_20
REMARK                            x       y       z     vdW  Elec       q    Type
REMARK                         _______ _______ _______ _____ _____    ______ ____
ROOT
ATOM      1  N   UNL     1       6.384   0.878   1.399  0.00  0.00    -0.259 N 
ATOM      2  C   UNL     1       7.118  -0.277   1.387  0.00  0.00    +0.225 A 
ATOM      3  N   UNL     1       6.356  -1.235   0.920  0.00  0.00    -0.112 NA
ATOM      4  N   UNL     1       5.099  -0.689   0.629  0.00  0.00    -0.120 NA
ATOM      5  C   UNL     1       5.132   0.587   0.928  0.00  0.00    +0.198 A 
ATOM      6  N   UNL     1       8.440  -0.409   1.793  0.00  0.00    -0.299 N 
ATOM      7  C   UNL     1       8.587  -0.096   3.237  0.00  0.00    +0.108 C 
ATOM      8  C   UNL     1       9.924  -0.781   3.614  0.00  0.00    +0.020 C 
ATOM      9  C   UNL     1       9.890  -2.085   2.783  0.00  0.00    +0.020 C 
ATOM     10  C   UNL     1       8.906  -1.803   1.633  0.00  0.00    +0.108 C 
ENDROOT
BRANCH   1  15
ATOM     11  C   UNL     1       8.205   5.972   3.119  0.00  0.00    +0.044 C 
ATOM     12  C   UNL     1       7.721   4.620   2.662  0.00  0.00    -0.050 A 
ATOM     13  C   UNL     1       6.717   3.975   3.360  0.00  0.00    +0.005 A 
ATOM     14  C   UNL     1       6.271   2.735   2.943  0.00  0.00    +0.026 A 
ATOM     15  C   UNL     1       6.834   2.137   1.824  0.00  0.00    +0.052 A 
ATOM     16  C   UNL     1       7.846   2.784   1.129  0.00  0.00    +0.026 A 
ATOM     17  C   UNL     1       8.284   4.026   1.547  0.00  0.00    +0.005 A 
ENDBRANCH   1  15
BRANCH   5  18
ATOM     18  S   UNL     1       3.802   1.728   0.746  0.00  0.00    -0.073 S 
BRANCH  18  19
ATOM     19  C   UNL     1       2.450   0.723   0.074  0.00  0.00    +0.137 C 
ATOM     20  C   UNL     1       2.830   0.222  -1.320  0.00  0.00    +0.029 C 
BRANCH  19  21
ATOM     21  C   UNL     1       1.199   1.559  -0.016  0.00  0.00    +0.230 C 
ATOM     22  O   UNL     1       1.282   2.765  -0.110  0.00  0.00    -0.274 OA
ATOM     23  N   UNL     1      -0.011   0.966   0.007  0.00  0.00    -0.284 N 
ATOM     24  H   UNL     1      -0.086  -0.132   0.023  0.00  0.00    +0.155 HD
BRANCH  23  25
ATOM     25  C   UNL     1      -1.169   1.744   0.013  0.00  0.00    +0.043 A 
ATOM     26  C   UNL     1      -1.210   2.935  -0.681  0.00  0.00    +0.024 A 
ATOM     27  C   UNL     1      -2.364   3.713  -0.686  0.00  0.00    +0.004 A 
ATOM     28  C   UNL     1      -3.476   3.329   0.001  0.00  0.00    +0.028 A 
ATOM     29  C   UNL     1      -3.474   2.125   0.726  0.00  0.00    +0.073 A 
ATOM     30  C   UNL     1      -2.307   1.323   0.732  0.00  0.00    +0.022 A 
ATOM     31  C   UNL     1      -2.309   0.119   1.458  0.00  0.00    +0.013 A 
ATOM     32  C   UNL     1      -3.447  -0.226   2.131  0.00  0.00    +0.020 A 
ATOM     33  C   UNL     1      -4.561   0.608   2.085  0.00  0.00    +0.111 A 
ATOM     34  N   UNL     1      -4.555   1.730   1.407  0.00  0.00    -0.255 NA
ENDBRANCH  23  25
ENDBRANCH  19  21
ENDBRANCH  18  19
ENDBRANCH   5  18
TORSDOF 5
