REMARK  Name = ZINC40732863
REMARK  3 active torsions:
REMARK  status: ('A' for Active; 'I' for Inactive)
REMARK    1  A    between atoms: C_1  and  C_2
REMARK    2  A    between atoms: C_9  and  N_20
REMARK    3  A    between atoms: C_10  and  N_14
REMARK                            x       y       z     vdW  Elec       q    Type
REMARK                         _______ _______ _______ _____ _____    ______ ____
ROOT
ATOM      1  C   UNL     1      -1.180  -0.209  -2.426  0.00  0.00    +0.007 C 
ATOM      2  C   UNL     1      -0.548  -0.875  -1.202  0.00  0.00    -0.011 C 
ATOM      3  C   UNL     1      -0.552  -2.393  -1.388  0.00  0.00    +0.022 C 
ATOM      4  C   UNL     1       0.113  -3.054  -0.176  0.00  0.00    +0.107 C 
ATOM      5  N   UNL     1      -0.565  -2.594   1.044  0.00  0.00    -0.314 N 
ATOM      6  C   UNL     1      -0.697  -1.149   1.276  0.00  0.00    +0.107 C 
ATOM      7  C   UNL     1      -1.353  -0.510   0.048  0.00  0.00    +0.022 C 
ATOM      8  C   UNL     1      -1.071  -3.508   1.960  0.00  0.00    +0.147 A 
ATOM      9  C   UNL     1      -0.256  -4.028   2.968  0.00  0.00    +0.106 A 
ATOM     10  C   UNL     1      -0.815  -4.942   3.862  0.00  0.00    +0.150 A 
ATOM     11  N   UNL     1      -2.094  -5.281   3.721  0.00  0.00    -0.219 NA
ATOM     12  C   UNL     1      -2.829  -4.767   2.756  0.00  0.00    +0.225 A 
ATOM     13  N   UNL     1      -2.342  -3.897   1.894  0.00  0.00    -0.219 NA
ENDROOT
BRANCH  10  14
ATOM     14  N   UNL     1      -0.047  -5.491   4.883  0.00  0.00    -0.277 N 
ATOM     15  C   UNL     1      -0.613  -6.399   5.766  0.00  0.00    +0.163 A 
ATOM     16  N   UNL     1      -1.846  -6.858   5.787  0.00  0.00    -0.233 NA
ATOM     17  C   UNL     1      -2.234  -7.728   6.702  0.00  0.00    +0.120 A 
ATOM     18  C   UNL     1      -1.309  -8.121   7.611  0.00  0.00    +0.068 A 
ATOM     19  S   UNL     1       0.111  -7.186   7.066  0.00  0.00    -0.061 S 
ATOM     20  H   UNL     1       0.885  -5.239   4.979  0.00  0.00    +0.156 HD
ENDBRANCH  10  14
BRANCH   9  21
ATOM     21  N   UNL     1       1.090  -3.642   3.078  0.00  0.00    -0.353 N 
ATOM     22  H   UNL     1       1.441  -2.940   2.508  0.00  0.00    +0.143 HD
ATOM     23  H   UNL     1       1.668  -4.077   3.724  0.00  0.00    +0.143 HD
ENDBRANCH   9  21
TORSDOF 2
