REMARK  Name = ZINC06409801
REMARK  12 active torsions:
REMARK  status: ('A' for Active; 'I' for Inactive)
REMARK    1  A    between atoms: C_1  and  C_2
REMARK    2  A    between atoms: C_7  and  C_14
REMARK    3  A    between atoms: C_14  and  C_16
REMARK    4  A    between atoms: C_14  and  N_67
REMARK    5  A    between atoms: N_20  and  C_21
REMARK    6  A    between atoms: C_21  and  C_22
REMARK    7  A    between atoms: C_21  and  C_23
REMARK    8  A    between atoms: C_21  and  C_24
REMARK    9  A    between atoms: C_25  and  C_26
REMARK   10  A    between atoms: C_25  and  N_67
REMARK   11  A    between atoms: C_31  and  C_32
REMARK   12  A    between atoms: C_31  and  N_67
REMARK                            x       y       z     vdW  Elec       q    Type
REMARK                         _______ _______ _______ _____ _____    ______ ____
ROOT
ATOM      1  C   UNL     1      -2.251   3.104   6.706  0.00  0.00    +0.039 C 
ENDROOT
BRANCH   1   8
ATOM      2  C   UNL     1      -0.071   1.778  -0.851  0.00  0.00    +0.044 C 
ATOM      3  C   UNL     1      -0.702   2.005   0.499  0.00  0.00    -0.048 A 
ATOM      4  C   UNL     1      -2.084   1.976   0.624  0.00  0.00    +0.004 A 
ATOM      5  C   UNL     1      -2.676   2.174   1.840  0.00  0.00    +0.010 A 
ATOM      6  C   UNL     1      -1.882   2.418   2.966  0.00  0.00    -0.001 A 
ATOM      7  C   UNL     1      -2.484   2.640   4.282  0.00  0.00    +0.017 A 
ATOM      8  C   UNL     1      -1.665   2.872   5.337  0.00  0.00    +0.011 A 
ATOM      9  C   UNL     1      -0.265   2.898   5.159  0.00  0.00    +0.251 A 
ATOM     10  O   UNL     1       0.453   3.108   6.121  0.00  0.00    -0.268 OA
ATOM     11  N   UNL     1       0.296   2.695   3.954  0.00  0.00    -0.322 N 
ATOM     12  H   UNL     1       1.262   2.719   3.866  0.00  0.00    +0.169 HD
ATOM     13  C   UNL     1      -0.481   2.453   2.841  0.00  0.00    +0.049 A 
ATOM     14  C   UNL     1       0.100   2.244   1.594  0.00  0.00    +0.029 A 
ENDBRANCH   1   8
BRANCH   1  15
ATOM     15  C   UNL     1      -1.841   1.983   7.625  0.00  0.00    +0.143 A 
ATOM     16  N   UNL     1      -0.647   1.776   8.124  0.00  0.00    -0.115 NA
ATOM     17  N   UNL     1      -0.700   0.721   8.860  0.00  0.00    -0.023 NA
ATOM     18  N   UNL     1      -1.897   0.248   8.845  0.00  0.00    -0.043 NA
ATOM     19  N   UNL     1      -2.632   1.002   8.098  0.00  0.00    -0.225 N 
BRANCH  19  20
ATOM     20  C   UNL     1      -4.059   0.822   7.816  0.00  0.00    +0.059 C 
ATOM     21  C   UNL     1      -4.271   0.730   6.304  0.00  0.00    +0.036 C 
ATOM     22  C   UNL     1      -4.551  -0.467   8.479  0.00  0.00    +0.036 C 
ATOM     23  C   UNL     1      -4.843   2.013   8.370  0.00  0.00    +0.036 C 
ENDBRANCH  19  20
ENDBRANCH   1  15
BRANCH   1  24
ATOM     24  N   UNL     1      -1.730   4.377   7.247  0.00  0.00    +0.394 N 
ATOM     25  H   UNL     1      -0.735   4.261   7.473  0.00  0.00    -0.080 HD
BRANCH  24  26
ATOM     26  C   UNL     1      -1.870   5.449   6.239  0.00  0.00    -0.034 C 
BRANCH  26  27
ATOM     27  C   UNL     1      -1.023   6.623   6.659  0.00  0.00    -0.027 A 
ATOM     28  C   UNL     1       0.264   6.905   6.338  0.00  0.00    +0.009 A 
ATOM     29  C   UNL     1       0.843   8.055   6.843  0.00  0.00    +0.008 A 
ATOM     30  C   UNL     1       0.112   8.859   7.652  0.00  0.00    +0.045 A 
ATOM     31  S   UNL     1      -1.450   7.997   7.715  0.00  0.00    -0.103 S 
ENDBRANCH  26  27
ENDBRANCH  24  26
BRANCH  24  32
ATOM     32  C   UNL     1      -2.463   4.742   8.477  0.00  0.00    -0.045 C 
BRANCH  32  33
ATOM     33  C   UNL     1      -1.905   3.921   9.641  0.00  0.00    +0.102 C 
ATOM     34  C   UNL     1      -2.590   4.330  10.964  0.00  0.00    +0.032 C 
ATOM     35  C   UNL     1      -1.456   4.256  12.012  0.00  0.00    +0.030 C 
ATOM     36  C   UNL     1      -0.221   3.811  11.198  0.00  0.00    +0.160 C 
ATOM     37  O   UNL     1      -0.506   4.219   9.842  0.00  0.00    -0.378 OA
ENDBRANCH  32  33
ENDBRANCH  24  32
ENDBRANCH   1  24
TORSDOF 8
