REMARK  Name = ZINC02092445
REMARK  5 active torsions:
REMARK  status: ('A' for Active; 'I' for Inactive)
REMARK    1  A    between atoms: C_1  and  C_2
REMARK    2  A    between atoms: C_7  and  C_8
REMARK    3  A    between atoms: C_10  and  C_27
REMARK    4  A    between atoms: C_10  and  C_28
REMARK    5  A    between atoms: N_15  and  C_17
REMARK                            x       y       z     vdW  Elec       q    Type
REMARK                         _______ _______ _______ _____ _____    ______ ____
ROOT
ATOM      1  C   UNL     1      -1.949  12.689   0.148  0.00  0.00    +0.044 C 
ATOM      2  C   UNL     1      -2.897  11.522   0.263  0.00  0.00    -0.047 A 
ATOM      3  C   UNL     1      -2.415  10.228   0.164  0.00  0.00    +0.014 A 
ATOM      4  C   UNL     1      -3.295   9.165   0.273  0.00  0.00    +0.007 A 
ATOM      5  C   UNL     1      -4.662   9.386   0.497  0.00  0.00    +0.036 A 
ATOM      6  C   UNL     1      -5.129  10.688   0.583  0.00  0.00    +0.027 A 
ATOM      7  C   UNL     1      -4.246  11.747   0.467  0.00  0.00    -0.046 A 
ATOM      8  C   UNL     1      -4.761  13.160   0.562  0.00  0.00    +0.044 C 
ATOM      9  N   UNL     1      -5.540   8.308   0.645  0.00  0.00    -0.334 N 
ATOM     10  C   UNL     1      -5.270   7.022  -0.018  0.00  0.00    +0.060 C 
ATOM     11  C   UNL     1      -3.798   6.767   0.028  0.00  0.00    +0.040 A 
ATOM     12  C   UNL     1      -2.833   7.750   0.155  0.00  0.00    +0.029 A 
ATOM     13  C   UNL     1      -1.522   7.281   0.146  0.00  0.00    +0.106 A 
ATOM     14  S   UNL     1      -0.200   8.362   0.261  0.00  0.00    -0.031 S 
ATOM     15  N   UNL     1      -1.323   5.949   0.045  0.00  0.00    -0.272 N 
ATOM     16  S   UNL     1      -2.905   5.308  -0.068  0.00  0.00    -0.008 S 
ATOM     17  C   UNL     1      -6.010   5.900   0.713  0.00  0.00    +0.037 C 
ATOM     18  C   UNL     1      -5.737   7.085  -1.474  0.00  0.00    +0.037 C 
ATOM     19  H   UNL     1      -6.336   8.409   1.191  0.00  0.00    +0.147 HD
ENDROOT
BRANCH  15  20
ATOM     20  C   UNL     1      -0.111   5.259   0.030  0.00  0.00    +0.062 A 
ATOM     21  C   UNL     1       0.889   5.628  -0.846  0.00  0.00    +0.027 A 
ATOM     22  C   UNL     1       2.101   4.946  -0.869  0.00  0.00    +0.003 A 
ATOM     23  C   UNL     1       2.335   3.899  -0.030  0.00  0.00    +0.008 A 
ATOM     24  C   UNL     1       1.342   3.491   0.877  0.00  0.00    -0.016 A 
ATOM     25  C   UNL     1       0.103   4.177   0.910  0.00  0.00    +0.007 A 
ATOM     26  C   UNL     1      -0.888   3.768   1.816  0.00  0.00    +0.010 A 
ATOM     27  C   UNL     1      -0.648   2.716   2.647  0.00  0.00    +0.001 A 
ATOM     28  C   UNL     1       0.572   2.044   2.619  0.00  0.00    +0.001 A 
ATOM     29  C   UNL     1       1.556   2.413   1.754  0.00  0.00    +0.008 A 
ENDBRANCH  15  20
TORSDOF 1
