REMARK  Name = ZINC32916213
REMARK  4 active torsions:
REMARK  status: ('A' for Active; 'I' for Inactive)
REMARK    1  A    between atoms: C_4  and  C_7
REMARK    2  A    between atoms: C_12  and  N_23
REMARK    3  A    between atoms: C_14  and  C_16
REMARK    4  A    between atoms: C_16  and  N_17
REMARK                            x       y       z     vdW  Elec       q    Type
REMARK                         _______ _______ _______ _____ _____    ______ ____
ROOT
ATOM      1  C   UNL     1      -2.370   4.215   4.141  0.00  0.00    +0.002 A 
ATOM      2  C   UNL     1      -1.434   4.800   4.925  0.00  0.00    +0.056 A 
ATOM      3  S   UNL     1       0.084   4.018   4.415  0.00  0.00    -0.076 S 
ATOM      4  C   UNL     1      -0.563   2.932   3.171  0.00  0.00    +0.114 A 
ATOM      5  C   UNL     1      -1.947   3.201   3.180  0.00  0.00    +0.055 A 
ATOM      6  C   UNL     1      -2.721   2.450   2.256  0.00  0.00    +0.134 A 
ATOM      7  N   UNL     1      -2.115   1.576   1.467  0.00  0.00    -0.219 NA
ATOM      8  C   UNL     1      -0.812   1.370   1.516  0.00  0.00    +0.116 A 
ATOM      9  N   UNL     1      -0.042   2.038   2.353  0.00  0.00    -0.227 NA
ENDROOT
BRANCH   6  10
ATOM     10  N   UNL     1      -4.090   2.632   2.178  0.00  0.00    -0.309 N 
ATOM     11  C   UNL     1      -4.808   1.458   2.693  0.00  0.00    +0.113 C 
ATOM     12  C   UNL     1      -6.277   1.803   2.951  0.00  0.00    +0.075 C 
ATOM     13  C   UNL     1      -6.846   2.437   1.685  0.00  0.00    +0.057 A 
ATOM     14  C   UNL     1      -5.995   2.928   0.746  0.00  0.00    +0.031 A 
ATOM     15  S   UNL     1      -7.099   3.538  -0.497  0.00  0.00    -0.056 S 
ATOM     16  C   UNL     1      -8.581   3.108   0.305  0.00  0.00    +0.156 A 
ATOM     17  N   UNL     1      -8.143   2.552   1.417  0.00  0.00    -0.230 NA
ATOM     18  N   UNL     1      -9.887   3.301  -0.116  0.00  0.00    -0.338 N 
ATOM     19  C   UNL     1      -4.506   2.931   0.793  0.00  0.00    +0.150 C 
ATOM     20  H   UNL     1     -10.724   2.967   0.515  0.00  0.00    +0.144 HD
ATOM     21  H   UNL     1     -10.087   3.788  -1.082  0.00  0.00    +0.144 HD
ENDBRANCH   6  10
BRANCH   1  25
ATOM     22  C   UNL     1      -6.464   5.309   4.472  0.00  0.00    +0.000 A 
ATOM     23  C   UNL     1      -5.782   4.848   5.584  0.00  0.00    +0.001 A 
ATOM     24  C   UNL     1      -4.453   4.491   5.482  0.00  0.00    +0.008 A 
ATOM     25  C   UNL     1      -3.797   4.596   4.256  0.00  0.00    -0.017 A 
ATOM     26  C   UNL     1      -4.489   5.068   3.141  0.00  0.00    +0.008 A 
ATOM     27  C   UNL     1      -5.819   5.415   3.253  0.00  0.00    +0.001 A 
ENDBRANCH   1  25
BRANCH   8  28
ATOM     28  C   UNL     1      -0.190   0.355   0.593  0.00  0.00    -0.001 C 
BRANCH  28  29
ATOM     29  N   UNL     1      -0.174  -0.960   1.249  0.00  0.00    +0.384 N 
ATOM     30  C   UNL     1       0.714  -0.953   2.418  0.00  0.00    -0.078 C 
ATOM     31  C   UNL     1       0.595  -2.287   3.159  0.00  0.00    -0.019 C 
ATOM     32  C   UNL     1       0.976  -3.427   2.210  0.00  0.00    -0.004 C 
ATOM     33  C   UNL     1       0.068  -3.382   0.979  0.00  0.00    -0.019 C 
ATOM     34  C   UNL     1       0.202  -2.016   0.301  0.00  0.00    -0.078 C 
ATOM     35  H   UNL     1      -1.193  -1.175   1.603  0.00  0.00    -0.081 HD
ENDBRANCH  28  29
ENDBRANCH   8  28
TORSDOF 4
