REMARK  Name = ZINC23380340
REMARK  10 active torsions:
REMARK  status: ('A' for Active; 'I' for Inactive)
REMARK    1  A    between atoms: C_1  and  N_2
REMARK    2  A    between atoms: N_2  and  C_3
REMARK    3  A    between atoms: N_2  and  C_12
REMARK    4  A    between atoms: C_3  and  C_4
REMARK    5  A    between atoms: C_4  and  C_5
REMARK    6  A    between atoms: C_12  and  C_13
REMARK    7  A    between atoms: C_16  and  C_19
REMARK    8  A    between atoms: C_25  and  C_27
REMARK    9  A    between atoms: C_27  and  C_28
REMARK   10  A    between atoms: C_28  and  N_29
REMARK                            x       y       z     vdW  Elec       q    Type
REMARK                         _______ _______ _______ _____ _____    ______ ____
ROOT
ATOM      1  C   UNL     1       4.848  -0.436  -0.045  0.00  0.00    -0.064 A 
ATOM      2  C   UNL     1       4.844   0.948  -0.038  0.00  0.00    +0.002 A 
ATOM      3  C   UNL     1       3.649   1.637  -0.024  0.00  0.00    +0.012 A 
ATOM      4  C   UNL     1       2.442   0.935  -0.016  0.00  0.00    +0.017 A 
ATOM      5  C   UNL     1       2.454  -0.461  -0.017  0.00  0.00    +0.012 A 
ATOM      6  C   UNL     1       3.656  -1.138  -0.038  0.00  0.00    +0.002 A 
ENDROOT
BRANCH   4   7
ATOM      7  C   UNL     1       1.158   1.666  -0.000  0.00  0.00    +0.141 A 
ATOM      8  N   UNL     1      -0.011   0.966   0.007  0.00  0.00    -0.307 N 
ATOM      9  H   UNL     1       0.006  -0.134   0.006  0.00  0.00    +0.170 HD
ATOM     10  C   UNL     1      -1.188   1.628   0.017  0.00  0.00    +0.252 A 
ATOM     11  O   UNL     1      -2.244   1.018   0.018  0.00  0.00    -0.268 OA
ATOM     12  C   UNL     1      -1.171   3.037   0.029  0.00  0.00    +0.093 A 
ATOM     13  C   UNL     1       0.030   3.681   0.022  0.00  0.00    +0.047 A 
ATOM     14  N   UNL     1       1.164   2.983   0.007  0.00  0.00    -0.234 NA
BRANCH  13  15
ATOM     15  C   UNL     1       0.075   5.188   0.029  0.00  0.00    +0.036 C 
BRANCH  15  16
ATOM     16  C   UNL     1       0.230   5.686   1.468  0.00  0.00    -0.080 C 
BRANCH  16  17
ATOM     17  N   UNL     1       0.274   7.154   1.475  0.00  0.00    +0.378 N 
ATOM     18  H   UNL     1       0.386   7.512   2.509  0.00  0.00    -0.090 HD
ATOM     19  H   UNL     1      -0.658   7.551   1.048  0.00  0.00    -0.090 HD
ATOM     20  H   UNL     1       1.129   7.499   0.874  0.00  0.00    -0.090 HD
ENDBRANCH  16  17
ENDBRANCH  15  16
ENDBRANCH  13  15
ENDBRANCH   4   7
BRANCH   1  21
ATOM     21  C   UNL     1       6.157  -1.181  -0.062  0.00  0.00    -0.043 C 
BRANCH  21  23
ATOM     22  C   UNL     1       6.920  -0.172   2.003  0.00  0.00    -0.096 C 
ATOM     23  N   UNL     1       6.596  -1.431   1.317  0.00  0.00    +0.381 N 
ATOM     24  H   UNL     1       5.763  -1.905   1.857  0.00  0.00    -0.082 HD
BRANCH  23  25
ATOM     25  C   UNL     1       7.738  -2.355   1.348  0.00  0.00    -0.076 C 
BRANCH  25  26
ATOM     26  C   UNL     1       8.008  -2.785   2.791  0.00  0.00    +0.013 C 
BRANCH  26  27
ATOM     27  C   UNL     1       9.197  -3.748   2.823  0.00  0.00    +0.117 C 
ATOM     28  C   UNL     1       9.546  -4.081   4.276  0.00  0.00    +0.031 C 
ATOM     29  C   UNL     1      10.697  -5.091   4.297  0.00  0.00    +0.005 C 
ATOM     30  C   UNL     1      10.288  -6.332   3.499  0.00  0.00    +0.028 C 
ATOM     31  C   UNL     1       9.910  -5.912   2.076  0.00  0.00    +0.160 C 
ATOM     32  O   UNL     1       8.855  -4.950   2.129  0.00  0.00    -0.377 OA
ENDBRANCH  26  27
ENDBRANCH  25  26
ENDBRANCH  23  25
ENDBRANCH  21  23
ENDBRANCH   1  21
TORSDOF 9
