REMARK  Name = ZINC06462257
REMARK  16 active torsions:
REMARK  status: ('A' for Active; 'I' for Inactive)
REMARK    1  A    between atoms: C_1  and  C_2
REMARK    2  A    between atoms: C_2  and  C_3
REMARK    3  A    between atoms: C_3  and  C_4
REMARK    4  A    between atoms: C_3  and  C_5
REMARK    5  A    between atoms: C_3  and  N_6
REMARK    6  A    between atoms: C_7  and  C_9
REMARK    7  A    between atoms: C_9  and  C_11
REMARK    8  A    between atoms: C_9  and  N_17
REMARK    9  A    between atoms: C_14  and  C_16
REMARK   10  A    between atoms: N_17  and  C_18
REMARK   11  A    between atoms: C_18  and  C_19
REMARK   12  A    between atoms: C_22  and  O_25
REMARK   13  A    between atoms: O_25  and  C_26
REMARK   14  A    between atoms: C_27  and  C_29
REMARK   15  A    between atoms: C_30  and  N_37
REMARK   16  A    between atoms: C_31  and  C_34
REMARK                            x       y       z     vdW  Elec       q    Type
REMARK                         _______ _______ _______ _____ _____    ______ ____
ROOT
ATOM      1  N   UNL     1      -2.220   1.537   0.878  0.00  0.00    -0.275 N 
ATOM      2  C   UNL     1      -2.630   0.255   0.804  0.00  0.00    +0.258 C 
ATOM      3  O   UNL     1      -2.151  -0.490  -0.031  0.00  0.00    -0.269 OA
ENDROOT
BRANCH   2   4
ATOM      4  C   UNL     1      -3.651  -0.242   1.729  0.00  0.00    +0.115 A 
ATOM      5  C   UNL     1      -4.216  -1.514   1.822  0.00  0.00    +0.076 A 
ATOM      6  C   UNL     1      -5.166  -1.604   2.840  0.00  0.00    +0.155 A 
ATOM      7  N   UNL     1      -5.425  -0.544   3.573  0.00  0.00    -0.203 NA
ATOM      8  S   UNL     1      -4.497   0.614   3.041  0.00  0.00    +0.019 S 
BRANCH   6   9
ATOM      9  C   UNL     1      -5.873  -2.873   3.090  0.00  0.00    +0.262 C 
ATOM     10  O   UNL     1      -5.629  -3.850   2.407  0.00  0.00    -0.269 OA
ATOM     11  N   UNL     1      -6.789  -2.952   4.075  0.00  0.00    -0.324 N 
ATOM     12  H   UNL     1      -6.984  -2.173   4.619  0.00  0.00    +0.145 HD
ATOM     13  H   UNL     1      -7.254  -3.787   4.239  0.00  0.00    +0.145 HD
ENDBRANCH   6   9
BRANCH   5  14
ATOM     14  N   UNL     1      -3.872  -2.574   0.993  0.00  0.00    -0.355 N 
ATOM     15  H   UNL     1      -3.203  -2.451   0.301  0.00  0.00    +0.142 HD
ATOM     16  H   UNL     1      -4.301  -3.437   1.105  0.00  0.00    +0.142 HD
ENDBRANCH   5  14
ENDBRANCH   2   4
BRANCH   1  17
ATOM     17  C   UNL     1      -1.111   2.001   0.041  0.00  0.00    +0.229 C 
BRANCH  17  18
ATOM     18  C   UNL     1       0.128   1.204   0.362  0.00  0.00    +0.135 A 
ATOM     19  C   UNL     1       1.378   1.694   0.447  0.00  0.00    +0.047 A 
ATOM     20  C   UNL     1       2.223   0.605   0.760  0.00  0.00    +0.045 A 
ATOM     21  C   UNL     1       1.440  -0.484   0.849  0.00  0.00    +0.102 A 
ATOM     22  O   UNL     1       0.171  -0.115   0.607  0.00  0.00    -0.462 OA
ATOM     23  C   UNL     1       1.906  -1.882   1.166  0.00  0.00    +0.086 C 
ENDBRANCH  17  18
BRANCH  17  25
ATOM     24  N   UNL     1      -0.589   2.174  -2.371  0.00  0.00    -0.308 N 
ATOM     25  C   UNL     1      -1.465   1.815  -1.412  0.00  0.00    +0.242 C 
ATOM     26  O   UNL     1      -2.539   1.341  -1.718  0.00  0.00    -0.273 OA
ATOM     27  H   UNL     1       0.270   2.553  -2.126  0.00  0.00    +0.149 HD
BRANCH  24  28
ATOM     28  C   UNL     1      -0.933   1.993  -3.783  0.00  0.00    +0.029 C 
ATOM     29  C   UNL     1      -1.195   0.511  -4.058  0.00  0.00    +0.031 C 
ATOM     30  C   UNL     1      -2.191   2.802  -4.109  0.00  0.00    +0.031 C 
BRANCH  28  32
ATOM     31  C   UNL     1      -0.135   2.288  -6.132  0.00  0.00    +0.006 C 
ATOM     32  C   UNL     1       0.225   2.477  -4.657  0.00  0.00    +0.022 C 
ENDBRANCH  28  32
ENDBRANCH  24  28
ENDBRANCH  17  25
ENDBRANCH   1  17
BRANCH   1  33
ATOM     33  C   UNL     1      -2.885   2.467   1.794  0.00  0.00    +0.144 C 
BRANCH  33  34
ATOM     34  C   UNL     1      -4.048   3.119   1.092  0.00  0.00    -0.030 A 
ATOM     35  C   UNL     1      -3.909   4.387   0.558  0.00  0.00    +0.009 A 
ATOM     36  C   UNL     1      -4.972   4.984  -0.091  0.00  0.00    +0.046 A 
ATOM     37  C   UNL     1      -6.183   4.316  -0.197  0.00  0.00    +0.120 A 
ATOM     38  C   UNL     1      -6.322   3.046   0.345  0.00  0.00    +0.046 A 
ATOM     39  C   UNL     1      -5.254   2.451   0.988  0.00  0.00    +0.009 A 
BRANCH  37  40
ATOM     40  O   UNL     1      -7.232   4.904  -0.830  0.00  0.00    -0.495 OA
ATOM     41  C   UNL     1      -7.017   6.212  -1.364  0.00  0.00    +0.277 C 
ENDBRANCH  37  40
ENDBRANCH  33  34
ENDBRANCH   1  33
TORSDOF 11
