REMARK  Name = ZINC17245860
REMARK  9 active torsions:
REMARK  status: ('A' for Active; 'I' for Inactive)
REMARK    1  A    between atoms: C_1  and  C_2
REMARK    2  A    between atoms: C_2  and  C_3
REMARK    3  A    between atoms: C_3  and  N_4
REMARK    4  A    between atoms: N_11  and  C_14
REMARK    5  A    between atoms: C_14  and  C_15
REMARK    6  A    between atoms: C_15  and  O_17
REMARK    7  A    between atoms: O_17  and  C_18
REMARK    8  A    between atoms: C_18  and  C_19
REMARK    9  A    between atoms: N_21  and  C_22
REMARK                            x       y       z     vdW  Elec       q    Type
REMARK                         _______ _______ _______ _____ _____    ______ ____
ROOT
ATOM      1  C   UNL     1       3.590   6.110   0.676  0.00  0.00    +0.255 C 
ATOM      2  O   UNL     1       4.634   5.553   0.413  0.00  0.00    -0.272 OA
ATOM      3  N   UNL     1       2.426   5.437   0.586  0.00  0.00    -0.282 N 
ATOM      4  H   UNL     1       1.586   5.900   0.732  0.00  0.00    +0.155 HD
ENDROOT
BRANCH   3   5
ATOM      5  C   UNL     1       2.429   4.080   0.285  0.00  0.00    +0.045 A 
ATOM      6  C   UNL     1       3.382   3.557  -0.589  0.00  0.00    +0.024 A 
ATOM      7  C   UNL     1       3.389   2.212  -0.891  0.00  0.00    +0.003 A 
ATOM      8  C   UNL     1       2.449   1.358  -0.332  0.00  0.00    +0.012 A 
ATOM      9  C   UNL     1       1.491   1.857   0.542  0.00  0.00    +0.035 A 
ATOM     10  C   UNL     1       1.476   3.230   0.856  0.00  0.00    +0.054 A 
ATOM     11  C   UNL     1       0.457   3.759   1.781  0.00  0.00    +0.196 C 
ATOM     12  O   UNL     1       0.575   4.872   2.255  0.00  0.00    -0.287 OA
ATOM     13  C   UNL     1      -0.711   2.918   2.127  0.00  0.00    +0.033 A 
ATOM     14  C   UNL     1      -1.820   3.472   2.756  0.00  0.00    +0.012 A 
ATOM     15  C   UNL     1      -2.914   2.671   3.054  0.00  0.00    +0.001 A 
ATOM     16  C   UNL     1      -2.900   1.322   2.747  0.00  0.00    +0.001 A 
ATOM     17  C   UNL     1      -1.801   0.755   2.127  0.00  0.00    +0.012 A 
ATOM     18  C   UNL     1      -0.701   1.546   1.809  0.00  0.00    +0.033 A 
ATOM     19  C   UNL     1       0.483   0.958   1.145  0.00  0.00    +0.195 C 
ATOM     20  O   UNL     1       0.623  -0.247   1.092  0.00  0.00    -0.287 OA
ENDBRANCH   3   5
BRANCH   1  21
ATOM     21  C   UNL     1       3.594   7.555   1.105  0.00  0.00    +0.328 C 
BRANCH  21  22
ATOM     22  O   UNL     1       4.958   8.051   1.124  0.00  0.00    -0.454 OA
BRANCH  22  23
ATOM     23  C   UNL     1       5.137   9.331   1.487  0.00  0.00    +0.328 C 
ATOM     24  O   UNL     1       4.185  10.014   1.779  0.00  0.00    -0.249 OA
BRANCH  23  25
ATOM     25  C   UNL     1       6.526   9.915   1.530  0.00  0.00    +0.247 C 
BRANCH  25  33
ATOM     26  N   UNL     1       6.285  13.509   1.868  0.00  0.00    -0.292 N 
ATOM     27  C   UNL     1       6.408  13.166   3.212  0.00  0.00    +0.070 A 
ATOM     28  C   UNL     1       6.439  13.907   4.384  0.00  0.00    +0.028 A 
ATOM     29  C   UNL     1       6.574  13.265   5.599  0.00  0.00    +0.002 A 
ATOM     30  C   UNL     1       6.679  11.886   5.653  0.00  0.00    +0.002 A 
ATOM     31  C   UNL     1       6.650  11.140   4.491  0.00  0.00    +0.028 A 
ATOM     32  C   UNL     1       6.514  11.775   3.266  0.00  0.00    +0.070 A 
ATOM     33  N   UNL     1       6.453  11.316   1.952  0.00  0.00    -0.281 N 
ATOM     34  C   UNL     1       6.322  12.379   1.137  0.00  0.00    +0.331 A 
ATOM     35  O   UNL     1       6.244  12.326  -0.076  0.00  0.00    -0.246 OA
BRANCH  26  36
ATOM     36  C   UNL     1       6.147  14.868   1.339  0.00  0.00    +0.127 C 
BRANCH  36  38
ATOM     37  C   UNL     1       7.390  16.866   0.498  0.00  0.00    +0.005 C 
ATOM     38  C   UNL     1       7.534  15.447   1.051  0.00  0.00    +0.018 C 
ENDBRANCH  36  38
ENDBRANCH  26  36
ENDBRANCH  25  33
ENDBRANCH  23  25
ENDBRANCH  22  23
ENDBRANCH  21  22
ENDBRANCH   1  21
TORSDOF 8
