REMARK  Name = ZINC13065230
REMARK  12 active torsions:
REMARK  status: ('A' for Active; 'I' for Inactive)
REMARK    1  A    between atoms: C_1  and  C_2
REMARK    2  A    between atoms: C_2  and  C_3
REMARK    3  A    between atoms: C_3  and  C_5
REMARK    4  A    between atoms: C_3  and  N_70
REMARK    5  A    between atoms: N_9  and  C_10
REMARK    6  A    between atoms: C_10  and  C_11
REMARK    7  A    between atoms: C_17  and  C_18
REMARK    8  A    between atoms: C_17  and  N_70
REMARK    9  A    between atoms: C_21  and  C_31
REMARK   10  A    between atoms: C_24  and  C_30
REMARK   11  A    between atoms: C_32  and  C_33
REMARK   12  A    between atoms: C_32  and  N_70
REMARK                            x       y       z     vdW  Elec       q    Type
REMARK                         _______ _______ _______ _____ _____    ______ ____
ROOT
ATOM      1  N   UNL     1      -3.342   4.612  -1.025  0.00  0.00    +0.391 N 
ATOM      2  H   UNL     1      -2.850   4.743  -1.917  0.00  0.00    -0.080 HD
ENDROOT
BRANCH   1   3
ATOM      3  C   UNL     1      -4.746   5.045  -1.183  0.00  0.00    +0.003 C 
BRANCH   3   4
ATOM      4  C   UNL     1      -5.411   5.181   0.162  0.00  0.00    +0.138 A 
ATOM      5  N   UNL     1      -4.881   5.684   1.250  0.00  0.00    -0.115 NA
ATOM      6  N   UNL     1      -5.764   5.626   2.187  0.00  0.00    -0.023 NA
ATOM      7  N   UNL     1      -6.841   5.093   1.726  0.00  0.00    -0.044 NA
ATOM      8  N   UNL     1      -6.663   4.804   0.482  0.00  0.00    -0.226 N 
BRANCH   8   9
ATOM      9  C   UNL     1      -7.641   4.183  -0.416  0.00  0.00    +0.182 C 
BRANCH   9  10
ATOM     10  C   UNL     1      -7.783   2.723  -0.070  0.00  0.00    -0.026 A 
ATOM     11  C   UNL     1      -6.995   1.782  -0.706  0.00  0.00    +0.005 A 
ATOM     12  C   UNL     1      -7.121   0.444  -0.386  0.00  0.00    +0.000 A 
ATOM     13  C   UNL     1      -8.044   0.045   0.563  0.00  0.00    +0.000 A 
ATOM     14  C   UNL     1      -8.836   0.985   1.195  0.00  0.00    +0.000 A 
ATOM     15  C   UNL     1      -8.706   2.324   0.878  0.00  0.00    +0.005 A 
ENDBRANCH   9  10
ENDBRANCH   8   9
ENDBRANCH   3   4
BRANCH   3  17
ATOM     16  C   UNL     1      -4.248   6.223  -3.329  0.00  0.00    +0.002 C 
ATOM     17  C   UNL     1      -4.766   6.397  -1.900  0.00  0.00    -0.011 C 
ENDBRANCH   3  17
ENDBRANCH   1   3
BRANCH   1  18
ATOM     18  C   UNL     1      -2.676   5.425   0.014  0.00  0.00    -0.036 C 
BRANCH  18  19
ATOM     19  C   UNL     1      -1.185   5.335  -0.185  0.00  0.00    +0.001 A 
ATOM     20  C   UNL     1      -0.543   6.282  -0.912  0.00  0.00    +0.017 A 
ATOM     21  C   UNL     1       0.906   6.166  -1.087  0.00  0.00    +0.002 A 
ATOM     22  C   UNL     1       1.624   7.112  -1.825  0.00  0.00    -0.041 A 
ATOM     23  C   UNL     1       2.976   6.976  -1.970  0.00  0.00    +0.004 A 
ATOM     24  C   UNL     1       3.643   5.906  -1.389  0.00  0.00    +0.005 A 
ATOM     25  C   UNL     1       2.957   4.961  -0.658  0.00  0.00    -0.026 A 
ATOM     26  C   UNL     1       1.580   5.080  -0.497  0.00  0.00    +0.052 A 
ATOM     27  N   UNL     1       0.868   4.150   0.231  0.00  0.00    -0.322 N 
ATOM     28  H   UNL     1       1.334   3.402   0.636  0.00  0.00    +0.169 HD
ATOM     29  C   UNL     1      -0.463   4.263   0.382  0.00  0.00    +0.251 A 
ATOM     30  O   UNL     1      -1.061   3.420   1.028  0.00  0.00    -0.268 OA
ATOM     31  C   UNL     1       3.694   3.805  -0.033  0.00  0.00    +0.046 C 
ATOM     32  C   UNL     1       0.910   8.278  -2.459  0.00  0.00    +0.044 C 
ENDBRANCH  18  19
ENDBRANCH   1  18
BRANCH   1  33
ATOM     33  C   UNL     1      -3.294   3.181  -0.656  0.00  0.00    -0.045 C 
BRANCH  33  34
ATOM     34  C   UNL     1      -3.620   2.343  -1.894  0.00  0.00    +0.102 C 
ATOM     35  C   UNL     1      -3.518   0.837  -1.566  0.00  0.00    +0.032 C 
ATOM     36  C   UNL     1      -2.919   0.214  -2.847  0.00  0.00    +0.030 C 
ATOM     37  C   UNL     1      -2.730   1.417  -3.797  0.00  0.00    +0.160 C 
ATOM     38  O   UNL     1      -2.633   2.564  -2.925  0.00  0.00    -0.378 OA
ENDBRANCH  33  34
ENDBRANCH   1  33
TORSDOF 9
