REMARK  Name = ZINC09662199
REMARK  5 active torsions:
REMARK  status: ('A' for Active; 'I' for Inactive)
REMARK    1  A    between atoms: C_3  and  N_17
REMARK    2  A    between atoms: C_6  and  C_7
REMARK    3  A    between atoms: C_18  and  C_20
REMARK    4  A    between atoms: C_22  and  N_32
REMARK    5  A    between atoms: C_25  and  N_26
REMARK                            x       y       z     vdW  Elec       q    Type
REMARK                         _______ _______ _______ _____ _____    ______ ____
ROOT
ATOM      1  N   UNL     1       2.383   5.303   0.007  0.00  0.00    -0.281 N 
ATOM      2  C   UNL     1       2.420   3.974  -0.212  0.00  0.00    +0.250 C 
ATOM      3  O   UNL     1       3.484   3.421  -0.419  0.00  0.00    -0.270 OA
ATOM      4  H   UNL     1       1.530   5.756   0.097  0.00  0.00    +0.155 HD
ENDROOT
BRANCH   1   7
ATOM      5  C   UNL     1       4.763   8.098  -0.125  0.00  0.00    +0.013 A 
ATOM      6  C   UNL     1       3.591   7.380  -0.221  0.00  0.00    +0.024 A 
ATOM      7  C   UNL     1       3.573   6.028   0.106  0.00  0.00    +0.034 A 
ATOM      8  C   UNL     1       4.736   5.399   0.536  0.00  0.00    +0.024 A 
ATOM      9  C   UNL     1       5.912   6.110   0.629  0.00  0.00    +0.013 A 
ATOM     10  C   UNL     1       5.933   7.467   0.301  0.00  0.00    +0.019 A 
BRANCH  10  11
ATOM     11  C   UNL     1       7.193   8.234   0.405  0.00  0.00    +0.164 A 
ATOM     12  N   UNL     1       7.463   9.383  -0.179  0.00  0.00    -0.129 NA
ATOM     13  N   UNL     1       8.650   9.765   0.140  0.00  0.00    -0.134 NA
ATOM     14  C   UNL     1       9.201   8.889   0.933  0.00  0.00    +0.134 A 
ATOM     15  N   UNL     1       8.302   7.886   1.120  0.00  0.00    -0.311 N 
ATOM     16  C   UNL     1       8.500   6.676   1.919  0.00  0.00    +0.125 C 
ATOM     17  C   UNL     1       9.499   6.969   3.042  0.00  0.00    +0.022 C 
ATOM     18  C   UNL     1      10.920   6.695   2.552  0.00  0.00    +0.002 C 
ATOM     19  C   UNL     1      11.268   7.605   1.378  0.00  0.00    +0.008 C 
ATOM     20  C   UNL     1      10.573   8.958   1.553  0.00  0.00    +0.076 C 
ENDBRANCH  10  11
ENDBRANCH   1   7
BRANCH   2  21
ATOM     21  C   UNL     1       1.172   3.190  -0.201  0.00  0.00    +0.060 A 
ATOM     22  C   UNL     1      -0.052   3.820   0.037  0.00  0.00    +0.047 A 
ATOM     23  C   UNL     1      -1.215   3.082   0.047  0.00  0.00    +0.127 A 
ATOM     24  C   UNL     1      -1.179   1.716  -0.184  0.00  0.00    +0.034 A 
ATOM     25  C   UNL     1       0.022   1.077  -0.415  0.00  0.00    +0.026 A 
ATOM     26  C   UNL     1       1.206   1.805  -0.428  0.00  0.00    +0.042 A 
BRANCH  26  27
ATOM     27  N   UNL     1       2.416   1.166  -0.665  0.00  0.00    -0.329 N 
ATOM     28  C   UNL     1       2.454   0.598  -2.019  0.00  0.00    +0.105 C 
ATOM     29  C   UNL     1       3.849   0.031  -2.296  0.00  0.00    +0.019 C 
ATOM     30  C   UNL     1       4.170  -1.049  -1.260  0.00  0.00    +0.003 C 
ATOM     31  C   UNL     1       4.076  -0.444   0.143  0.00  0.00    +0.019 C 
ATOM     32  C   UNL     1       2.675   0.137   0.350  0.00  0.00    +0.105 C 
ENDBRANCH  26  27
BRANCH  23  33
ATOM     33  N   UNL     1      -2.510   3.752   0.298  0.00  0.00    +0.056 N 
ATOM     34  O   UNL     1      -2.546   4.954   0.496  0.00  0.00    -0.126 OA
ATOM     35  O   UNL     1      -3.541   3.103   0.307  0.00  0.00    -0.126 OA
ENDBRANCH  23  33
ENDBRANCH   2  21
TORSDOF 5
