REMARK  Name = ZINC24904231
REMARK  7 active torsions:
REMARK  status: ('A' for Active; 'I' for Inactive)
REMARK    1  A    between atoms: C_3  and  C_9
REMARK    2  A    between atoms: C_5  and  C_7
REMARK    3  A    between atoms: C_9  and  N_10
REMARK    4  A    between atoms: N_10  and  C_11
REMARK    5  A    between atoms: C_14  and  N_17
REMARK    6  A    between atoms: C_22  and  C_33
REMARK    7  A    between atoms: C_25  and  C_28
REMARK                            x       y       z     vdW  Elec       q    Type
REMARK                         _______ _______ _______ _____ _____    ______ ____
ROOT
ATOM      1  N   UNL     1      -0.943  11.307  -2.640  0.00  0.00    -0.326 N 
ATOM      2  C   UNL     1      -2.078  11.984  -3.054  0.00  0.00    +0.128 A 
ATOM      3  C   UNL     1      -2.087  13.396  -3.079  0.00  0.00    +0.041 A 
ATOM      4  C   UNL     1      -0.971  14.154  -2.692  0.00  0.00    +0.015 A 
ATOM      5  C   UNL     1      -1.070  15.518  -2.748  0.00  0.00    +0.033 A 
ATOM      6  C   UNL     1      -2.252  16.113  -3.177  0.00  0.00    +0.144 A 
ATOM      7  N   UNL     1      -3.289  15.397  -3.549  0.00  0.00    -0.242 NA
ATOM      8  C   UNL     1      -3.257  14.067  -3.511  0.00  0.00    +0.084 A 
ATOM      9  C   UNL     1      -4.373  13.278  -3.891  0.00  0.00    +0.027 A 
ATOM     10  C   UNL     1      -4.265  11.902  -3.826  0.00  0.00    +0.123 A 
ATOM     11  N   UNL     1      -3.151  11.309  -3.421  0.00  0.00    -0.239 NA
ATOM     12  H   UNL     1      -0.048  11.869  -2.335  0.00  0.00    +0.148 HD
ENDROOT
BRANCH   1  16
ATOM     13  C   UNL     1      -0.081   7.323  -1.382  0.00  0.00    -0.071 C 
ATOM     14  C   UNL     1      -1.520   7.827  -1.253  0.00  0.00    -0.014 C 
ATOM     15  C   UNL     1      -1.529   9.357  -1.286  0.00  0.00    +0.020 C 
ATOM     16  C   UNL     1      -0.935   9.842  -2.609  0.00  0.00    +0.072 C 
ATOM     17  C   UNL     1       0.504   9.338  -2.738  0.00  0.00    +0.020 C 
ATOM     18  C   UNL     1       0.513   7.809  -2.705  0.00  0.00    -0.014 C 
BRANCH  13  19
ATOM     19  N   UNL     1      -0.073   5.854  -1.351  0.00  0.00    +0.384 N 
ATOM     20  H   UNL     1       0.823   5.496  -1.880  0.00  0.00    -0.085 HD
ATOM     21  H   UNL     1      -0.974   5.485  -1.863  0.00  0.00    -0.085 HD
BRANCH  19  22
ATOM     22  C   UNL     1      -0.057   5.357   0.032  0.00  0.00    -0.046 C 
BRANCH  22  25
ATOM     23  C   UNL     1       1.171   1.783   0.001  0.00  0.00    +0.001 A 
ATOM     24  C   UNL     1       1.155   3.167   0.008  0.00  0.00    +0.002 A 
ATOM     25  C   UNL     1      -0.048   3.850   0.023  0.00  0.00    -0.063 A 
ATOM     26  C   UNL     1      -1.240   3.155   0.030  0.00  0.00    +0.020 A 
ATOM     27  C   UNL     1      -1.230   1.759   0.017  0.00  0.00    +0.052 A 
ATOM     28  C   UNL     1      -0.013   1.076   0.008  0.00  0.00    +0.019 A 
BRANCH  27  29
ATOM     29  C   UNL     1      -2.464   1.031   0.019  0.00  0.00    +0.099 C 
ATOM     30  N   UNL     1      -3.442   0.454   0.021  0.00  0.00    -0.191 NA
ENDBRANCH  27  29
ENDBRANCH  22  25
ENDBRANCH  19  22
ENDBRANCH  13  19
ENDBRANCH   1  16
BRANCH   9  31
ATOM     31  C   UNL     1      -5.630  13.917  -4.348  0.00  0.00    -0.007 A 
ATOM     32  C   UNL     1      -6.242  13.517  -5.533  0.00  0.00    +0.016 A 
ATOM     33  C   UNL     1      -7.391  14.120  -5.914  0.00  0.00    +0.046 A 
ATOM     34  S   UNL     1      -7.651  15.303  -4.604  0.00  0.00    -0.104 S 
ATOM     35  C   UNL     1      -6.213  14.917  -3.619  0.00  0.00    +0.053 A 
ENDBRANCH   9  31
BRANCH   6  36
ATOM     36  C   UNL     1      -2.340  17.616  -3.231  0.00  0.00    +0.434 C 
ATOM     37  F   UNL     1      -1.925  18.063  -4.490  0.00  0.00    -0.164 F 
ATOM     38  F   UNL     1      -3.663  18.014  -3.008  0.00  0.00    -0.164 F 
ATOM     39  F   UNL     1      -1.515  18.167  -2.245  0.00  0.00    -0.164 F 
ENDBRANCH   6  36
TORSDOF 7
