REMARK  Name = ZINC57934742
REMARK  8 active torsions:
REMARK  status: ('A' for Active; 'I' for Inactive)
REMARK    1  A    between atoms: C_6  and  C_7
REMARK    2  A    between atoms: C_7  and  N_8
REMARK    3  A    between atoms: N_8  and  C_9
REMARK    4  A    between atoms: C_15  and  C_17
REMARK    5  A    between atoms: C_17  and  S_18
REMARK    6  A    between atoms: S_18  and  C_19
REMARK    7  A    between atoms: N_25  and  C_26
REMARK    8  A    between atoms: C_26  and  C_27
REMARK                            x       y       z     vdW  Elec       q    Type
REMARK                         _______ _______ _______ _____ _____    ______ ____
ROOT
ATOM      1  N   UNL     1      -1.787  -0.913  -1.362  0.00  0.00    -0.293 N 
ATOM      2  C   UNL     1      -2.525   0.069  -1.915  0.00  0.00    +0.226 C 
ATOM      3  O   UNL     1      -2.857   1.027  -1.249  0.00  0.00    -0.275 OA
ENDROOT
BRANCH   1   4
ATOM      4  C   UNL     1      -1.482  -2.122  -2.131  0.00  0.00    +0.076 C 
ATOM      5  C   UNL     1      -2.153  -3.329  -1.473  0.00  0.00    +0.022 C 
ATOM      6  C   UNL     1      -1.834  -4.591  -2.276  0.00  0.00    +0.002 C 
ATOM      7  C   UNL     1      -0.320  -4.806  -2.310  0.00  0.00    +0.000 C 
ATOM      8  C   UNL     1       0.351  -3.599  -2.969  0.00  0.00    +0.002 C 
ATOM      9  C   UNL     1       0.032  -2.336  -2.166  0.00  0.00    +0.022 C 
ENDBRANCH   1   4
BRANCH   1  10
ATOM     10  C   UNL     1      -1.290  -0.773   0.009  0.00  0.00    +0.143 C 
BRANCH  10  16
ATOM     11  C   UNL     1      -0.070   1.411  -0.024  0.00  0.00    +0.008 A 
ATOM     12  C   UNL     1       1.099   2.149  -0.031  0.00  0.00    +0.038 A 
ATOM     13  C   UNL     1       2.324   1.505  -0.012  0.00  0.00    +0.123 A 
ATOM     14  C   UNL     1       2.377   0.121   0.014  0.00  0.00    +0.038 A 
ATOM     15  C   UNL     1       1.207  -0.614   0.021  0.00  0.00    +0.008 A 
ATOM     16  C   UNL     1      -0.015   0.030   0.002  0.00  0.00    -0.030 A 
ATOM     17  F   UNL     1       3.467   2.225  -0.020  0.00  0.00    -0.205 F 
ENDBRANCH  10  16
ENDBRANCH   1  10
BRANCH   2  18
ATOM     18  C   UNL     1      -2.938  -0.022  -3.361  0.00  0.00    +0.173 C 
BRANCH  18  19
ATOM     19  S   UNL     1      -3.787   1.507  -3.845  0.00  0.00    -0.077 S 
BRANCH  19  20
ATOM     20  C   UNL     1      -4.200   1.247  -5.538  0.00  0.00    +0.193 A 
ATOM     21  N   UNL     1      -3.936   0.176  -6.229  0.00  0.00    -0.145 NA
ATOM     22  N   UNL     1      -4.427   0.364  -7.528  0.00  0.00    -0.226 N 
ATOM     23  H   UNL     1      -4.372  -0.270  -8.260  0.00  0.00    +0.194 HD
ATOM     24  C   UNL     1      -4.991   1.589  -7.572  0.00  0.00    +0.345 A 
ATOM     25  O   UNL     1      -5.524   2.101  -8.541  0.00  0.00    -0.245 OA
ATOM     26  N   UNL     1      -4.862   2.141  -6.349  0.00  0.00    -0.268 N 
BRANCH  26  27
ATOM     27  C   UNL     1      -5.342   3.467  -5.952  0.00  0.00    +0.160 C 
BRANCH  27  28
ATOM     28  C   UNL     1      -4.246   4.504  -6.210  0.00  0.00    +0.138 C 
ATOM     29  C   UNL     1      -4.721   5.910  -5.764  0.00  0.00    +0.035 C 
ATOM     30  C   UNL     1      -3.360   6.608  -5.496  0.00  0.00    +0.031 C 
ATOM     31  C   UNL     1      -2.496   5.447  -4.959  0.00  0.00    +0.160 C 
ATOM     32  O   UNL     1      -3.092   4.221  -5.403  0.00  0.00    -0.375 OA
ENDBRANCH  27  28
ENDBRANCH  26  27
ENDBRANCH  19  20
ENDBRANCH  18  19
ENDBRANCH   2  18
TORSDOF 8
