REMARK  Name = ZINC28293768
REMARK  3 active torsions:
REMARK  status: ('A' for Active; 'I' for Inactive)
REMARK    1  A    between atoms: C_6  and  C_7
REMARK    2  A    between atoms: C_9  and  C_12
REMARK    3  A    between atoms: C_17  and  C_20
REMARK                            x       y       z     vdW  Elec       q    Type
REMARK                         _______ _______ _______ _____ _____    ______ ____
ROOT
ATOM      1  C   UNL     1      10.421   3.512  -0.078  0.00  0.00    +0.168 A 
ATOM      2  C   UNL     1       9.648   2.385  -0.070  0.00  0.00    +0.086 A 
ATOM      3  C   UNL     1       8.319   2.884  -0.061  0.00  0.00    +0.169 A 
ATOM      4  N   UNL     1       8.418   4.191  -0.055  0.00  0.00    -0.073 NA
ATOM      5  O   UNL     1       9.571   4.554  -0.064  0.00  0.00    -0.354 OA
ENDROOT
BRANCH   1  11
ATOM      6  C   UNL     1      12.651   2.399  -0.104  0.00  0.00    +0.012 A 
ATOM      7  C   UNL     1      14.026   2.472  -0.115  0.00  0.00    +0.004 A 
ATOM      8  C   UNL     1      14.672   3.703  -0.114  0.00  0.00    -0.044 A 
ATOM      9  C   UNL     1      13.934   4.867  -0.105  0.00  0.00    -0.044 A 
ATOM     10  C   UNL     1      12.549   4.805  -0.097  0.00  0.00    +0.015 A 
ATOM     11  C   UNL     1      11.898   3.574  -0.091  0.00  0.00    +0.020 A 
ATOM     12  C   UNL     1      14.572   6.231  -0.113  0.00  0.00    +0.035 C 
ATOM     13  C   UNL     1      16.039   6.141   0.303  0.00  0.00    +0.005 C 
ATOM     14  C   UNL     1      16.718   5.062  -0.549  0.00  0.00    +0.005 C 
ATOM     15  C   UNL     1      16.179   3.700  -0.120  0.00  0.00    +0.035 C 
ENDBRANCH   1  11
BRANCH   3  16
ATOM     16  C   UNL     1       7.069   2.087  -0.053  0.00  0.00    +0.271 C 
ATOM     17  O   UNL     1       7.123   0.873  -0.060  0.00  0.00    -0.268 OA
ATOM     18  N   UNL     1       5.874   2.708  -0.039  0.00  0.00    -0.258 N 
ATOM     19  C   UNL     1       4.705   1.962  -0.032  0.00  0.00    +0.185 A 
ATOM     20  N   UNL     1       3.449   2.378  -0.023  0.00  0.00    -0.201 NA
ATOM     21  C   UNL     1       2.483   1.478  -0.013  0.00  0.00    +0.206 A 
ATOM     22  N   UNL     1       2.795   0.194  -0.023  0.00  0.00    -0.184 NA
ATOM     23  S   UNL     1       4.506   0.239  -0.039  0.00  0.00    +0.050 S 
ATOM     24  H   UNL     1       5.825   3.807  -0.033  0.00  0.00    +0.157 HD
BRANCH  21  25
ATOM     25  C   UNL     1       1.067   1.902   0.002  0.00  0.00    +0.174 A 
ATOM     26  C   UNL     1      -0.013   1.076   0.008  0.00  0.00    +0.054 A 
ATOM     27  C   UNL     1      -1.155   1.901   0.017  0.00  0.00    +0.057 A 
ATOM     28  C   UNL     1      -0.720   3.178   0.026  0.00  0.00    +0.171 A 
ATOM     29  O   UNL     1       0.623   3.174   0.013  0.00  0.00    -0.445 OA
ATOM     30 BR   UNL     1      -1.818   4.717   0.044  0.00  0.00    -0.008 Br
ENDBRANCH  21  25
ENDBRANCH   3  16
TORSDOF 3
