REMARK  Name = ZINC39351915
REMARK  5 active torsions:
REMARK  status: ('A' for Active; 'I' for Inactive)
REMARK    1  A    between atoms: C_3  and  C_27
REMARK    2  A    between atoms: C_6  and  C_7
REMARK    3  A    between atoms: C_10  and  C_12
REMARK    4  A    between atoms: C_13  and  C_14
REMARK    5  A    between atoms: C_13  and  C_16
REMARK                            x       y       z     vdW  Elec       q    Type
REMARK                         _______ _______ _______ _____ _____    ______ ____
ROOT
ATOM      1  C   UNL     1      -4.822  -1.036   0.036  0.00  0.00    +0.064 C 
ATOM      2  C   UNL     1      -5.351   0.213   0.041  0.00  0.00    +0.075 C 
ENDROOT
BRANCH   2   3
ATOM      3  C   UNL     1      -6.846   0.398   0.052  0.00  0.00    +0.218 C 
ATOM      4  N   UNL     1      -7.252   1.159   1.240  0.00  0.00    -0.358 N 
ATOM      5  C   UNL     1      -7.828   2.248   0.827  0.00  0.00    +0.081 A 
ATOM      6  C   UNL     1      -8.435   3.390   1.534  0.00  0.00    +0.045 A 
ATOM      7  C   UNL     1      -8.961   4.387   0.782  0.00  0.00    +0.038 A 
ATOM      8  C   UNL     1      -8.926   4.327  -0.625  0.00  0.00    +0.128 A 
ATOM      9  N   UNL     1      -8.401   3.338  -1.287  0.00  0.00    -0.235 NA
ATOM     10  C   UNL     1      -7.838   2.273  -0.660  0.00  0.00    +0.152 A 
ATOM     11  N   UNL     1      -7.264   1.190  -1.111  0.00  0.00    -0.344 N 
ATOM     12 BR   UNL     1      -9.753   5.878   1.633  0.00  0.00    -0.049 Br
ATOM     13  H   UNL     1      -7.137   0.953  -2.042  0.00  0.00    +0.163 HD
ATOM     14  H   UNL     1      -7.115   0.896   2.164  0.00  0.00    +0.162 HD
ENDBRANCH   2   3
BRANCH   1  18
ATOM     15  C   UNL     1      -1.264  -0.758   0.011  0.00  0.00    +0.136 A 
ATOM     16  C   UNL     1      -1.383  -2.130   0.010  0.00  0.00    +0.050 A 
ATOM     17  C   UNL     1      -2.751  -2.420   0.020  0.00  0.00    +0.050 A 
ATOM     18  C   UNL     1      -3.417  -1.210   0.026  0.00  0.00    +0.130 A 
ATOM     19  O   UNL     1      -2.499  -0.222   0.026  0.00  0.00    -0.455 OA
BRANCH  15  25
ATOM     20  C   UNL     1      -0.017   1.395   0.010  0.00  0.00    +0.012 A 
ATOM     21  C   UNL     1       1.156   2.094   0.002  0.00  0.00    +0.016 A 
ATOM     22  C   UNL     1       2.377   1.411  -0.013  0.00  0.00    +0.063 A 
ATOM     23  C   UNL     1       2.396   0.011  -0.021  0.00  0.00    +0.016 A 
ATOM     24  C   UNL     1       1.223  -0.687  -0.013  0.00  0.00    +0.012 A 
ATOM     25  C   UNL     1       0.002  -0.004   0.002  0.00  0.00    +0.017 A 
BRANCH  22  26
ATOM     26  C   UNL     1       3.643   2.164  -0.022  0.00  0.00    +0.387 C 
ATOM     27  O   UNL     1       3.626   3.388  -0.015  0.00  0.00    -0.241 OA
ATOM     28  O   UNL     1       4.710   1.567  -0.035  0.00  0.00    -0.241 OA
ENDBRANCH  22  26
ENDBRANCH  15  25
ENDBRANCH   1  18
BRANCH   2  29
ATOM     29  C   UNL     1      -4.488   1.356   0.037  0.00  0.00    +0.099 C 
ATOM     30  N   UNL     1      -3.804   2.262   0.034  0.00  0.00    -0.191 NA
ENDBRANCH   2  29
TORSDOF 5
