REMARK  Name = ZINC00930979
REMARK  6 active torsions:
REMARK  status: ('A' for Active; 'I' for Inactive)
REMARK    1  A    between atoms: C_9  and  C_12
REMARK    2  A    between atoms: N_14  and  C_15
REMARK    3  A    between atoms: N_14  and  C_25
REMARK    4  A    between atoms: C_25  and  C_27
REMARK    5  A    between atoms: C_25  and  C_32
REMARK    6  A    between atoms: N_34  and  C_35
REMARK                            x       y       z     vdW  Elec       q    Type
REMARK                         _______ _______ _______ _____ _____    ______ ____
ROOT
ATOM      1  C   UNL     1       5.443  -2.958   0.937  0.00  0.00    +0.265 C 
ATOM      2  O   UNL     1       6.577  -2.553   0.791  0.00  0.00    -0.271 OA
ATOM      3  N   UNL     1       5.006  -4.013   0.222  0.00  0.00    -0.252 N 
ENDROOT
BRANCH   1  12
ATOM      4  C   UNL     1       3.455   0.318   5.998  0.00  0.00    +0.004 A 
ATOM      5  C   UNL     1       4.341  -0.666   6.395  0.00  0.00    +0.004 A 
ATOM      6  C   UNL     1       4.906  -1.509   5.457  0.00  0.00    +0.049 A 
ATOM      7  C   UNL     1       4.585  -1.370   4.114  0.00  0.00    +0.163 A 
ATOM      8  C   UNL     1       3.692  -0.382   3.716  0.00  0.00    +0.162 A 
ATOM      9  C   UNL     1       3.130   0.462   4.662  0.00  0.00    +0.049 A 
ATOM     10  O   UNL     1       3.358  -0.233   2.405  0.00  0.00    -0.484 OA
ATOM     11  C   UNL     1       4.223  -0.851   1.446  0.00  0.00    +0.283 C 
ATOM     12  C   UNL     1       4.522  -2.280   1.919  0.00  0.00    +0.296 C 
ATOM     13  O   UNL     1       5.152  -2.205   3.202  0.00  0.00    -0.472 OA
ENDBRANCH   1  12
BRANCH   3  14
ATOM     14  C   UNL     1       3.690  -4.468   0.376  0.00  0.00    +0.041 A 
ATOM     15  C   UNL     1       3.431  -5.830   0.458  0.00  0.00    +0.027 A 
ATOM     16  C   UNL     1       2.134  -6.278   0.609  0.00  0.00    +0.051 A 
ATOM     17  C   UNL     1       1.086  -5.372   0.679  0.00  0.00    +0.162 A 
ATOM     18  C   UNL     1       1.343  -4.008   0.600  0.00  0.00    +0.164 A 
ATOM     19  C   UNL     1       2.646  -3.558   0.452  0.00  0.00    +0.073 A 
ATOM     20  O   UNL     1       0.329  -3.103   0.675  0.00  0.00    -0.485 OA
ATOM     21  C   UNL     1      -0.995  -3.599   0.454  0.00  0.00    +0.270 C 
ATOM     22  C   UNL     1      -1.167  -4.889   1.268  0.00  0.00    +0.270 C 
ATOM     23  O   UNL     1      -0.187  -5.833   0.824  0.00  0.00    -0.485 OA
ENDBRANCH   3  14
BRANCH   3  24
ATOM     24  C   UNL     1       5.909  -4.685  -0.717  0.00  0.00    +0.204 C 
BRANCH  24  25
ATOM     25  C   UNL     1       6.634  -5.799  -0.007  0.00  0.00    +0.019 A 
ATOM     26  C   UNL     1       7.907  -6.232  -0.176  0.00  0.00    +0.013 A 
ATOM     27  C   UNL     1       8.366  -7.283   0.596  0.00  0.00    +0.008 A 
ATOM     28  C   UNL     1       7.529  -7.848   1.500  0.00  0.00    +0.045 A 
ATOM     29  S   UNL     1       6.042  -6.885   1.280  0.00  0.00    -0.099 S 
ENDBRANCH  24  25
BRANCH  24  30
ATOM     30  C   UNL     1       5.110  -5.255  -1.861  0.00  0.00    +0.239 C 
ATOM     31  O   UNL     1       3.905  -5.114  -1.889  0.00  0.00    -0.273 OA
ATOM     32  N   UNL     1       5.733  -5.921  -2.853  0.00  0.00    -0.311 N 
ATOM     33  H   UNL     1       6.697  -6.034  -2.830  0.00  0.00    +0.149 HD
BRANCH  32  34
ATOM     34  C   UNL     1       4.957  -6.475  -3.964  0.00  0.00    +0.073 C 
ATOM     35  C   UNL     1       4.420  -7.854  -3.574  0.00  0.00    +0.022 C 
ATOM     36  C   UNL     1       3.609  -8.432  -4.736  0.00  0.00    +0.002 C 
ATOM     37  C   UNL     1       4.505  -8.564  -5.968  0.00  0.00    +0.000 C 
ATOM     38  C   UNL     1       5.042  -7.186  -6.358  0.00  0.00    +0.002 C 
ATOM     39  C   UNL     1       5.854  -6.607  -5.197  0.00  0.00    +0.022 C 
ENDBRANCH  32  34
ENDBRANCH  24  30
ENDBRANCH   3  24
TORSDOF 6
