REMARK  Name = ZINC19309470
REMARK  9 active torsions:
REMARK  status: ('A' for Active; 'I' for Inactive)
REMARK    1  A    between atoms: C_1  and  C_2
REMARK    2  A    between atoms: C_3  and  C_31
REMARK    3  A    between atoms: C_7  and  N_19
REMARK    4  A    between atoms: C_9  and  C_11
REMARK    5  A    between atoms: C_11  and  N_12
REMARK    6  A    between atoms: C_15  and  C_18
REMARK    7  A    between atoms: N_19  and  C_20
REMARK    8  A    between atoms: C_20  and  C_21
REMARK    9  A    between atoms: C_21  and  C_22
REMARK                            x       y       z     vdW  Elec       q    Type
REMARK                         _______ _______ _______ _____ _____    ______ ____
ROOT
ATOM      1  C   UNL     1       0.904   8.383   2.221  0.00  0.00    +0.045 C 
ATOM      2  C   UNL     1      -0.157   7.644   1.447  0.00  0.00    -0.028 A 
ATOM      3  C   UNL     1      -0.895   8.283   0.528  0.00  0.00    -0.008 A 
ATOM      4  S   UNL     1      -1.980   7.012  -0.094  0.00  0.00    -0.074 S 
ATOM      5  C   UNL     1      -1.412   5.656   0.898  0.00  0.00    +0.114 A 
ATOM      6  C   UNL     1      -0.392   6.231   1.687  0.00  0.00    +0.051 A 
ATOM      7  C   UNL     1       0.250   5.344   2.595  0.00  0.00    +0.131 A 
ATOM      8  N   UNL     1      -0.139   4.080   2.645  0.00  0.00    -0.219 NA
ATOM      9  C   UNL     1      -1.100   3.608   1.871  0.00  0.00    +0.116 A 
ATOM     10  N   UNL     1      -1.732   4.382   1.010  0.00  0.00    -0.227 NA
ATOM     11  C   UNL     1      -0.824   9.732   0.117  0.00  0.00    +0.052 C 
ENDROOT
BRANCH   7  12
ATOM     12  N   UNL     1       1.264   5.797   3.418  0.00  0.00    -0.328 N 
ATOM     13  H   UNL     1       1.514   6.868   3.444  0.00  0.00    +0.147 HD
BRANCH  12  14
ATOM     14  C   UNL     1       2.005   4.852   4.257  0.00  0.00    +0.110 C 
BRANCH  14  15
ATOM     15  C   UNL     1       3.063   5.606   5.064  0.00  0.00    +0.095 C 
BRANCH  15  16
ATOM     16  C   UNL     1       3.826   4.633   5.926  0.00  0.00    +0.139 A 
ATOM     17  N   UNL     1       4.914   3.990   5.590  0.00  0.00    -0.134 NA
ATOM     18  N   UNL     1       5.307   3.240   6.559  0.00  0.00    -0.129 NA
ATOM     19  C   UNL     1       4.476   3.368   7.580  0.00  0.00    +0.161 A 
ATOM     20  N   UNL     1       3.511   4.268   7.198  0.00  0.00    -0.286 N 
ATOM     21  C   UNL     1       2.500   4.601   8.051  0.00  0.00    +0.094 A 
ATOM     22  C   UNL     1       2.439   4.060   9.286  0.00  0.00    +0.018 A 
ATOM     23  C   UNL     1       3.414   3.140   9.707  0.00  0.00    +0.005 A 
ATOM     24  C   UNL     1       4.425   2.794   8.865  0.00  0.00    +0.048 A 
ENDBRANCH  15  16
ENDBRANCH  14  15
ENDBRANCH  12  14
ENDBRANCH   7  12
BRANCH   9  25
ATOM     25  C   UNL     1      -1.487   2.156   1.979  0.00  0.00    -0.001 C 
BRANCH  25  26
ATOM     26  N   UNL     1      -0.681   1.363   1.041  0.00  0.00    +0.384 N 
ATOM     27  C   UNL     1       0.736   1.744   1.113  0.00  0.00    -0.078 C 
ATOM     28  C   UNL     1       1.520   1.006   0.026  0.00  0.00    -0.016 C 
ATOM     29  C   UNL     1       1.367  -0.504   0.230  0.00  0.00    -0.018 C 
ATOM     30  C   UNL     1      -0.120  -0.868   0.199  0.00  0.00    -0.016 C 
ATOM     31  C   UNL     1      -0.857  -0.075   1.281  0.00  0.00    -0.078 C 
ATOM     32  C   UNL     1       2.099  -1.248  -0.889  0.00  0.00    +0.007 C 
ATOM     33  H   UNL     1      -1.034   1.579   0.022  0.00  0.00    -0.081 HD
ENDBRANCH  25  26
ENDBRANCH   9  25
TORSDOF 6
