REMARK  Name = ZINC41092681
REMARK  3 active torsions:
REMARK  status: ('A' for Active; 'I' for Inactive)
REMARK    1  A    between atoms: C_2  and  N_12
REMARK    2  A    between atoms: C_6  and  N_7
REMARK    3  A    between atoms: N_12  and  C_13
REMARK                            x       y       z     vdW  Elec       q    Type
REMARK                         _______ _______ _______ _____ _____    ______ ____
ROOT
ATOM      1  C   UNL     1      -0.017   1.377   0.010  0.00  0.00    +0.061 A 
ATOM      2  C   UNL     1       1.176   2.087   0.002  0.00  0.00    +0.065 A 
ATOM      3  C   UNL     1       2.388   1.406  -0.013  0.00  0.00    +0.147 A 
ATOM      4  C   UNL     1       2.401   0.023  -0.021  0.00  0.00    +0.081 A 
ATOM      5  C   UNL     1       1.209  -0.682  -0.014  0.00  0.00    +0.156 A 
ATOM      6  C   UNL     1       0.002  -0.004   0.002  0.00  0.00    +0.163 A 
ATOM      7  F   UNL     1       1.224  -2.033  -0.021  0.00  0.00    -0.203 F 
ATOM      8  F   UNL     1       3.551   2.093  -0.021  0.00  0.00    -0.203 F 
ENDROOT
BRANCH   6   9
ATOM      9  N   UNL     1      -1.270  -0.761   0.011  0.00  0.00    +0.059 N 
ATOM     10  O   UNL     1      -2.325  -0.170   0.024  0.00  0.00    -0.126 OA
ATOM     11  O   UNL     1      -1.255  -1.969   0.004  0.00  0.00    -0.126 OA
ENDBRANCH   6   9
BRANCH   2  12
ATOM     12  N   UNL     1       1.159   3.487   0.009  0.00  0.00    -0.338 N 
ATOM     13  H   UNL     1       1.993   3.982   0.004  0.00  0.00    +0.146 HD
BRANCH  12  14
ATOM     14  C   UNL     1      -0.118   4.204   0.025  0.00  0.00    +0.074 C 
ATOM     15  C   UNL     1      -0.626   4.431  -1.417  0.00  0.00    +0.026 C 
ATOM     16  C   UNL     1      -0.697   5.982  -1.571  0.00  0.00    -0.009 C 
ATOM     17  C   UNL     1      -1.902   6.408  -0.677  0.00  0.00    +0.004 C 
ATOM     18  C   UNL     1      -1.414   6.180   0.772  0.00  0.00    +0.005 C 
ATOM     19  C   UNL     1       0.070   5.637   0.610  0.00  0.00    +0.009 C 
ATOM     20  C   UNL     1       0.520   6.417  -0.679  0.00  0.00    +0.009 C 
ENDBRANCH  12  14
ENDBRANCH   2  12
TORSDOF 3
