REMARK  Name = ZINC08299833
REMARK  7 active torsions:
REMARK  status: ('A' for Active; 'I' for Inactive)
REMARK    1  A    between atoms: C_6  and  C_7
REMARK    2  A    between atoms: C_7  and  N_8
REMARK    3  A    between atoms: C_9  and  C_11
REMARK    4  A    between atoms: C_19  and  C_21
REMARK    5  A    between atoms: C_21  and  N_22
REMARK    6  A    between atoms: C_24  and  C_27
REMARK    7  A    between atoms: C_27  and  O_32
REMARK                            x       y       z     vdW  Elec       q    Type
REMARK                         _______ _______ _______ _____ _____    ______ ____
ROOT
ATOM      1  C   UNL     1      -6.288   5.198   3.748  0.00  0.00    +0.061 C 
ATOM      2  C   UNL     1      -5.750   4.040   2.903  0.00  0.00    -0.065 C 
ATOM      3  C   UNL     1      -4.143   5.498   1.828  0.00  0.00    -0.078 C 
ATOM      4  C   UNL     1      -4.634   6.698   2.642  0.00  0.00    -0.015 C 
ATOM      5  C   UNL     1      -5.152   6.199   3.997  0.00  0.00    -0.004 C 
ATOM      6  C   UNL     1      -4.010   5.473   4.720  0.00  0.00    -0.010 C 
ATOM      7  C   UNL     1      -3.536   4.307   3.848  0.00  0.00    -0.046 C 
ATOM      8  N   UNL     1      -4.319   4.247   2.595  0.00  0.00    +0.383 N 
ATOM      9  H   UNL     1      -3.982   3.459   2.029  0.00  0.00    -0.081 HD
ENDROOT
BRANCH   1  11
ATOM     10  N   UNL     1      -8.522   5.193   2.688  0.00  0.00    -0.311 N 
ATOM     11  C   UNL     1      -7.412   5.883   3.015  0.00  0.00    +0.215 C 
ATOM     12  O   UNL     1      -7.318   7.055   2.719  0.00  0.00    -0.276 OA
ATOM     13  H   UNL     1      -8.598   4.255   2.925  0.00  0.00    +0.149 HD
BRANCH  10  14
ATOM     14  C   UNL     1      -9.616   5.858   1.975  0.00  0.00    +0.139 C 
BRANCH  14  20
ATOM     15  C   UNL     1     -10.746   4.122   0.571  0.00  0.00    +0.008 A 
ATOM     16  C   UNL     1     -11.765   3.214   0.350  0.00  0.00    +0.038 A 
ATOM     17  C   UNL     1     -12.775   3.066   1.285  0.00  0.00    +0.123 A 
ATOM     18  C   UNL     1     -12.760   3.824   2.444  0.00  0.00    +0.038 A 
ATOM     19  C   UNL     1     -11.738   4.726   2.666  0.00  0.00    +0.008 A 
ATOM     20  C   UNL     1     -10.730   4.873   1.732  0.00  0.00    -0.030 A 
ATOM     21  F   UNL     1     -13.775   2.184   1.067  0.00  0.00    -0.205 F 
ENDBRANCH  14  20
ENDBRANCH  10  14
ENDBRANCH   1  11
BRANCH   7  22
ATOM     22  C   UNL     1      -2.058   4.497   3.501  0.00  0.00    +0.130 C 
BRANCH  22  23
ATOM     23  N   UNL     1      -1.573   3.325   2.769  0.00  0.00    -0.253 N 
ATOM     24  C   UNL     1      -0.972   3.340   1.556  0.00  0.00    +0.136 A 
ATOM     25  C   UNL     1      -0.692   2.050   1.258  0.00  0.00    +0.114 A 
ATOM     26  N   UNL     1      -1.134   1.318   2.287  0.00  0.00    -0.132 NA
ATOM     27  N   UNL     1      -1.646   2.103   3.167  0.00  0.00    -0.065 NA
BRANCH  25  28
ATOM     28  C   UNL     1      -0.019   1.538   0.011  0.00  0.00    +0.111 C 
ATOM     29  C   UNL     1       1.477   1.939  -0.002  0.00  0.00    +0.041 C 
ATOM     30  C   UNL     1       2.107   0.881  -0.942  0.00  0.00    +0.003 C 
ATOM     31  C   UNL     1       1.353  -0.422  -0.604  0.00  0.00    +0.003 C 
ATOM     32  C   UNL     1       0.002  -0.004   0.002  0.00  0.00    +0.041 C 
BRANCH  28  33
ATOM     33  O   UNL     1      -0.679   2.036  -1.155  0.00  0.00    -0.382 OA
ATOM     34  H   UNL     1      -0.721   3.001  -1.201  0.00  0.00    +0.211 HD
ENDBRANCH  28  33
ENDBRANCH  25  28
ENDBRANCH  22  23
ENDBRANCH   7  22
TORSDOF 7
