REMARK  Name = ZINC14475127
REMARK  3 active torsions:
REMARK  status: ('A' for Active; 'I' for Inactive)
REMARK    1  A    between atoms: C_1  and  C_2
REMARK    2  A    between atoms: C_3  and  N_28
REMARK    3  A    between atoms: C_9  and  C_18
REMARK                            x       y       z     vdW  Elec       q    Type
REMARK                         _______ _______ _______ _____ _____    ______ ____
ROOT
ATOM      1  C   UNL     1       4.167   1.743   3.039  0.00  0.00    +0.048 C 
ATOM      2  C   UNL     1       4.071   1.168   1.650  0.00  0.00    +0.001 A 
ATOM      3  C   UNL     1       4.331  -0.171   1.442  0.00  0.00    +0.131 A 
ATOM      4  C   UNL     1       4.244  -0.697   0.167  0.00  0.00    +0.033 A 
ATOM      5  C   UNL     1       3.896   0.115  -0.893  0.00  0.00    +0.008 A 
ATOM      6  C   UNL     1       3.631   1.463  -0.695  0.00  0.00    -0.019 A 
ATOM      7  C   UNL     1       3.721   1.992   0.581  0.00  0.00    +0.036 A 
ATOM      8  N   UNL     1       3.473   3.338   0.847  0.00  0.00    -0.336 N 
ATOM      9  C   UNL     1       2.571   3.939  -0.136  0.00  0.00    +0.105 C 
ATOM     10  C   UNL     1       3.171   3.790  -1.536  0.00  0.00    +0.029 C 
ATOM     11  C   UNL     1       3.251   2.289  -1.888  0.00  0.00    +0.049 C 
ATOM     12  C   UNL     1       1.854   1.944  -2.352  0.00  0.00    -0.023 C 
ATOM     13  C   UNL     1       1.214   3.025  -2.722  0.00  0.00    -0.030 C 
ATOM     14  C   UNL     1       2.097   4.247  -2.564  0.00  0.00    +0.033 C 
ATOM     15  H   UNL     1       4.335   3.858   0.913  0.00  0.00    +0.147 HD
ENDROOT
BRANCH   9  16
ATOM     16  C   UNL     1       1.236   3.241  -0.085  0.00  0.00    -0.026 A 
ATOM     17  C   UNL     1       0.112   3.871  -0.617  0.00  0.00    +0.006 A 
ATOM     18  C   UNL     1      -1.109   3.270  -0.586  0.00  0.00    +0.009 A 
ATOM     19  C   UNL     1      -1.242   1.997  -0.005  0.00  0.00    -0.018 A 
ATOM     20  C   UNL     1      -2.485   1.341   0.039  0.00  0.00    +0.008 A 
ATOM     21  C   UNL     1      -2.575   0.107   0.604  0.00  0.00    +0.001 A 
ATOM     22  C   UNL     1      -1.451  -0.523   1.136  0.00  0.00    +0.001 A 
ATOM     23  C   UNL     1      -0.231   0.079   1.106  0.00  0.00    +0.008 A 
ATOM     24  C   UNL     1      -0.098   1.354   0.531  0.00  0.00    -0.018 A 
ATOM     25  C   UNL     1       1.145   2.007   0.481  0.00  0.00    +0.014 A 
ENDBRANCH   9  16
BRANCH   3  26
ATOM     26  N   UNL     1       4.702  -1.040   2.581  0.00  0.00    +0.057 N 
ATOM     27  O   UNL     1       5.530  -1.921   2.430  0.00  0.00    -0.126 OA
ATOM     28  O   UNL     1       4.180  -0.875   3.669  0.00  0.00    -0.126 OA
ENDBRANCH   3  26
TORSDOF 2
