REMARK  Name = ZINC10559815
REMARK  10 active torsions:
REMARK  status: ('A' for Active; 'I' for Inactive)
REMARK    1  A    between atoms: C_1  and  C_2
REMARK    2  A    between atoms: C_5  and  C_33
REMARK    3  A    between atoms: C_6  and  S_8
REMARK    4  A    between atoms: S_8  and  C_11
REMARK    5  A    between atoms: C_11  and  C_16
REMARK    6  A    between atoms: C_16  and  O_18
REMARK    7  A    between atoms: O_18  and  C_19
REMARK    8  A    between atoms: C_19  and  C_20
REMARK    9  A    between atoms: N_22  and  C_23
REMARK   10  A    between atoms: C_25  and  N_30
REMARK                            x       y       z     vdW  Elec       q    Type
REMARK                         _______ _______ _______ _____ _____    ______ ____
ROOT
ATOM      1  C   UNL     1       3.000   1.777   2.146  0.00  0.00    +0.336 C 
ATOM      2  O   UNL     1       4.130   1.956   2.532  0.00  0.00    -0.248 OA
ENDROOT
BRANCH   1   3
ATOM      3  C   UNL     1       1.970   2.867   2.298  0.00  0.00    +0.188 C 
ATOM      4  C   UNL     1       0.647   2.275   2.827  0.00  0.00    +0.041 C 
ATOM      5  C   UNL     1       0.715   2.499   4.358  0.00  0.00    +0.003 C 
ATOM      6  C   UNL     1       1.386   3.891   4.470  0.00  0.00    +0.003 C 
ATOM      7  C   UNL     1       2.440   3.894   3.343  0.00  0.00    +0.041 C 
BRANCH   3   8
ATOM      8  S   UNL     1       1.691   3.685   0.703  0.00  0.00    +0.013 S 
ATOM      9  O   UNL     1       2.888   4.308   0.257  0.00  0.00    -0.168 OA
ATOM     10  O   UNL     1       0.466   4.405   0.730  0.00  0.00    -0.168 OA
BRANCH   8  16
ATOM     11  C   UNL     1      -1.493   0.670  -2.141  0.00  0.00    +0.044 C 
ATOM     12  C   UNL     1      -0.089   1.019  -1.720  0.00  0.00    -0.049 A 
ATOM     13  C   UNL     1       0.983   0.313  -2.233  0.00  0.00    +0.004 A 
ATOM     14  C   UNL     1       2.270   0.630  -1.842  0.00  0.00    +0.005 A 
ATOM     15  C   UNL     1       2.487   1.661  -0.947  0.00  0.00    -0.026 A 
ATOM     16  C   UNL     1       1.415   2.371  -0.438  0.00  0.00    +0.093 A 
ATOM     17  C   UNL     1       0.127   2.050  -0.824  0.00  0.00    +0.030 A 
ATOM     18  C   UNL     1       3.891   2.011  -0.525  0.00  0.00    +0.046 C 
ENDBRANCH   8  16
ENDBRANCH   3   8
ENDBRANCH   1   3
BRANCH   1  19
ATOM     19  O   UNL     1       2.661   0.607   1.581  0.00  0.00    -0.454 OA
BRANCH  19  20
ATOM     20  C   UNL     1       3.665  -0.442   1.585  0.00  0.00    +0.328 C 
BRANCH  20  21
ATOM     21  C   UNL     1       3.111  -1.669   0.908  0.00  0.00    +0.255 C 
ATOM     22  O   UNL     1       2.005  -1.641   0.413  0.00  0.00    -0.272 OA
ATOM     23  N   UNL     1       3.846  -2.797   0.853  0.00  0.00    -0.281 N 
ATOM     24  H   UNL     1       4.696  -2.846   1.319  0.00  0.00    +0.155 HD
BRANCH  23  25
ATOM     25  C   UNL     1       3.383  -3.899   0.124  0.00  0.00    +0.054 A 
ATOM     26  C   UNL     1       2.368  -3.739  -0.809  0.00  0.00    +0.057 A 
ATOM     27  C   UNL     1       1.917  -4.827  -1.531  0.00  0.00    +0.128 A 
ATOM     28  C   UNL     1       2.468  -6.078  -1.317  0.00  0.00    +0.034 A 
ATOM     29  C   UNL     1       3.475  -6.242  -0.384  0.00  0.00    +0.024 A 
ATOM     30  C   UNL     1       3.935  -5.157   0.338  0.00  0.00    +0.062 A 
ATOM     31 CL   UNL     1       5.200  -5.364   1.508  0.00  0.00    -0.082 Cl
BRANCH  27  32
ATOM     32  N   UNL     1       0.838  -4.656  -2.530  0.00  0.00    +0.056 N 
ATOM     33  O   UNL     1       0.436  -5.616  -3.163  0.00  0.00    -0.126 OA
ATOM     34  O   UNL     1       0.353  -3.555  -2.719  0.00  0.00    -0.126 OA
ENDBRANCH  27  32
ENDBRANCH  23  25
ENDBRANCH  20  21
ENDBRANCH  19  20
ENDBRANCH   1  19
TORSDOF 8
