REMARK  Name = ZINC11771809
REMARK  10 active torsions:
REMARK  status: ('A' for Active; 'I' for Inactive)
REMARK    1  A    between atoms: C_1  and  C_2
REMARK    2  A    between atoms: C_2  and  O_3
REMARK    3  A    between atoms: O_3  and  C_4
REMARK    4  A    between atoms: C_7  and  C_10
REMARK    5  A    between atoms: C_10  and  N_63
REMARK    6  A    between atoms: C_16  and  C_18
REMARK    7  A    between atoms: C_18  and  C_19
REMARK    8  A    between atoms: N_21  and  C_22
REMARK    9  A    between atoms: N_21  and  C_23
REMARK   10  A    between atoms: C_23  and  C_24
REMARK                            x       y       z     vdW  Elec       q    Type
REMARK                         _______ _______ _______ _____ _____    ______ ____
ROOT
ATOM      1  C   UNL     1      -0.048   8.923   4.345  0.00  0.00    -0.058 C 
ATOM      2  C   UNL     1      -0.758   9.003   5.697  0.00  0.00    +0.085 C 
ATOM      3  N   UNL     1      -0.797   7.683   6.321  0.00  0.00    -0.318 N 
ATOM      4  C   UNL     1      -0.606   6.550   5.637  0.00  0.00    +0.200 C 
ATOM      5  O   UNL     1      -0.686   5.494   6.228  0.00  0.00    -0.278 OA
ATOM      6  C   UNL     1      -0.296   6.530   4.167  0.00  0.00    +0.028 C 
ATOM      7  H   UNL     1      -0.970   7.626   7.274  0.00  0.00    +0.149 HD
ATOM      8  N   UNL     1      -0.664   7.827   3.569  0.00  0.00    +0.391 N 
ATOM      9  H   UNL     1      -1.685   7.931   3.595  0.00  0.00    -0.080 HD
ENDROOT
BRANCH   8  10
ATOM     10  C   UNL     1      -0.210   7.884   2.161  0.00  0.00    -0.042 C 
BRANCH  10  14
ATOM     11  C   UNL     1      -0.995  11.780   0.592  0.00  0.00    +0.121 A 
ATOM     12  C   UNL     1       0.223  11.508   1.197  0.00  0.00    +0.046 A 
ATOM     13  C   UNL     1       0.474  10.247   1.704  0.00  0.00    +0.005 A 
ATOM     14  C   UNL     1      -0.487   9.258   1.607  0.00  0.00    -0.064 A 
ATOM     15  C   UNL     1      -1.699   9.525   0.999  0.00  0.00    +0.005 A 
ATOM     16  C   UNL     1      -1.958  10.785   0.496  0.00  0.00    +0.046 A 
BRANCH  11  17
ATOM     17  O   UNL     1      -1.245  13.019   0.092  0.00  0.00    -0.492 OA
BRANCH  17  19
ATOM     18  C   UNL     1      -2.617  14.671  -1.016  0.00  0.00    +0.048 C 
ATOM     19  C   UNL     1      -2.520  13.228  -0.518  0.00  0.00    +0.225 C 
ENDBRANCH  17  19
ENDBRANCH  11  17
ENDBRANCH  10  14
ENDBRANCH   8  10
BRANCH   6  20
ATOM     20  C   UNL     1      -1.108   5.423   3.492  0.00  0.00    +0.090 C 
BRANCH  20  21
ATOM     21  C   UNL     1      -2.578   5.689   3.685  0.00  0.00    +0.215 C 
ATOM     22  O   UNL     1      -2.944   6.716   4.216  0.00  0.00    -0.276 OA
ATOM     23  N   UNL     1      -3.487   4.785   3.268  0.00  0.00    -0.300 N 
ATOM     24  C   UNL     1      -3.045   3.544   2.627  0.00  0.00    +0.132 C 
BRANCH  23  25
ATOM     25  C   UNL     1      -4.917   5.043   3.457  0.00  0.00    +0.143 C 
BRANCH  25  26
ATOM     26  C   UNL     1      -5.459   5.769   2.252  0.00  0.00    -0.022 A 
ATOM     27  C   UNL     1      -5.642   7.119   2.290  0.00  0.00    +0.006 A 
ATOM     28  C   UNL     1      -6.142   7.806   1.185  0.00  0.00    +0.001 A 
ATOM     29  C   UNL     1      -6.463   7.151   0.035  0.00  0.00    +0.010 A 
ATOM     30  C   UNL     1      -6.288   5.760  -0.040  0.00  0.00    +0.001 A 
ATOM     31  C   UNL     1      -5.778   5.061   1.085  0.00  0.00    -0.010 A 
ATOM     32  C   UNL     1      -5.612   3.668   0.983  0.00  0.00    +0.028 A 
ATOM     33  C   UNL     1      -5.946   3.054  -0.185  0.00  0.00    +0.111 A 
ATOM     34  N   UNL     1      -6.420   3.731  -1.222  0.00  0.00    -0.263 NA
ATOM     35  C   UNL     1      -6.601   5.031  -1.199  0.00  0.00    +0.119 A 
ENDBRANCH  25  26
ENDBRANCH  23  25
ENDBRANCH  20  21
ENDBRANCH   6  20
TORSDOF 8
