REMARK  Name = ZINC12703647
REMARK  9 active torsions:
REMARK  status: ('A' for Active; 'I' for Inactive)
REMARK    1  A    between atoms: C_1  and  C_2
REMARK    2  A    between atoms: C_5  and  C_8
REMARK    3  A    between atoms: N_11  and  C_13
REMARK    4  A    between atoms: C_13  and  C_14
REMARK    5  A    between atoms: N_16  and  C_17
REMARK    6  A    between atoms: N_16  and  C_24
REMARK    7  A    between atoms: C_24  and  C_26
REMARK    8  A    between atoms: C_24  and  C_31
REMARK    9  A    between atoms: N_33  and  C_34
REMARK                            x       y       z     vdW  Elec       q    Type
REMARK                         _______ _______ _______ _____ _____    ______ ____
ROOT
ATOM      1  C   UNL     1       4.152   1.626   1.613  0.00  0.00    +0.244 C 
ATOM      2  O   UNL     1       3.836   0.490   1.898  0.00  0.00    -0.273 OA
ATOM      3  N   UNL     1       3.567   2.247   0.570  0.00  0.00    -0.251 N 
ENDROOT
BRANCH   3   4
ATOM      4  C   UNL     1       3.922   3.562   0.249  0.00  0.00    +0.040 A 
ATOM      5  C   UNL     1       4.486   4.385   1.215  0.00  0.00    +0.024 A 
ATOM      6  C   UNL     1       4.837   5.683   0.897  0.00  0.00    +0.005 A 
ATOM      7  C   UNL     1       4.628   6.163  -0.382  0.00  0.00    +0.038 A 
ATOM      8  C   UNL     1       4.066   5.346  -1.349  0.00  0.00    +0.125 A 
ATOM      9  C   UNL     1       3.717   4.043  -1.036  0.00  0.00    +0.062 A 
ATOM     10  F   UNL     1       3.863   5.818  -2.598  0.00  0.00    -0.205 F 
ENDBRANCH   3   4
BRANCH   1  11
ATOM     11  C   UNL     1       5.198   2.343   2.427  0.00  0.00    +0.264 C 
BRANCH  11  15
ATOM     12  C   UNL     1       6.986  -0.015   4.349  0.00  0.00    +0.205 A 
ATOM     13  N   UNL     1       7.758   0.083   3.258  0.00  0.00    -0.108 NA
ATOM     14  N   UNL     1       7.196   0.932   2.466  0.00  0.00    -0.045 NA
ATOM     15  N   UNL     1       6.115   1.364   3.015  0.00  0.00    -0.154 N 
ATOM     16  N   UNL     1       5.969   0.804   4.167  0.00  0.00    -0.130 NA
BRANCH  12  21
ATOM     17  C   UNL     1       7.939  -3.344   8.951  0.00  0.00    +0.044 C 
ATOM     18  C   UNL     1       7.690  -2.473   7.747  0.00  0.00    -0.050 A 
ATOM     19  C   UNL     1       8.584  -2.483   6.692  0.00  0.00    +0.004 A 
ATOM     20  C   UNL     1       8.361  -1.687   5.587  0.00  0.00    +0.012 A 
ATOM     21  C   UNL     1       7.231  -0.873   5.535  0.00  0.00    +0.023 A 
ATOM     22  C   UNL     1       6.336  -0.863   6.603  0.00  0.00    +0.012 A 
ATOM     23  C   UNL     1       6.567  -1.667   7.701  0.00  0.00    +0.004 A 
ENDBRANCH  12  21
ENDBRANCH  11  15
ENDBRANCH   1  11
BRANCH   3  24
ATOM     24  C   UNL     1       2.559   1.545  -0.229  0.00  0.00    +0.233 C 
BRANCH  24  25
ATOM     25  C   UNL     1       1.256   2.299  -0.169  0.00  0.00    +0.135 A 
ATOM     26  C   UNL     1       0.033   1.749  -0.069  0.00  0.00    +0.047 A 
ATOM     27  C   UNL     1      -0.896   2.815  -0.052  0.00  0.00    +0.041 A 
ATOM     28  C   UNL     1      -0.184   3.954  -0.133  0.00  0.00    +0.195 A 
ATOM     29  O   UNL     1       1.119   3.635  -0.208  0.00  0.00    -0.465 OA
ENDBRANCH  24  25
BRANCH  24  30
ATOM     30  C   UNL     1       3.024   1.458  -1.660  0.00  0.00    +0.242 C 
ATOM     31  O   UNL     1       4.092   1.935  -1.981  0.00  0.00    -0.273 OA
ATOM     32  N   UNL     1       2.253   0.850  -2.583  0.00  0.00    -0.311 N 
ATOM     33  H   UNL     1       1.399   0.468  -2.327  0.00  0.00    +0.149 HD
BRANCH  32  34
ATOM     34  C   UNL     1       2.705   0.765  -3.974  0.00  0.00    +0.073 C 
ATOM     35  C   UNL     1       2.263   2.023  -4.751  0.00  0.00    +0.022 C 
ATOM     36  C   UNL     1       1.898   1.491  -6.159  0.00  0.00    +0.002 C 
ATOM     37  C   UNL     1       1.223   0.133  -5.847  0.00  0.00    +0.002 C 
ATOM     38  C   UNL     1       2.043  -0.437  -4.671  0.00  0.00    +0.022 C 
ENDBRANCH  32  34
ENDBRANCH  24  30
ENDBRANCH   3  24
TORSDOF 8
