REMARK  Name = ZINC40110733
REMARK  10 active torsions:
REMARK  status: ('A' for Active; 'I' for Inactive)
REMARK    1  A    between atoms: C_1  and  N_2
REMARK    2  A    between atoms: N_2  and  C_3
REMARK    3  A    between atoms: N_2  and  S_4
REMARK    4  A    between atoms: S_4  and  C_7
REMARK    5  A    between atoms: C_10  and  C_13
REMARK    6  A    between atoms: C_13  and  C_15
REMARK    7  A    between atoms: N_19  and  C_29
REMARK    8  A    between atoms: C_20  and  C_22
REMARK    9  A    between atoms: C_29  and  C_30
REMARK   10  A    between atoms: C_30  and  O_31
REMARK                            x       y       z     vdW  Elec       q    Type
REMARK                         _______ _______ _______ _____ _____    ______ ____
ROOT
ATOM      1  C   UNL     1      -2.489  -3.244  -6.525  0.00  0.00    +0.076 C 
ATOM      2  C   UNL     1      -2.475  -3.552  -7.843  0.00  0.00    +0.249 C 
ATOM      3  C   UNL     1      -1.753  -4.827  -8.036  0.00  0.00    +0.288 C 
ATOM      4  O   UNL     1      -1.570  -5.370  -9.108  0.00  0.00    -0.266 OA
ATOM      5  N   UNL     1      -1.327  -5.298  -6.850  0.00  0.00    -0.281 N 
ATOM      6  C   UNL     1      -1.744  -4.349  -5.811  0.00  0.00    +0.146 C 
ATOM      7  O   UNL     1      -3.034  -2.811  -8.827  0.00  0.00    -0.282 OA
ENDROOT
BRANCH   6   8
ATOM      8  C   UNL     1      -0.538  -3.788  -5.104  0.00  0.00    -0.008 A 
ATOM      9  C   UNL     1       0.482  -3.204  -5.832  0.00  0.00    +0.007 A 
ATOM     10  C   UNL     1       1.588  -2.689  -5.183  0.00  0.00    +0.000 A 
ATOM     11  C   UNL     1       1.675  -2.756  -3.805  0.00  0.00    +0.001 A 
ATOM     12  C   UNL     1       0.656  -3.339  -3.076  0.00  0.00    +0.015 A 
ATOM     13  C   UNL     1      -0.454  -3.851  -3.725  0.00  0.00    +0.023 A 
ATOM     14 BR   UNL     1      -1.852  -4.642  -2.727  0.00  0.00    -0.050 Br
ENDBRANCH   6   8
BRANCH   1  15
ATOM     15  C   UNL     1      -3.102  -2.064  -5.909  0.00  0.00    +0.195 C 
ATOM     16  O   UNL     1      -2.647  -0.957  -6.128  0.00  0.00    -0.287 OA
BRANCH  15  20
ATOM     17  C   UNL     1      -6.470  -2.507  -3.358  0.00  0.00    +0.105 A 
ATOM     18  C   UNL     1      -5.915  -1.255  -3.554  0.00  0.00    +0.029 A 
ATOM     19  C   UNL     1      -4.821  -1.104  -4.381  0.00  0.00    +0.013 A 
ATOM     20  C   UNL     1      -4.274  -2.218  -5.021  0.00  0.00    +0.022 A 
ATOM     21  C   UNL     1      -4.839  -3.479  -4.818  0.00  0.00    +0.013 A 
ATOM     22  C   UNL     1      -5.929  -3.617  -3.984  0.00  0.00    +0.029 A 
BRANCH  17  23
ATOM     23  S   UNL     1      -7.867  -2.691  -2.300  0.00  0.00    +0.060 S 
ATOM     24  O   UNL     1      -8.530  -3.880  -2.706  0.00  0.00    -0.153 OA
ATOM     25  O   UNL     1      -8.519  -1.429  -2.265  0.00  0.00    -0.153 OA
BRANCH  23  27
ATOM     26  C   UNL     1      -7.030  -1.843   0.128  0.00  0.00    +0.131 C 
ATOM     27  N   UNL     1      -7.291  -2.969  -0.772  0.00  0.00    -0.183 NA
ATOM     28  C   UNL     1      -7.042  -4.341  -0.322  0.00  0.00    +0.131 C 
ENDBRANCH  23  27
ENDBRANCH  17  23
ENDBRANCH  15  20
ENDBRANCH   1  15
BRANCH   5  29
ATOM     29  C   UNL     1      -0.575  -6.537  -6.634  0.00  0.00    +0.137 C 
BRANCH  29  30
ATOM     30  C   UNL     1       0.913  -6.280  -6.884  0.00  0.00    +0.175 C 
BRANCH  30  31
ATOM     31  O   UNL     1       1.448  -5.501  -5.812  0.00  0.00    -0.393 OA
ATOM     32  H   UNL     1       2.375  -5.252  -5.932  0.00  0.00    +0.209 HD
ENDBRANCH  30  31
ENDBRANCH  29  30
ENDBRANCH   5  29
TORSDOF 8
