REMARK  Name = ZINC43022765
REMARK  9 active torsions:
REMARK  status: ('A' for Active; 'I' for Inactive)
REMARK    1  A    between atoms: C_1  and  C_2
REMARK    2  A    between atoms: C_2  and  C_4
REMARK    3  A    between atoms: C_2  and  N_23
REMARK    4  A    between atoms: C_4  and  C_6
REMARK    5  A    between atoms: C_4  and  O_13
REMARK    6  A    between atoms: O_13  and  C_14
REMARK    7  A    between atoms: C_19  and  C_20
REMARK    8  A    between atoms: C_20  and  C_21
REMARK    9  A    between atoms: C_20  and  C_22
REMARK                            x       y       z     vdW  Elec       q    Type
REMARK                         _______ _______ _______ _____ _____    ______ ____
ROOT
ATOM      1  C   UNL     1       0.744  -0.517   1.254  0.00  0.00    +0.189 C 
ENDROOT
BRANCH   1   2
ATOM      2  C   UNL     1      -0.001  -0.178   2.519  0.00  0.00    -0.008 A 
ATOM      3  C   UNL     1       0.098   1.090   3.061  0.00  0.00    +0.007 A 
ATOM      4  C   UNL     1      -0.585   1.402   4.222  0.00  0.00    +0.001 A 
ATOM      5  C   UNL     1      -1.367   0.445   4.841  0.00  0.00    +0.015 A 
ATOM      6  C   UNL     1      -1.466  -0.824   4.299  0.00  0.00    +0.018 A 
ATOM      7  C   UNL     1      -0.787  -1.133   3.135  0.00  0.00    +0.022 A 
ATOM      8 BR   UNL     1      -2.536  -2.133   5.147  0.00  0.00    -0.050 Br
ENDBRANCH   1   2
BRANCH   1  10
ATOM      9  C   UNL     1      -0.055   1.552   0.104  0.00  0.00    -0.010 C 
ATOM     10  C   UNL     1      -0.027   0.024   0.048  0.00  0.00    -0.032 C 
BRANCH  10  11
ATOM     11  N   UNL     1       0.635  -0.408  -1.191  0.00  0.00    +0.382 N 
ATOM     12  H   UNL     1       1.579  -0.054  -1.209  0.00  0.00    -0.089 HD
ATOM     13  H   UNL     1       0.653  -1.417  -1.228  0.00  0.00    -0.089 HD
ATOM     14  H   UNL     1       0.126  -0.052  -1.986  0.00  0.00    -0.089 HD
ENDBRANCH  10  11
ENDBRANCH   1  10
BRANCH   1  15
ATOM     15  O   UNL     1       2.044   0.076   1.292  0.00  0.00    -0.486 OA
BRANCH  15  16
ATOM     16  C   UNL     1       3.067  -0.645   0.763  0.00  0.00    +0.125 A 
ATOM     17  C   UNL     1       2.809  -1.844   0.115  0.00  0.00    +0.046 A 
ATOM     18  C   UNL     1       3.851  -2.575  -0.423  0.00  0.00    +0.004 A 
ATOM     19  C   UNL     1       5.150  -2.112  -0.314  0.00  0.00    +0.001 A 
ATOM     20  C   UNL     1       5.409  -0.918   0.332  0.00  0.00    +0.007 A 
ATOM     21  C   UNL     1       4.370  -0.180   0.866  0.00  0.00    -0.003 A 
BRANCH  21  22
ATOM     22  C   UNL     1       4.653   1.124   1.565  0.00  0.00    +0.016 C 
ATOM     23  C   UNL     1       5.584   0.875   2.753  0.00  0.00    +0.012 C 
ATOM     24  C   UNL     1       5.321   2.093   0.587  0.00  0.00    +0.012 C 
ENDBRANCH  21  22
ENDBRANCH  15  16
ENDBRANCH   1  15
TORSDOF 6
