REMARK  Name = ZINC52094225
REMARK  3 active torsions:
REMARK  status: ('A' for Active; 'I' for Inactive)
REMARK    1  A    between atoms: C_5  and  C_6
REMARK    2  A    between atoms: C_6  and  C_8
REMARK    3  A    between atoms: C_6  and  N_21
REMARK                            x       y       z     vdW  Elec       q    Type
REMARK                         _______ _______ _______ _____ _____    ______ ____
ROOT
ATOM      1  C   UNL     1      -1.397  -1.474  -1.391  0.00  0.00    -0.010 A 
ATOM      2  C   UNL     1      -0.923  -2.716  -1.766  0.00  0.00    +0.034 A 
ATOM      3  C   UNL     1      -1.145  -3.179  -3.054  0.00  0.00    +0.067 A 
ATOM      4  C   UNL     1      -1.847  -2.389  -3.966  0.00  0.00    +0.068 A 
ATOM      5  C   UNL     1      -2.319  -1.143  -3.581  0.00  0.00    +0.043 A 
ATOM      6  C   UNL     1      -2.097  -0.692  -2.294  0.00  0.00    +0.025 A 
ATOM      7 BR   UNL     1      -2.748   1.003  -1.766  0.00  0.00    -0.050 Br
ATOM      8  N   UNL     1      -1.911  -3.109  -5.157  0.00  0.00    -0.306 N 
ATOM      9  H   UNL     1      -2.339  -2.814  -5.976  0.00  0.00    +0.170 HD
ATOM     10  C   UNL     1      -1.277  -4.283  -4.977  0.00  0.00    +0.325 A 
ATOM     11  O   UNL     1      -1.150  -5.147  -5.824  0.00  0.00    -0.247 OA
ATOM     12  N   UNL     1      -0.804  -4.355  -3.719  0.00  0.00    -0.306 N 
ATOM     13  H   UNL     1      -0.310  -5.099  -3.340  0.00  0.00    +0.170 HD
ENDROOT
BRANCH   1  14
ATOM     14  C   UNL     1      -1.155  -0.970   0.009  0.00  0.00    +0.120 C 
BRANCH  14  19
ATOM     15  C   UNL     1      -0.016   1.345   0.009  0.00  0.00    +0.017 A 
ATOM     16  C   UNL     1       1.189   2.066   0.002  0.00  0.00    -0.037 A 
ATOM     17  C   UNL     1       2.330   1.335  -0.017  0.00  0.00    -0.007 A 
ATOM     18  S   UNL     1       1.753  -0.347  -0.017  0.00  0.00    -0.096 S 
ATOM     19  C   UNL     1       0.002  -0.004   0.002  0.00  0.00    +0.011 A 
ATOM     20  C   UNL     1       3.557   2.200  -0.032  0.00  0.00    +0.043 C 
ATOM     21  C   UNL     1       3.045   3.595  -0.452  0.00  0.00    +0.010 C 
ATOM     22  C   UNL     1       1.576   3.547   0.013  0.00  0.00    +0.036 C 
ENDBRANCH  14  19
BRANCH  14  23
ATOM     23  N   UNL     1      -0.842  -2.103   0.890  0.00  0.00    -0.320 NA
ATOM     24  H   UNL     1      -0.016  -2.589   0.574  0.00  0.00    +0.119 HD
ATOM     25  H   UNL     1      -0.739  -1.799   1.846  0.00  0.00    +0.119 HD
ENDBRANCH  14  23
ENDBRANCH   1  14
TORSDOF 3
