REMARK  Name = ZINC11540759
REMARK  9 active torsions:
REMARK  status: ('A' for Active; 'I' for Inactive)
REMARK    1  A    between atoms: C_1  and  C_2
REMARK    2  A    between atoms: C_2  and  C_3
REMARK    3  A    between atoms: C_3  and  C_5
REMARK    4  A    between atoms: C_3  and  C_6
REMARK    5  A    between atoms: C_9  and  N_12
REMARK    6  A    between atoms: C_22  and  S_23
REMARK    7  A    between atoms: S_23  and  C_24
REMARK    8  A    between atoms: C_24  and  C_25
REMARK    9  A    between atoms: N_30  and  C_31
REMARK                            x       y       z     vdW  Elec       q    Type
REMARK                         _______ _______ _______ _____ _____    ______ ____
ROOT
ATOM      1  N   UNL     1       2.357   3.889  -0.001  0.00  0.00    -0.255 N 
ATOM      2  C   UNL     1       3.535   3.229   0.087  0.00  0.00    +0.267 A 
ATOM      3  O   UNL     1       3.572   2.015   0.174  0.00  0.00    -0.267 OA
ATOM      4  C   UNL     1       4.766   4.029   0.074  0.00  0.00    +0.065 A 
ATOM      5  C   UNL     1       6.027   3.440   0.160  0.00  0.00    +0.017 A 
ATOM      6  C   UNL     1       7.144   4.227   0.144  0.00  0.00    +0.021 A 
ATOM      7  C   UNL     1       7.038   5.610   0.043  0.00  0.00    +0.043 A 
ATOM      8  C   UNL     1       5.805   6.218  -0.043  0.00  0.00    +0.048 A 
ATOM      9  C   UNL     1       4.647   5.434  -0.029  0.00  0.00    +0.080 A 
ATOM     10  N   UNL     1       3.415   5.989  -0.111  0.00  0.00    -0.223 NA
ATOM     11  C   UNL     1       2.331   5.253  -0.103  0.00  0.00    +0.177 A 
ATOM     12 CL   UNL     1       8.476   6.581   0.026  0.00  0.00    -0.083 Cl
ENDROOT
BRANCH   1  16
ATOM     13  C   UNL     1      -1.216   1.745   0.024  0.00  0.00    -0.044 A 
ATOM     14  C   UNL     1      -0.671   2.191   1.214  0.00  0.00    +0.006 A 
ATOM     15  C   UNL     1       0.514   2.900   1.209  0.00  0.00    +0.026 A 
ATOM     16  C   UNL     1       1.155   3.170   0.008  0.00  0.00    +0.052 A 
ATOM     17  C   UNL     1       0.602   2.726  -1.186  0.00  0.00    +0.026 A 
ATOM     18  C   UNL     1      -0.583   2.017  -1.175  0.00  0.00    +0.006 A 
BRANCH  13  19
ATOM     19  C   UNL     1      -2.506   0.966   0.033  0.00  0.00    +0.016 C 
ATOM     20  C   UNL     1      -3.560   1.714  -0.786  0.00  0.00    +0.012 C 
BRANCH  19  22
ATOM     21  C   UNL     1      -3.547  -1.252  -0.456  0.00  0.00    +0.004 C 
ATOM     22  C   UNL     1      -2.271  -0.417  -0.579  0.00  0.00    +0.004 C 
ENDBRANCH  19  22
ENDBRANCH  13  19
ENDBRANCH   1  16
BRANCH  11  23
ATOM     23  S   UNL     1       0.768   6.058  -0.220  0.00  0.00    -0.078 S 
BRANCH  23  24
ATOM     24  C   UNL     1       1.310   7.782  -0.328  0.00  0.00    +0.173 C 
BRANCH  24  25
ATOM     25  C   UNL     1       0.105   8.680  -0.440  0.00  0.00    +0.231 C 
ATOM     26  O   UNL     1      -1.009   8.203  -0.446  0.00  0.00    -0.274 OA
ATOM     27  N   UNL     1       0.266  10.015  -0.532  0.00  0.00    -0.240 N 
ATOM     28  C   UNL     1      -0.811  10.819  -0.632  0.00  0.00    +0.306 C 
ATOM     29  O   UNL     1      -1.928  10.340  -0.638  0.00  0.00    -0.252 OA
ATOM     30  N   UNL     1      -0.649  12.154  -0.725  0.00  0.00    -0.302 N 
ATOM     31  C   UNL     1      -1.820  13.027  -0.834  0.00  0.00    +0.129 C 
ATOM     32  H   UNL     1       1.158  10.397  -0.528  0.00  0.00    +0.159 HD
ATOM     33  H   UNL     1       0.242  12.536  -0.720  0.00  0.00    +0.150 HD
ENDBRANCH  24  25
ENDBRANCH  23  24
ENDBRANCH  11  23
TORSDOF 6
