REMARK  Name = ZINC36303968
REMARK  15 active torsions:
REMARK  status: ('A' for Active; 'I' for Inactive)
REMARK    1  A    between atoms: C_1  and  C_2
REMARK    2  A    between atoms: C_3  and  C_22
REMARK    3  A    between atoms: C_4  and  O_13
REMARK    4  A    between atoms: N_5  and  C_7
REMARK    5  A    between atoms: O_13  and  C_14
REMARK    6  A    between atoms: C_22  and  N_23
REMARK    7  A    between atoms: N_23  and  C_24
REMARK    8  A    between atoms: N_23  and  C_35
REMARK    9  A    between atoms: C_24  and  C_25
REMARK   10  A    between atoms: C_25  and  C_27
REMARK   11  A    between atoms: C_25  and  O_34
REMARK   12  A    between atoms: C_27  and  C_28
REMARK   13  A    between atoms: C_35  and  C_36
REMARK   14  A    between atoms: C_36  and  C_37
REMARK   15  A    between atoms: C_36  and  C_38
REMARK                            x       y       z     vdW  Elec       q    Type
REMARK                         _______ _______ _______ _____ _____    ______ ____
ROOT
ATOM      1  C   UNL     1       0.314   1.866   0.986  0.00  0.00    +0.068 C 
ATOM      2  C   UNL     1       0.567   0.395   0.780  0.00  0.00    +0.065 A 
ATOM      3  C   UNL     1       0.441  -0.294  -0.430  0.00  0.00    +0.021 A 
ATOM      4  C   UNL     1       0.755  -1.598  -0.203  0.00  0.00    +0.225 A 
ATOM      5  N   UNL     1       1.070  -1.718   1.115  0.00  0.00    -0.200 N 
ATOM      6  N   UNL     1       0.948  -0.452   1.702  0.00  0.00    -0.168 NA
ENDROOT
BRANCH   5   7
ATOM      7  C   UNL     1       1.454  -2.898   1.768  0.00  0.00    +0.069 A 
ATOM      8  C   UNL     1       0.773  -4.083   1.520  0.00  0.00    +0.028 A 
ATOM      9  C   UNL     1       1.154  -5.243   2.165  0.00  0.00    +0.002 A 
ATOM     10  C   UNL     1       2.211  -5.226   3.056  0.00  0.00    +0.000 A 
ATOM     11  C   UNL     1       2.891  -4.048   3.304  0.00  0.00    +0.002 A 
ATOM     12  C   UNL     1       2.518  -2.885   2.659  0.00  0.00    +0.028 A 
ENDBRANCH   5   7
BRANCH   4  13
ATOM     13  O   UNL     1       0.755  -2.595  -1.123  0.00  0.00    -0.435 OA
BRANCH  13  14
ATOM     14  C   UNL     1      -0.415  -3.247  -1.358  0.00  0.00    +0.166 A 
ATOM     15  C   UNL     1      -1.584  -2.816  -0.750  0.00  0.00    +0.052 A 
ATOM     16  C   UNL     1      -2.772  -3.479  -0.990  0.00  0.00    +0.042 A 
ATOM     17  C   UNL     1      -2.797  -4.573  -1.838  0.00  0.00    +0.126 A 
ATOM     18  C   UNL     1      -1.632  -5.006  -2.447  0.00  0.00    +0.080 A 
ATOM     19  C   UNL     1      -0.441  -4.341  -2.214  0.00  0.00    +0.168 A 
ATOM     20  F   UNL     1       0.695  -4.760  -2.812  0.00  0.00    -0.202 F 
ATOM     21  F   UNL     1      -3.961  -5.220  -2.070  0.00  0.00    -0.205 F 
ENDBRANCH  13  14
ENDBRANCH   4  13
BRANCH   3  22
ATOM     22  C   UNL     1       0.028   0.301  -1.751  0.00  0.00    -0.036 C 
BRANCH  22  23
ATOM     23  N   UNL     1       1.221   0.764  -2.473  0.00  0.00    +0.384 N 
ATOM     24  H   UNL     1       1.723   1.427  -1.902  0.00  0.00    -0.081 HD
BRANCH  23  25
ATOM     25  C   UNL     1       0.813   1.409  -3.729  0.00  0.00    -0.046 C 
BRANCH  25  26
ATOM     26  C   UNL     1       0.061   2.704  -3.417  0.00  0.00    +0.102 C 
BRANCH  26  27
ATOM     27  O   UNL     1      -1.200   2.391  -2.821  0.00  0.00    -0.393 OA
ATOM     28  H   UNL     1      -1.777   1.854  -3.381  0.00  0.00    +0.210 HD
ENDBRANCH  26  27
BRANCH  26  29
ATOM     29  C   UNL     1      -0.167   3.486  -4.712  0.00  0.00    +0.064 C 
BRANCH  29  30
ATOM     30  C   UNL     1      -0.798   4.817  -4.390  0.00  0.00    -0.045 A 
ATOM     31  C   UNL     1      -2.174   4.936  -4.342  0.00  0.00    +0.004 A 
ATOM     32  C   UNL     1      -2.753   6.156  -4.048  0.00  0.00    +0.000 A 
ATOM     33  C   UNL     1      -1.955   7.257  -3.800  0.00  0.00    +0.000 A 
ATOM     34  C   UNL     1      -0.579   7.138  -3.848  0.00  0.00    +0.000 A 
ATOM     35  C   UNL     1       0.000   5.917  -4.138  0.00  0.00    +0.004 A 
ENDBRANCH  29  30
ENDBRANCH  26  29
ENDBRANCH  25  26
ENDBRANCH  23  25
BRANCH  23  36
ATOM     36  C   UNL     1       2.089  -0.383  -2.771  0.00  0.00    -0.075 C 
BRANCH  36  37
ATOM     37  C   UNL     1       3.379   0.112  -3.428  0.00  0.00    -0.034 C 
ATOM     38  C   UNL     1       4.115   1.047  -2.466  0.00  0.00    +0.005 C 
ATOM     39  C   UNL     1       4.273  -1.085  -3.760  0.00  0.00    +0.005 C 
ENDBRANCH  36  37
ENDBRANCH  23  36
ENDBRANCH  22  23
ENDBRANCH   3  22
TORSDOF 12
