REMARK  Name = ZINC38981409
REMARK  6 active torsions:
REMARK  status: ('A' for Active; 'I' for Inactive)
REMARK    1  A    between atoms: C_1  and  O_2
REMARK    2  A    between atoms: O_2  and  C_3
REMARK    3  A    between atoms: C_8  and  C_9
REMARK    4  A    between atoms: N_15  and  N_16
REMARK    5  A    between atoms: C_17  and  C_18
REMARK    6  A    between atoms: C_23  and  O_24
REMARK                            x       y       z     vdW  Elec       q    Type
REMARK                         _______ _______ _______ _____ _____    ______ ____
ROOT
ATOM      1  C   UNL     1       0.058  -2.912  -0.162  0.00  0.00    +0.267 C 
ATOM      2  N   UNL     1      -1.212  -2.235  -0.466  0.00  0.00    -0.189 NA
ATOM      3  N   UNL     1      -2.131  -2.927  -0.019  0.00  0.00    -0.219 N 
ATOM      4  C   UNL     1      -1.703  -4.063   0.595  0.00  0.00    +0.174 C 
ATOM      5  S   UNL     1      -2.724  -5.232   1.316  0.00  0.00    -0.015 S 
ATOM      6  N   UNL     1      -0.351  -4.136   0.551  0.00  0.00    -0.172 N 
ATOM      7  H   UNL     1      -3.067  -2.685  -0.099  0.00  0.00    +0.176 HD
ENDROOT
BRANCH   1  13
ATOM      8  C   UNL     1       0.959  -0.674   0.525  0.00  0.00    +0.127 A 
ATOM      9  C   UNL     1       1.749   0.119   1.345  0.00  0.00    +0.046 A 
ATOM     10  C   UNL     1       2.498  -0.459   2.351  0.00  0.00    +0.004 A 
ATOM     11  C   UNL     1       2.461  -1.828   2.542  0.00  0.00    +0.001 A 
ATOM     12  C   UNL     1       1.675  -2.621   1.727  0.00  0.00    +0.011 A 
ATOM     13  C   UNL     1       0.920  -2.047   0.722  0.00  0.00    +0.039 A 
BRANCH   8  15
ATOM     14  C   UNL     1       0.310   1.311  -0.610  0.00  0.00    +0.277 C 
ATOM     15  O   UNL     1       0.221  -0.108  -0.465  0.00  0.00    -0.495 OA
ENDBRANCH   8  15
ENDBRANCH   1  13
BRANCH   6  16
ATOM     16  N   UNL     1       0.474  -5.144   1.067  0.00  0.00    -0.183 NA
ATOM     17  C   UNL     1      -0.053  -6.221   1.567  0.00  0.00    +0.142 C 
BRANCH  17  18
ATOM     18  C   UNL     1       0.802  -7.215   2.240  0.00  0.00    +0.037 A 
ATOM     19  C   UNL     1       0.241  -8.377   2.774  0.00  0.00    +0.028 A 
ATOM     20  C   UNL     1       1.047  -9.304   3.402  0.00  0.00    +0.019 A 
ATOM     21  C   UNL     1       2.412  -9.087   3.505  0.00  0.00    +0.019 A 
ATOM     22  C   UNL     1       2.978  -7.941   2.980  0.00  0.00    +0.047 A 
ATOM     23  C   UNL     1       2.184  -7.002   2.342  0.00  0.00    +0.126 A 
ATOM     24 BR   UNL     1       0.287 -10.877   4.125  0.00  0.00    -0.050 Br
BRANCH  23  25
ATOM     25  O   UNL     1       2.741  -5.878   1.821  0.00  0.00    -0.506 OA
ATOM     26  H   UNL     1       2.782  -5.136   2.440  0.00  0.00    +0.292 HD
ENDBRANCH  23  25
ENDBRANCH  17  18
ENDBRANCH   6  16
TORSDOF 5
