REMARK  Name = ZINC51318331
REMARK  13 active torsions:
REMARK  status: ('A' for Active; 'I' for Inactive)
REMARK    1  A    between atoms: C_1  and  C_2
REMARK    2  A    between atoms: C_5  and  C_8
REMARK    3  A    between atoms: C_10  and  C_31
REMARK    4  A    between atoms: C_11  and  C_16
REMARK    5  A    between atoms: C_16  and  N_17
REMARK    6  A    between atoms: C_20  and  N_23
REMARK    7  A    between atoms: C_24  and  O_26
REMARK    8  A    between atoms: O_26  and  C_27
REMARK    9  A    between atoms: C_27  and  C_28
REMARK   10  A    between atoms: C_27  and  C_29
REMARK   11  A    between atoms: C_27  and  C_30
REMARK   12  A    between atoms: C_31  and  O_33
REMARK   13  A    between atoms: O_33  and  C_34
REMARK                            x       y       z     vdW  Elec       q    Type
REMARK                         _______ _______ _______ _____ _____    ______ ____
ROOT
ATOM      1  C   UNL     1       0.043  -4.036   0.522  0.00  0.00    +0.143 C 
ATOM      2  C   UNL     1       1.473  -4.470   0.771  0.00  0.00    +0.076 C 
ATOM      3  C   UNL     1       1.682  -5.734   1.196  0.00  0.00    +0.008 C 
ATOM      4  N   UNL     1       0.638  -6.592   1.395  0.00  0.00    -0.274 N 
ATOM      5  C   UNL     1      -0.643  -6.262   1.192  0.00  0.00    +0.304 C 
ATOM      6  O   UNL     1      -1.505  -7.095   1.397  0.00  0.00    -0.252 OA
ATOM      7  N   UNL     1      -1.009  -5.037   0.768  0.00  0.00    -0.288 N 
ATOM      8  H   UNL     1       0.837  -7.491   1.701  0.00  0.00    +0.156 HD
ATOM      9  H   UNL     1      -1.944  -4.820   0.628  0.00  0.00    +0.151 HD
ENDROOT
BRANCH   1  14
ATOM     10  C   UNL     1      -1.042   0.543   3.875  0.00  0.00    +0.044 C 
ATOM     11  C   UNL     1      -0.759  -0.651   3.001  0.00  0.00    -0.050 A 
ATOM     12  C   UNL     1      -0.382  -0.469   1.683  0.00  0.00    +0.004 A 
ATOM     13  C   UNL     1      -0.123  -1.565   0.881  0.00  0.00    +0.006 A 
ATOM     14  C   UNL     1      -0.239  -2.842   1.397  0.00  0.00    -0.022 A 
ATOM     15  C   UNL     1      -0.615  -3.024   2.715  0.00  0.00    +0.006 A 
ATOM     16  C   UNL     1      -0.871  -1.928   3.518  0.00  0.00    +0.004 A 
ENDBRANCH   1  14
BRANCH   2  17
ATOM     17  C   UNL     1       2.553  -3.580   0.564  0.00  0.00    +0.338 C 
ATOM     18  O   UNL     1       3.681  -3.908   0.881  0.00  0.00    -0.245 OA
BRANCH  17  19
ATOM     19  O   UNL     1       2.333  -2.368   0.013  0.00  0.00    -0.465 OA
ATOM     20  C   UNL     1       3.470  -1.521  -0.167  0.00  0.00    +0.280 C 
ENDBRANCH  17  19
ENDBRANCH   2  17
BRANCH   3  21
ATOM     21  C   UNL     1       3.089  -6.207   1.455  0.00  0.00    -0.026 C 
BRANCH  21  22
ATOM     22  N   UNL     1       3.486  -5.838   2.820  0.00  0.00    +0.383 N 
ATOM     23  C   UNL     1       2.654  -6.568   3.784  0.00  0.00    -0.077 C 
ATOM     24  C   UNL     1       3.009  -6.127   5.206  0.00  0.00    +0.004 C 
ATOM     25  C   UNL     1       4.486  -6.427   5.475  0.00  0.00    +0.073 C 
ATOM     26  C   UNL     1       5.340  -5.720   4.418  0.00  0.00    +0.004 C 
ATOM     27  C   UNL     1       4.900  -6.176   3.026  0.00  0.00    -0.077 C 
ATOM     28  H   UNL     1       3.357  -4.846   2.951  0.00  0.00    -0.081 HD
BRANCH  25  29
ATOM     29  N   UNL     1       4.851  -5.938   6.807  0.00  0.00    -0.278 N 
ATOM     30  C   UNL     1       5.885  -6.495   7.469  0.00  0.00    +0.401 C 
ATOM     31  O   UNL     1       6.514  -7.402   6.961  0.00  0.00    -0.226 OA
ATOM     32  H   UNL     1       4.349  -5.214   7.212  0.00  0.00    +0.152 HD
BRANCH  30  33
ATOM     33  O   UNL     1       6.220  -6.046   8.693  0.00  0.00    -0.445 OA
BRANCH  33  34
ATOM     34  C   UNL     1       7.326  -6.682   9.337  0.00  0.00    +0.107 C 
ATOM     35  C   UNL     1       8.581  -6.513   8.479  0.00  0.00    +0.055 C 
ATOM     36  C   UNL     1       7.555  -6.042  10.708  0.00  0.00    +0.055 C 
ATOM     37  C   UNL     1       7.025  -8.172   9.514  0.00  0.00    +0.055 C 
ENDBRANCH  33  34
ENDBRANCH  30  33
ENDBRANCH  25  29
ENDBRANCH  21  22
ENDBRANCH   3  21
TORSDOF 8
