REMARK  Name = ZINC60334128
REMARK  6 active torsions:
REMARK  status: ('A' for Active; 'I' for Inactive)
REMARK    1  A    between atoms: C_3  and  C_6
REMARK    2  A    between atoms: C_6  and  N_7
REMARK    3  A    between atoms: C_11  and  C_31
REMARK    4  A    between atoms: N_16  and  C_17
REMARK    5  A    between atoms: C_17  and  C_19
REMARK    6  A    between atoms: C_26  and  C_28
REMARK                            x       y       z     vdW  Elec       q    Type
REMARK                         _______ _______ _______ _____ _____    ______ ____
ROOT
ATOM      1  N   UNL     1       4.114   0.606   1.341  0.00  0.00    -0.304 N 
ATOM      2  C   UNL     1       4.417   1.723   2.113  0.00  0.00    +0.068 A 
ATOM      3  C   UNL     1       4.359   3.088   1.867  0.00  0.00    +0.028 A 
ATOM      4  C   UNL     1       4.733   3.980   2.852  0.00  0.00    +0.014 A 
ATOM      5  C   UNL     1       5.167   3.519   4.084  0.00  0.00    +0.057 A 
ATOM      6  C   UNL     1       5.228   2.164   4.338  0.00  0.00    +0.040 A 
ATOM      7  C   UNL     1       4.853   1.259   3.355  0.00  0.00    +0.066 A 
ATOM      8  N   UNL     1       4.807  -0.131   3.312  0.00  0.00    -0.326 N 
ATOM      9  C   UNL     1       4.352  -0.504   2.087  0.00  0.00    +0.202 A 
ATOM     10  N   UNL     1       4.171  -1.759   1.682  0.00  0.00    -0.146 NA
ATOM     11  H   UNL     1       5.054  -0.731   4.034  0.00  0.00    +0.169 HD
ENDROOT
BRANCH   5  12
ATOM     12  C   UNL     1       5.574   4.502   5.152  0.00  0.00    +0.417 C 
ATOM     13  F   UNL     1       5.429   5.806   4.665  0.00  0.00    -0.166 F 
ATOM     14  F   UNL     1       4.761   4.331   6.277  0.00  0.00    -0.166 F 
ATOM     15  F   UNL     1       6.910   4.282   5.503  0.00  0.00    -0.166 F 
ENDBRANCH   5  12
BRANCH  10  16
ATOM     16  C   UNL     1       4.541  -2.769   2.462  0.00  0.00    +0.244 C 
ATOM     17  O   UNL     1       4.955  -2.551   3.584  0.00  0.00    -0.273 OA
BRANCH  16  18
ATOM     18  C   UNL     1       4.446  -4.186   1.957  0.00  0.00    +0.094 C 
ATOM     19  C   UNL     1       5.322  -4.343   0.711  0.00  0.00    +0.016 C 
ATOM     20  C   UNL     1       5.201  -5.772   0.178  0.00  0.00    +0.020 C 
ATOM     21  C   UNL     1       5.695  -6.755   1.244  0.00  0.00    +0.108 C 
ATOM     22  N   UNL     1       4.956  -6.511   2.490  0.00  0.00    -0.301 N 
ATOM     23  C   UNL     1       4.931  -5.150   3.043  0.00  0.00    +0.120 C 
ATOM     24  C   UNL     1       4.313  -7.518   3.115  0.00  0.00    +0.219 C 
ATOM     25  O   UNL     1       3.707  -7.304   4.143  0.00  0.00    -0.275 OA
BRANCH  24  26
ATOM     26  C   UNL     1       4.347  -8.909   2.536  0.00  0.00    +0.075 C 
ATOM     27  C   UNL     1       3.041  -9.471   1.971  0.00  0.00    +0.013 C 
ATOM     28  C   UNL     1       3.598 -10.007   3.292  0.00  0.00    +0.013 C 
ENDBRANCH  24  26
ENDBRANCH  16  18
ENDBRANCH  10  16
BRANCH   1  29
ATOM     29  C   UNL     1       3.619   0.624  -0.037  0.00  0.00    +0.199 C 
BRANCH  29  32
ATOM     30  C   UNL     1       0.007   1.358  -0.017  0.00  0.00    +0.041 A 
ATOM     31  C   UNL     1       1.357   1.779  -0.022  0.00  0.00    +0.046 A 
ATOM     32  C   UNL     1       2.112   0.666  -0.029  0.00  0.00    +0.125 A 
ATOM     33  O   UNL     1       1.296  -0.400  -0.029  0.00  0.00    -0.466 OA
ATOM     34  C   UNL     1       0.019   0.013  -0.021  0.00  0.00    +0.195 A 
ENDBRANCH  29  32
ENDBRANCH   1  29
TORSDOF 6
