REMARK  Name = ZINC19821486
REMARK  3 active torsions:
REMARK  status: ('A' for Active; 'I' for Inactive)
REMARK    1  A    between atoms: C_4  and  C_7
REMARK    2  A    between atoms: C_7  and  N_8
REMARK    3  A    between atoms: C_9  and  C_11
REMARK                            x       y       z     vdW  Elec       q    Type
REMARK                         _______ _______ _______ _____ _____    ______ ____
ROOT
ATOM      1  C   UNL     1       2.396  -0.016  -0.653  0.00  0.00    +0.122 C 
ATOM      2  C   UNL     1       1.302  -0.756   0.118  0.00  0.00    +0.114 C 
ATOM      3  C   UNL     1       0.002  -0.004   0.002  0.00  0.00    +0.219 C 
ATOM      4  O   UNL     1      -1.039  -0.618  -0.099  0.00  0.00    -0.275 OA
ATOM      5  N   UNL     1      -0.016   1.340   0.009  0.00  0.00    -0.270 N 
ATOM      6  C   UNL     1       1.162   2.066   0.002  0.00  0.00    +0.138 A 
ATOM      7  C   UNL     1       2.361   1.446  -0.300  0.00  0.00    +0.069 A 
ATOM      8  C   UNL     1       3.541   2.197  -0.273  0.00  0.00    +0.258 A 
ATOM      9  O   UNL     1       4.616   1.677  -0.527  0.00  0.00    -0.267 OA
ATOM     10  N   UNL     1       3.467   3.508   0.041  0.00  0.00    -0.295 N 
ATOM     11  H   UNL     1       4.382   4.117   0.078  0.00  0.00    +0.172 HD
ATOM     12  C   UNL     1       2.261   4.077   0.312  0.00  0.00    +0.200 A 
ATOM     13  N   UNL     1       1.148   3.373   0.291  0.00  0.00    -0.200 NA
ATOM     14  N   UNL     1       2.203   5.411   0.614  0.00  0.00    -0.296 N 
ATOM     15  C   UNL     1       0.836   5.808   0.991  0.00  0.00    +0.113 C 
ATOM     16  C   UNL     1       0.897   7.181   1.660  0.00  0.00    +0.054 C 
ATOM     17  C   UNL     1       1.685   8.137   0.803  0.00  0.00    -0.041 A 
ATOM     18  C   UNL     1       1.561   9.497   1.044  0.00  0.00    +0.004 A 
ATOM     19  C   UNL     1       2.268  10.407   0.283  0.00  0.00    +0.000 A 
ATOM     20  C   UNL     1       3.104   9.960  -0.723  0.00  0.00    +0.000 A 
ATOM     21  C   UNL     1       3.227   8.607  -0.964  0.00  0.00    +0.005 A 
ATOM     22  C   UNL     1       2.515   7.691  -0.203  0.00  0.00    -0.027 A 
ATOM     23  C   UNL     1       2.676   6.225  -0.509  0.00  0.00    +0.143 C 
ATOM     24  H   UNL     1      -0.976   1.877   0.021  0.00  0.00    +0.156 HD
ENDROOT
BRANCH   1  26
ATOM     25  N   UNL     1       2.156  -1.411  -2.681  0.00  0.00    -0.311 N 
ATOM     26  C   UNL     1       2.166  -0.180  -2.133  0.00  0.00    +0.221 C 
ATOM     27  O   UNL     1       1.988   0.796  -2.831  0.00  0.00    -0.275 OA
ATOM     28  H   UNL     1       2.317  -2.297  -2.048  0.00  0.00    +0.149 HD
BRANCH  25  29
ATOM     29  C   UNL     1       1.932  -1.571  -4.120  0.00  0.00    +0.139 C 
BRANCH  29  33
ATOM     30  C   UNL     1       2.038  -5.721  -5.127  0.00  0.00    +0.000 A 
ATOM     31  C   UNL     1       0.842  -5.126  -4.772  0.00  0.00    +0.000 A 
ATOM     32  C   UNL     1       0.807  -3.783  -4.446  0.00  0.00    +0.005 A 
ATOM     33  C   UNL     1       1.969  -3.035  -4.475  0.00  0.00    -0.030 A 
ATOM     34  C   UNL     1       3.165  -3.629  -4.836  0.00  0.00    +0.005 A 
ATOM     35  C   UNL     1       3.200  -4.973  -5.157  0.00  0.00    +0.000 A 
ENDBRANCH  29  33
ENDBRANCH  25  29
ENDBRANCH   1  26
TORSDOF 3
