REMARK  Name = ZINC40980583
REMARK  12 active torsions:
REMARK  status: ('A' for Active; 'I' for Inactive)
REMARK    1  A    between atoms: C_1  and  C_2
REMARK    2  A    between atoms: C_2  and  C_3
REMARK    3  A    between atoms: C_3  and  S_4
REMARK    4  A    between atoms: S_4  and  C_5
REMARK    5  A    between atoms: C_10  and  C_22
REMARK    6  A    between atoms: C_16  and  C_20
REMARK    7  A    between atoms: C_16  and  C_21
REMARK    8  A    between atoms: C_24  and  O_32
REMARK    9  A    between atoms: C_25  and  O_29
REMARK   10  A    between atoms: O_29  and  C_30
REMARK   11  A    between atoms: C_30  and  C_31
REMARK   12  A    between atoms: O_32  and  C_33
REMARK                            x       y       z     vdW  Elec       q    Type
REMARK                         _______ _______ _______ _____ _____    ______ ____
ROOT
ATOM      1  C   UNL     1       1.589  -2.718  -2.758  0.00  0.00    +0.210 A 
ATOM      2  N   UNL     1       2.084  -1.835  -3.638  0.00  0.00    -0.187 NA
ATOM      3  C   UNL     1       2.645  -2.475  -4.628  0.00  0.00    +0.219 A 
ATOM      4  N   UNL     1       2.523  -3.804  -4.394  0.00  0.00    -0.220 N 
ATOM      5  N   UNL     1       1.843  -3.937  -3.184  0.00  0.00    -0.141 NA
ATOM      6  C   UNL     1       3.048  -4.828  -5.290  0.00  0.00    +0.176 C 
ATOM      7  C   UNL     1       3.413  -4.212  -6.622  0.00  0.00    +0.041 C 
ATOM      8  C   UNL     1       3.507  -2.876  -6.794  0.00  0.00    +0.020 C 
ATOM      9  N   UNL     1       3.276  -1.995  -5.764  0.00  0.00    -0.287 N 
ATOM     10  C   UNL     1       3.867  -2.289  -8.138  0.00  0.00    +0.058 C 
ATOM     11  C   UNL     1       4.781  -3.255  -8.894  0.00  0.00    -0.023 C 
ATOM     12  C   UNL     1       4.047  -4.591  -9.051  0.00  0.00    +0.086 C 
ATOM     13  C   UNL     1       3.655  -5.095  -7.690  0.00  0.00    +0.164 C 
ATOM     14  O   UNL     1       3.544  -6.291  -7.509  0.00  0.00    -0.292 OA
ATOM     15  C   UNL     1       5.110  -2.682 -10.274  0.00  0.00    +0.011 C 
ATOM     16  C   UNL     1       6.074  -3.467  -8.102  0.00  0.00    +0.011 C 
ATOM     17  H   UNL     1       3.547  -1.066  -5.830  0.00  0.00    +0.155 HD
ENDROOT
BRANCH   6  18
ATOM     18  C   UNL     1       4.276  -5.449  -4.676  0.00  0.00    -0.014 A 
ATOM     19  C   UNL     1       4.303  -6.805  -4.410  0.00  0.00    +0.055 A 
ATOM     20  C   UNL     1       5.431  -7.378  -3.845  0.00  0.00    +0.163 A 
ATOM     21  C   UNL     1       6.535  -6.586  -3.547  0.00  0.00    +0.176 A 
ATOM     22  C   UNL     1       6.502  -5.227  -3.816  0.00  0.00    +0.063 A 
ATOM     23  C   UNL     1       5.374  -4.662  -4.384  0.00  0.00    +0.025 A 
ATOM     24 BR   UNL     1       8.000  -4.146  -3.412  0.00  0.00    -0.046 Br
BRANCH  20  25
ATOM     25  O   UNL     1       5.459  -8.713  -3.582  0.00  0.00    -0.491 OA
ATOM     26  C   UNL     1       4.289  -9.463  -3.914  0.00  0.00    +0.277 C 
ENDBRANCH  20  25
BRANCH  21  27
ATOM     27  O   UNL     1       7.645  -7.144  -2.992  0.00  0.00    -0.487 OA
BRANCH  27  28
ATOM     28  C   UNL     1       8.645  -7.629  -3.889  0.00  0.00    +0.226 C 
ATOM     29  C   UNL     1       9.808  -8.217  -3.088  0.00  0.00    +0.048 C 
ENDBRANCH  27  28
ENDBRANCH  21  27
ENDBRANCH   6  18
BRANCH   1  30
ATOM     30  S   UNL     1       0.743  -2.311  -1.267  0.00  0.00    -0.084 S 
BRANCH  30  31
ATOM     31  C   UNL     1       0.718  -0.497  -1.257  0.00  0.00    +0.077 C 
BRANCH  31  33
ATOM     32  C   UNL     1      -0.019   1.526   0.010  0.00  0.00    +0.004 C 
ATOM     33  C   UNL     1       0.002  -0.004   0.002  0.00  0.00    +0.008 C 
ENDBRANCH  31  33
ENDBRANCH  30  31
ENDBRANCH   1  30
TORSDOF 7
