REMARK  Name = ZINC03082668
REMARK  6 active torsions:
REMARK  status: ('A' for Active; 'I' for Inactive)
REMARK    1  A    between atoms: C_4  and  C_7
REMARK    2  A    between atoms: C_7  and  N_8
REMARK    3  A    between atoms: C_9  and  C_10
REMARK    4  A    between atoms: C_13  and  O_17
REMARK    5  A    between atoms: O_17  and  C_18
REMARK    6  A    between atoms: C_18  and  C_20
REMARK                            x       y       z     vdW  Elec       q    Type
REMARK                         _______ _______ _______ _____ _____    ______ ____
ROOT
ATOM      1  C   UNL     1       4.682  -2.411   3.168  0.00  0.00    -0.007 A 
ATOM      2  C   UNL     1       5.004  -1.337   4.002  0.00  0.00    +0.028 A 
ATOM      3  C   UNL     1       5.417  -1.572   5.296  0.00  0.00    +0.062 A 
ATOM      4  C   UNL     1       5.516  -2.875   5.771  0.00  0.00    +0.160 A 
ATOM      5  C   UNL     1       5.197  -3.946   4.943  0.00  0.00    +0.062 A 
ATOM      6  C   UNL     1       4.777  -3.719   3.650  0.00  0.00    +0.028 A 
ATOM      7 BR   UNL     1       5.332  -5.716   5.595  0.00  0.00    -0.046 Br
ATOM      8 BR   UNL     1       5.853  -0.120   6.426  0.00  0.00    -0.046 Br
ENDROOT
BRANCH   1  10
ATOM      9  N   UNL     1       4.152  -0.952   1.338  0.00  0.00    -0.386 N 
ATOM     10  C   UNL     1       4.239  -2.164   1.783  0.00  0.00    +0.086 C 
ATOM     11  H   UNL     1       4.378  -0.206   1.915  0.00  0.00    +0.159 HD
BRANCH   9  12
ATOM     12  C   UNL     1       3.711  -0.707  -0.038  0.00  0.00    +0.147 C 
BRANCH  12  16
ATOM     13  C   UNL     1      -0.017   1.378   0.010  0.00  0.00    +0.000 A 
ATOM     14  C   UNL     1       1.171   2.086   0.002  0.00  0.00    +0.000 A 
ATOM     15  C   UNL     1       2.377   1.411  -0.013  0.00  0.00    +0.005 A 
ATOM     16  C   UNL     1       2.396   0.029  -0.020  0.00  0.00    -0.028 A 
ATOM     17  C   UNL     1       1.208  -0.679  -0.012  0.00  0.00    +0.005 A 
ATOM     18  C   UNL     1       0.002  -0.004   0.002  0.00  0.00    +0.000 A 
ENDBRANCH  12  16
ENDBRANCH   9  12
ENDBRANCH   1  10
BRANCH   4  19
ATOM     19  O   UNL     1       5.924  -3.103   7.045  0.00  0.00    -0.420 OA
BRANCH  19  20
ATOM     20  C   UNL     1       4.986  -3.158   8.010  0.00  0.00    +0.345 C 
ATOM     21  O   UNL     1       3.814  -3.007   7.727  0.00  0.00    -0.245 OA
BRANCH  20  22
ATOM     22  C   UNL     1       5.381  -3.403   9.412  0.00  0.00    +0.059 A 
ATOM     23  C   UNL     1       6.728  -3.572   9.742  0.00  0.00    +0.015 A 
ATOM     24  C   UNL     1       7.090  -3.800  11.053  0.00  0.00    +0.001 A 
ATOM     25  C   UNL     1       6.123  -3.862  12.041  0.00  0.00    +0.000 A 
ATOM     26  C   UNL     1       4.787  -3.696  11.721  0.00  0.00    +0.001 A 
ATOM     27  C   UNL     1       4.411  -3.462  10.415  0.00  0.00    +0.015 A 
ENDBRANCH  20  22
ENDBRANCH  19  20
ENDBRANCH   4  19
TORSDOF 6
