REMARK  Name = ZINC64062065
REMARK  8 active torsions:
REMARK  status: ('A' for Active; 'I' for Inactive)
REMARK    1  A    between atoms: C_1  and  C_2
REMARK    2  A    between atoms: C_4  and  C_36
REMARK    3  A    between atoms: C_6  and  N_8
REMARK    4  A    between atoms: C_9  and  O_35
REMARK    5  A    between atoms: C_12  and  O_34
REMARK    6  A    between atoms: C_13  and  C_17
REMARK    7  A    between atoms: C_24  and  O_29
REMARK    8  A    between atoms: O_29  and  C_30
REMARK                            x       y       z     vdW  Elec       q    Type
REMARK                         _______ _______ _______ _____ _____    ______ ____
ROOT
ATOM      1  N   UNL     1       0.059  -2.627   2.399  0.00  0.00    -0.225 N 
ATOM      2  C   UNL     1       0.010  -4.075   2.256  0.00  0.00    +0.338 C 
ATOM      3  N   UNL     1      -0.421  -4.731   3.480  0.00  0.00    -0.204 NA
ATOM      4  C   UNL     1      -0.368  -4.197   4.638  0.00  0.00    +0.200 C 
ATOM      5  C   UNL     1       0.147  -2.807   4.871  0.00  0.00    +0.179 C 
ATOM      6  C   UNL     1       0.136  -2.021   3.591  0.00  0.00    +0.237 C 
ATOM      7  O   UNL     1       0.195  -0.811   3.638  0.00  0.00    -0.274 OA
ENDROOT
BRANCH   5   8
ATOM      8  C   UNL     1       1.582  -2.882   5.397  0.00  0.00    +0.101 C 
ATOM      9  C   UNL     1       2.077  -1.477   5.748  0.00  0.00    +0.124 C 
ATOM     10  C   UNL     1       3.554  -1.619   6.096  0.00  0.00    -0.036 C 
ATOM     11  C   UNL     1       3.711  -1.080   7.296  0.00  0.00    +0.003 A 
ATOM     12  C   UNL     1       4.905  -0.842   8.121  0.00  0.00    +0.055 A 
ATOM     13  C   UNL     1       4.703  -0.266   9.338  0.00  0.00    +0.121 A 
ATOM     14  C   UNL     1       3.443   0.102   9.832  0.00  0.00    +0.047 A 
ATOM     15  C   UNL     1       2.278  -0.066   9.155  0.00  0.00    +0.029 A 
ATOM     16  C   UNL     1       2.369  -0.675   7.820  0.00  0.00    +0.043 A 
ATOM     17  N   UNL     1       1.424  -0.932   6.938  0.00  0.00    -0.376 N 
ATOM     18  C   UNL     1       4.514  -2.352   5.191  0.00  0.00    +0.048 C 
ATOM     19  C   UNL     1       3.830  -3.683   4.827  0.00  0.00    +0.085 C 
ATOM     20  N   UNL     1       2.463  -3.437   4.357  0.00  0.00    -0.310 NA
ATOM     21  H   UNL     1       2.064  -4.270   3.952  0.00  0.00    +0.122 HD
ATOM     22  H   UNL     1       0.471  -0.792   7.049  0.00  0.00    +0.160 HD
BRANCH  13  23
ATOM     23  O   UNL     1       5.788  -0.035  10.123  0.00  0.00    -0.495 OA
ATOM     24  C   UNL     1       5.551   0.570  11.396  0.00  0.00    +0.277 C 
ENDBRANCH  13  23
ENDBRANCH   5   8
BRANCH   1  30
ATOM     25  C   UNL     1       2.444  -0.502  -1.338  0.00  0.00    +0.044 C 
ATOM     26  C   UNL     1       1.170  -0.790  -0.586  0.00  0.00    -0.048 A 
ATOM     27  C   UNL     1      -0.031  -0.273  -1.037  0.00  0.00    +0.006 A 
ATOM     28  C   UNL     1      -1.202  -0.536  -0.350  0.00  0.00    -0.048 A 
ATOM     29  C   UNL     1      -1.176  -1.316   0.789  0.00  0.00    +0.027 A 
ATOM     30  C   UNL     1       0.029  -1.837   1.245  0.00  0.00    +0.041 A 
ATOM     31  C   UNL     1       1.202  -1.575   0.550  0.00  0.00    +0.027 A 
ATOM     32  C   UNL     1      -2.508   0.030  -0.845  0.00  0.00    +0.044 C 
ENDBRANCH   1  30
BRANCH   4  33
ATOM     33  O   UNL     1      -0.797  -4.913   5.698  0.00  0.00    -0.495 OA
ATOM     34  H   UNL     1      -1.115  -5.798   5.473  0.00  0.00    +0.293 HD
ENDBRANCH   4  33
BRANCH   2  35
ATOM     35  O   UNL     1      -0.901  -4.407   1.207  0.00  0.00    -0.356 OA
ATOM     36  H   UNL     1      -0.990  -5.357   1.050  0.00  0.00    +0.214 HD
ENDBRANCH   2  35
TORSDOF 5
