REMARK  Name = ZINC43864740
REMARK  7 active torsions:
REMARK  status: ('A' for Active; 'I' for Inactive)
REMARK    1  A    between atoms: C_1  and  C_2
REMARK    2  A    between atoms: C_2  and  C_3
REMARK    3  A    between atoms: C_6  and  C_9
REMARK    4  A    between atoms: C_9  and  C_11
REMARK    5  A    between atoms: C_9  and  N_14
REMARK    6  A    between atoms: C_11  and  C_12
REMARK    7  A    between atoms: C_11  and  C_13
REMARK                            x       y       z     vdW  Elec       q    Type
REMARK                         _______ _______ _______ _____ _____    ______ ____
ROOT
ATOM      1  N   UNL     1      -5.581  -3.002  -1.017  0.00  0.00    -0.292 N 
ATOM      2  C   UNL     1      -6.529  -3.954  -0.909  0.00  0.00    +0.303 C 
ATOM      3  O   UNL     1      -7.192  -4.038   0.107  0.00  0.00    -0.253 OA
ATOM      4  N   UNL     1      -6.743  -4.812  -1.926  0.00  0.00    -0.285 N 
ATOM      5  C   UNL     1      -7.850  -5.776  -1.873  0.00  0.00    +0.114 C 
ATOM      6  C   UNL     1      -7.292  -7.182  -2.112  0.00  0.00    +0.084 C 
ATOM      7  C   UNL     1      -6.503  -7.197  -3.423  0.00  0.00    +0.173 C 
ATOM      8  C   UNL     1      -5.332  -6.216  -3.338  0.00  0.00    +0.084 C 
ATOM      9  C   UNL     1      -5.876  -4.796  -3.112  0.00  0.00    +0.114 C 
ATOM     10  O   UNL     1      -6.005  -8.519  -3.669  0.00  0.00    -0.346 OA
ATOM     11  C   UNL     1      -6.558  -8.957  -4.927  0.00  0.00    +0.191 C 
ATOM     12  C   UNL     1      -6.935  -7.627  -5.626  0.00  0.00    +0.191 C 
ATOM     13  O   UNL     1      -7.367  -6.817  -4.506  0.00  0.00    -0.346 OA
ATOM     14  H   UNL     1      -5.001  -2.982  -1.794  0.00  0.00    +0.151 HD
ENDROOT
BRANCH   1  15
ATOM     15  C   UNL     1      -5.426  -1.999   0.039  0.00  0.00    +0.107 C 
BRANCH  15  19
ATOM     16  C   UNL     1      -1.423  -0.507   0.008  0.00  0.00    -0.048 A 
ATOM     17  C   UNL     1      -2.063  -0.746   1.210  0.00  0.00    +0.004 A 
ATOM     18  C   UNL     1      -3.358  -1.229   1.220  0.00  0.00    +0.006 A 
ATOM     19  C   UNL     1      -4.014  -1.472   0.028  0.00  0.00    -0.027 A 
ATOM     20  C   UNL     1      -3.375  -1.232  -1.174  0.00  0.00    +0.006 A 
ATOM     21  C   UNL     1      -2.081  -0.745  -1.184  0.00  0.00    +0.004 A 
BRANCH  16  23
ATOM     22  C   UNL     1      -0.037   1.549   0.002  0.00  0.00    +0.009 C 
ATOM     23  C   UNL     1      -0.011   0.019  -0.003  0.00  0.00    +0.032 C 
ENDBRANCH  16  23
ENDBRANCH  15  19
BRANCH  15  24
ATOM     24  C   UNL     1      -6.402  -0.847  -0.206  0.00  0.00    +0.008 C 
ATOM     25  C   UNL     1      -7.836  -1.381  -0.195  0.00  0.00    +0.009 C 
ATOM     26  C   UNL     1      -6.241   0.202   0.897  0.00  0.00    +0.009 C 
ENDBRANCH  15  24
ENDBRANCH   1  15
TORSDOF 4
