REMARK  Name = ZINC13064562
REMARK  16 active torsions:
REMARK  status: ('A' for Active; 'I' for Inactive)
REMARK    1  A    between atoms: C_1  and  C_2
REMARK    2  A    between atoms: C_2  and  C_3
REMARK    3  A    between atoms: C_3  and  C_5
REMARK    4  A    between atoms: C_3  and  N_72
REMARK    5  A    between atoms: N_9  and  C_10
REMARK    6  A    between atoms: C_10  and  C_11
REMARK    7  A    between atoms: C_10  and  C_12
REMARK    8  A    between atoms: C_10  and  C_13
REMARK    9  A    between atoms: C_14  and  C_15
REMARK   10  A    between atoms: C_14  and  N_72
REMARK   11  A    between atoms: C_20  and  O_21
REMARK   12  A    between atoms: O_21  and  C_22
REMARK   13  A    between atoms: C_23  and  C_24
REMARK   14  A    between atoms: C_23  and  N_72
REMARK   15  A    between atoms: C_28  and  C_37
REMARK   16  A    between atoms: C_29  and  C_36
REMARK                            x       y       z     vdW  Elec       q    Type
REMARK                         _______ _______ _______ _____ _____    ______ ____
ROOT
ATOM      1  N   UNL     1      -4.783   4.420  -1.114  0.00  0.00    +0.392 N 
ATOM      2  H   UNL     1      -4.050   5.061  -1.440  0.00  0.00    -0.080 HD
ENDROOT
BRANCH   1   3
ATOM      3  C   UNL     1      -4.528   3.076  -1.673  0.00  0.00    +0.003 C 
BRANCH   3   4
ATOM      4  C   UNL     1      -4.049   3.227  -3.094  0.00  0.00    +0.139 A 
ATOM      5  N   UNL     1      -4.712   2.914  -4.181  0.00  0.00    -0.115 NA
ATOM      6  N   UNL     1      -3.967   3.193  -5.195  0.00  0.00    -0.023 NA
ATOM      7  N   UNL     1      -2.844   3.668  -4.783  0.00  0.00    -0.043 NA
ATOM      8  N   UNL     1      -2.856   3.705  -3.494  0.00  0.00    -0.226 N 
BRANCH   8   9
ATOM      9  C   UNL     1      -1.774   4.179  -2.627  0.00  0.00    +0.059 C 
ATOM     10  C   UNL     1      -1.375   3.067  -1.655  0.00  0.00    +0.036 C 
ATOM     11  C   UNL     1      -0.567   4.566  -3.483  0.00  0.00    +0.036 C 
ATOM     12  C   UNL     1      -2.251   5.400  -1.837  0.00  0.00    +0.036 C 
ENDBRANCH   8   9
ENDBRANCH   3   4
BRANCH   3  14
ATOM     13  C   UNL     1      -6.305   2.101  -0.212  0.00  0.00    +0.002 C 
ATOM     14  C   UNL     1      -5.807   2.236  -1.653  0.00  0.00    -0.011 C 
ENDBRANCH   3  14
ENDBRANCH   1   3
BRANCH   1  15
ATOM     15  C   UNL     1      -6.096   4.918  -1.575  0.00  0.00    -0.038 C 
BRANCH  15  16
ATOM     16  C   UNL     1      -5.969   5.359  -3.010  0.00  0.00    -0.022 A 
ATOM     17  C   UNL     1      -5.176   6.444  -3.332  0.00  0.00    +0.005 A 
ATOM     18  C   UNL     1      -5.056   6.846  -4.649  0.00  0.00    +0.000 A 
ATOM     19  C   UNL     1      -5.737   6.172  -5.646  0.00  0.00    +0.004 A 
ATOM     20  C   UNL     1      -6.536   5.091  -5.328  0.00  0.00    +0.046 A 
ATOM     21  C   UNL     1      -6.654   4.681  -4.008  0.00  0.00    +0.121 A 
BRANCH  21  22
ATOM     22  O   UNL     1      -7.439   3.618  -3.693  0.00  0.00    -0.495 OA
ATOM     23  C   UNL     1      -8.186   3.025  -4.757  0.00  0.00    +0.277 C 
ENDBRANCH  21  22
ENDBRANCH  15  16
ENDBRANCH   1  15
BRANCH   1  24
ATOM     24  C   UNL     1      -4.752   4.367   0.362  0.00  0.00    -0.036 C 
BRANCH  24  25
ATOM     25  C   UNL     1      -3.315   4.301   0.814  0.00  0.00    +0.001 A 
ATOM     26  C   UNL     1      -2.639   5.445   1.083  0.00  0.00    +0.017 A 
ATOM     27  C   UNL     1      -1.243   5.347   1.515  0.00  0.00    -0.001 A 
ATOM     28  C   UNL     1      -0.489   6.492   1.791  0.00  0.00    +0.013 A 
ATOM     29  C   UNL     1       0.811   6.367   2.192  0.00  0.00    -0.047 A 
ATOM     30  C   UNL     1       1.390   5.113   2.327  0.00  0.00    -0.046 A 
ATOM     31  C   UNL     1       0.666   3.971   2.060  0.00  0.00    +0.030 A 
ATOM     32  C   UNL     1      -0.657   4.074   1.646  0.00  0.00    +0.049 A 
ATOM     33  N   UNL     1      -1.403   2.949   1.366  0.00  0.00    -0.322 N 
ATOM     34  H   UNL     1      -0.999   2.072   1.461  0.00  0.00    +0.169 HD
ATOM     35  C   UNL     1      -2.683   3.049   0.966  0.00  0.00    +0.251 A 
ATOM     36  O   UNL     1      -3.312   2.033   0.728  0.00  0.00    -0.268 OA
ATOM     37  C   UNL     1       2.826   4.999   2.770  0.00  0.00    +0.044 C 
ATOM     38  C   UNL     1       1.623   7.601   2.489  0.00  0.00    +0.044 C 
ENDBRANCH  24  25
ENDBRANCH   1  24
TORSDOF 9
