REMARK  Name = ZINC13215643
REMARK  11 active torsions:
REMARK  status: ('A' for Active; 'I' for Inactive)
REMARK    1  A    between atoms: C_1  and  C_2
REMARK    2  A    between atoms: C_5  and  C_8
REMARK    3  A    between atoms: C_8  and  C_10
REMARK    4  A    between atoms: N_14  and  C_27
REMARK    5  A    between atoms: C_15  and  C_17
REMARK    6  A    between atoms: C_20  and  O_25
REMARK    7  A    between atoms: C_21  and  O_23
REMARK    8  A    between atoms: O_23  and  C_24
REMARK    9  A    between atoms: O_25  and  C_26
REMARK   10  A    between atoms: C_29  and  C_34
REMARK   11  A    between atoms: C_32  and  C_33
REMARK                            x       y       z     vdW  Elec       q    Type
REMARK                         _______ _______ _______ _____ _____    ______ ____
ROOT
ATOM      1  C   UNL     1       0.128  -4.942   1.359  0.00  0.00    +0.077 C 
ATOM      2  C   UNL     1       0.226  -6.265   1.631  0.00  0.00    +0.250 C 
ATOM      3  C   UNL     1       0.262  -6.459   3.095  0.00  0.00    +0.292 C 
ATOM      4  O   UNL     1       0.347  -7.534   3.654  0.00  0.00    -0.266 OA
ATOM      5  N   UNL     1       0.186  -5.269   3.718  0.00  0.00    -0.253 N 
ATOM      6  C   UNL     1       0.102  -4.225   2.689  0.00  0.00    +0.150 C 
ATOM      7  O   UNL     1       0.283  -7.252   0.708  0.00  0.00    -0.282 OA
ENDROOT
BRANCH   5   8
ATOM      8  C   UNL     1       0.191  -5.062   5.100  0.00  0.00    +0.041 A 
ATOM      9  C   UNL     1       1.391  -4.869   5.768  0.00  0.00    +0.039 A 
ATOM     10  C   UNL     1       1.391  -4.663   7.149  0.00  0.00    +0.065 A 
ATOM     11  C   UNL     1       0.180  -4.654   7.848  0.00  0.00    +0.015 A 
ATOM     12  C   UNL     1      -1.007  -4.847   7.173  0.00  0.00    +0.006 A 
ATOM     13  C   UNL     1      -1.007  -5.045   5.805  0.00  0.00    -0.029 A 
ATOM     14  C   UNL     1      -2.309  -5.250   5.076  0.00  0.00    +0.045 C 
BRANCH  10  15
ATOM     15  C   UNL     1       2.663  -4.456   7.867  0.00  0.00    +0.387 C 
ATOM     16  O   UNL     1       3.720  -4.465   7.253  0.00  0.00    -0.241 OA
ATOM     17  O   UNL     1       2.659  -4.276   9.077  0.00  0.00    -0.241 OA
ENDBRANCH  10  15
ENDBRANCH   5   8
BRANCH   6  18
ATOM     18  C   UNL     1       1.280  -3.291   2.797  0.00  0.00    -0.018 A 
ATOM     19  C   UNL     1       2.553  -3.803   2.965  0.00  0.00    +0.009 A 
ATOM     20  C   UNL     1       3.637  -2.950   3.065  0.00  0.00    +0.050 A 
ATOM     21  C   UNL     1       3.448  -1.579   2.996  0.00  0.00    +0.162 A 
ATOM     22  C   UNL     1       2.166  -1.064   2.826  0.00  0.00    +0.162 A 
ATOM     23  C   UNL     1       1.085  -1.925   2.722  0.00  0.00    +0.055 A 
BRANCH  22  24
ATOM     24  O   UNL     1       1.976   0.281   2.758  0.00  0.00    -0.491 OA
ATOM     25  C   UNL     1       0.654   0.735   2.461  0.00  0.00    +0.277 C 
ENDBRANCH  22  24
BRANCH  21  26
ATOM     26  O   UNL     1       4.513  -0.739   3.094  0.00  0.00    -0.491 OA
ATOM     27  C   UNL     1       5.798  -1.338   3.268  0.00  0.00    +0.277 C 
ENDBRANCH  21  26
ENDBRANCH   6  18
BRANCH   1  28
ATOM     28  C   UNL     1       0.065  -4.324   0.032  0.00  0.00    +0.195 C 
ATOM     29  O   UNL     1       1.024  -4.385  -0.714  0.00  0.00    -0.287 OA
BRANCH  28  34
ATOM     30  C   UNL     1      -4.721  -1.609  -1.653  0.00  0.00    +0.044 C 
ATOM     31  C   UNL     1      -3.468  -2.320  -1.212  0.00  0.00    -0.050 A 
ATOM     32  C   UNL     1      -2.354  -2.325  -2.033  0.00  0.00    +0.004 A 
ATOM     33  C   UNL     1      -1.204  -2.974  -1.635  0.00  0.00    +0.012 A 
ATOM     34  C   UNL     1      -1.165  -3.626  -0.401  0.00  0.00    +0.022 A 
ATOM     35  C   UNL     1      -2.292  -3.616   0.423  0.00  0.00    +0.012 A 
ATOM     36  C   UNL     1      -3.435  -2.959   0.015  0.00  0.00    +0.004 A 
ENDBRANCH  28  34
ENDBRANCH   1  28
TORSDOF 7
