REMARK  Name = ZINC37591775
REMARK  5 active torsions:
REMARK  status: ('A' for Active; 'I' for Inactive)
REMARK    1  A    between atoms: C_1  and  N_2
REMARK    2  A    between atoms: C_4  and  S_7
REMARK    3  A    between atoms: S_7  and  N_10
REMARK    4  A    between atoms: N_10  and  C_11
REMARK    5  A    between atoms: C_13  and  C_19
REMARK                            x       y       z     vdW  Elec       q    Type
REMARK                         _______ _______ _______ _____ _____    ______ ____
ROOT
ATOM      1  C   UNL     1       1.948  -4.980  -2.811  0.00  0.00    +0.110 A 
ATOM      2  C   UNL     1       3.272  -5.296  -3.053  0.00  0.00    +0.047 A 
ATOM      3  C   UNL     1       3.589  -6.396  -3.856  0.00  0.00    +0.100 A 
ATOM      4  C   UNL     1       2.562  -7.171  -4.410  0.00  0.00    +0.140 A 
ATOM      5  C   UNL     1       1.242  -6.845  -4.162  0.00  0.00    +0.079 A 
ATOM      6  C   UNL     1       0.932  -5.760  -3.361  0.00  0.00    +0.151 A 
ATOM      7  F   UNL     1      -0.360  -5.451  -3.118  0.00  0.00    -0.203 F 
ATOM      8  F   UNL     1       2.861  -8.234  -5.188  0.00  0.00    -0.205 F 
ENDROOT
BRANCH   3   9
ATOM      9  C   UNL     1       4.997  -6.739  -4.119  0.00  0.00    +0.389 C 
ATOM     10  O   UNL     1       5.892  -6.060  -3.634  0.00  0.00    -0.240 OA
ATOM     11  O   UNL     1       5.271  -7.701  -4.822  0.00  0.00    -0.240 OA
ENDBRANCH   3   9
BRANCH   1  12
ATOM     12  N   UNL     1       1.627  -3.880  -2.007  0.00  0.00    -0.095 NA
BRANCH  12  13
ATOM     13  S   UNL     1       0.041  -3.505  -1.711  0.00  0.00    +0.095 S 
ATOM     14  O   UNL     1      -0.492  -4.572  -0.939  0.00  0.00    -0.148 OA
ATOM     15  O   UNL     1      -0.521  -3.109  -2.955  0.00  0.00    -0.148 OA
BRANCH  13  19
ATOM     16  C   UNL     1      -0.018   1.461   0.010  0.00  0.00    +0.172 C 
ATOM     17  N   UNL     1       0.002  -0.004   0.002  0.00  0.00    -0.273 N 
ATOM     18  C   UNL     1       0.008  -0.792  -1.094  0.00  0.00    +0.136 A 
ATOM     19  C   UNL     1       0.027  -2.079  -0.676  0.00  0.00    +0.148 A 
ATOM     20  C   UNL     1       0.034  -2.078   0.723  0.00  0.00    +0.163 A 
ATOM     21  N   UNL     1       0.025  -0.834   1.130  0.00  0.00    -0.178 NA
ENDBRANCH  13  19
ENDBRANCH  12  13
ENDBRANCH   1  12
TORSDOF 4
