REMARK  Name = ZINC32640041
REMARK  9 active torsions:
REMARK  status: ('A' for Active; 'I' for Inactive)
REMARK    1  A    between atoms: C_1  and  C_2
REMARK    2  A    between atoms: C_2  and  C_3
REMARK    3  A    between atoms: C_8  and  N_9
REMARK    4  A    between atoms: C_10  and  C_12
REMARK    5  A    between atoms: C_12  and  S_13
REMARK    6  A    between atoms: S_13  and  C_14
REMARK    7  A    between atoms: N_25  and  C_26
REMARK    8  A    between atoms: C_28  and  C_33
REMARK    9  A    between atoms: C_31  and  C_32
REMARK                            x       y       z     vdW  Elec       q    Type
REMARK                         _______ _______ _______ _____ _____    ______ ____
ROOT
ATOM      1  C   UNL     1       2.935   1.501   1.857  0.00  0.00    +0.157 C 
ATOM      2  N   UNL     1       1.987   2.352   1.626  0.00  0.00    -0.256 NA
ATOM      3  C   UNL     1       1.497   2.194   0.248  0.00  0.00    +0.151 C 
ATOM      4  C   UNL     1      -0.013   1.874   0.283  0.00  0.00    +0.194 C 
ATOM      5  S   UNL     1       0.005   0.029   0.257  0.00  0.00    -0.027 S 
ATOM      6  O   UNL     1       0.239  -0.458   1.571  0.00  0.00    -0.174 OA
ATOM      7  O   UNL     1      -1.115  -0.442  -0.481  0.00  0.00    -0.174 OA
ATOM      8  C   UNL     1       1.535  -0.178  -0.753  0.00  0.00    +0.191 C 
ATOM      9  C   UNL     1       2.352   1.060  -0.328  0.00  0.00    +0.128 C 
ATOM     10  N   UNL     1       3.235   0.692   0.792  0.00  0.00    -0.273 N 
ENDROOT
BRANCH  10  11
ATOM     11  C   UNL     1       4.211  -0.310   0.772  0.00  0.00    +0.039 A 
ATOM     12  C   UNL     1       3.862  -1.627   1.043  0.00  0.00    +0.027 A 
ATOM     13  C   UNL     1       4.828  -2.614   1.022  0.00  0.00    -0.049 A 
ATOM     14  C   UNL     1       6.141  -2.292   0.732  0.00  0.00    +0.004 A 
ATOM     15  C   UNL     1       6.492  -0.983   0.462  0.00  0.00    +0.005 A 
ATOM     16  C   UNL     1       5.530   0.009   0.475  0.00  0.00    -0.029 A 
ATOM     17  C   UNL     1       5.912   1.435   0.175  0.00  0.00    +0.045 C 
ATOM     18  C   UNL     1       4.450  -4.043   1.315  0.00  0.00    +0.044 C 
ENDBRANCH  10  11
BRANCH   1  19
ATOM     19  S   UNL     1       3.767   1.392   3.407  0.00  0.00    -0.081 S 
BRANCH  19  20
ATOM     20  C   UNL     1       2.905   2.697   4.318  0.00  0.00    +0.173 C 
BRANCH  20  22
ATOM     21  N   UNL     1       2.975   3.698   6.579  0.00  0.00    -0.285 N 
ATOM     22  C   UNL     1       3.467   2.789   5.714  0.00  0.00    +0.227 C 
ATOM     23  O   UNL     1       4.361   2.046   6.058  0.00  0.00    -0.275 OA
ATOM     24  H   UNL     1       2.229   4.432   6.241  0.00  0.00    +0.155 HD
BRANCH  21  30
ATOM     25  C   UNL     1       3.350   4.877   8.653  0.00  0.00    -0.026 A 
ATOM     26  C   UNL     1       3.778   4.882   9.966  0.00  0.00    +0.005 A 
ATOM     27  C   UNL     1       4.279   3.726  10.536  0.00  0.00    +0.000 A 
ATOM     28  C   UNL     1       4.349   2.560   9.794  0.00  0.00    +0.002 A 
ATOM     29  C   UNL     1       3.917   2.548   8.483  0.00  0.00    +0.023 A 
ATOM     30  C   UNL     1       3.413   3.707   7.908  0.00  0.00    +0.037 A 
BRANCH  25  32
ATOM     31  C   UNL     1       1.284   6.154   8.152  0.00  0.00    +0.009 C 
ATOM     32  C   UNL     1       2.809   6.139   8.031  0.00  0.00    +0.033 C 
ENDBRANCH  25  32
ENDBRANCH  21  30
ENDBRANCH  20  22
ENDBRANCH  19  20
ENDBRANCH   1  19
TORSDOF 6
