REMARK  Name = ZINC56307439
REMARK  3 active torsions:
REMARK  status: ('A' for Active; 'I' for Inactive)
REMARK    1  A    between atoms: C_3  and  N_22
REMARK    2  A    between atoms: C_6  and  N_7
REMARK    3  A    between atoms: C_8  and  C_10
REMARK                            x       y       z     vdW  Elec       q    Type
REMARK                         _______ _______ _______ _____ _____    ______ ____
ROOT
ATOM      1  N   UNL     1      -1.201  -0.721   0.010  0.00  0.00    -0.280 N 
ATOM      2  C   UNL     1      -2.162  -0.095  -0.698  0.00  0.00    +0.266 C 
ATOM      3  O   UNL     1      -1.901   0.925  -1.308  0.00  0.00    -0.268 OA
ATOM      4  H   UNL     1      -1.387  -1.574   0.432  0.00  0.00    +0.155 HD
ENDROOT
BRANCH   2   5
ATOM      5  C   UNL     1      -3.523  -0.644  -0.732  0.00  0.00    +0.122 A 
ATOM      6  C   UNL     1      -4.573  -0.109  -1.413  0.00  0.00    +0.078 A 
ATOM      7  C   UNL     1      -5.700  -0.937  -1.187  0.00  0.00    +0.020 A 
ATOM      8  C   UNL     1      -7.032  -0.887  -1.620  0.00  0.00    +0.031 A 
ATOM      9  C   UNL     1      -7.911  -1.854  -1.224  0.00  0.00    +0.042 A 
ATOM     10  C   UNL     1      -7.497  -2.889  -0.393  0.00  0.00    +0.022 A 
ATOM     11  C   UNL     1      -6.194  -2.959   0.045  0.00  0.00    +0.028 A 
ATOM     12  C   UNL     1      -5.279  -1.985  -0.346  0.00  0.00    +0.049 A 
ATOM     13  N   UNL     1      -3.943  -1.791  -0.083  0.00  0.00    -0.349 N 
ATOM     14  H   UNL     1      -3.387  -2.363   0.468  0.00  0.00    +0.166 HD
ATOM     15 CL   UNL     1      -9.560  -1.790  -1.763  0.00  0.00    -0.084 Cl
ATOM     16 CL   UNL     1      -4.537   1.330  -2.383  0.00  0.00    -0.081 Cl
ENDBRANCH   2   5
BRANCH   1  22
ATOM     17  C   UNL     1       0.192   1.242   0.219  0.00  0.00    +0.025 A 
ATOM     18  C   UNL     1       1.441   1.816   0.344  0.00  0.00    +0.025 A 
ATOM     19  C   UNL     1       2.573   1.012   0.389  0.00  0.00    +0.038 A 
ATOM     20  C   UNL     1       2.448  -0.368   0.307  0.00  0.00    +0.025 A 
ATOM     21  C   UNL     1       1.198  -0.942   0.181  0.00  0.00    +0.025 A 
ATOM     22  C   UNL     1       0.066  -0.139   0.137  0.00  0.00    +0.034 A 
BRANCH  19  23
ATOM     23  N   UNL     1       3.841   1.595   0.516  0.00  0.00    -0.254 N 
ATOM     24  C   UNL     1       5.103   0.859   0.680  0.00  0.00    +0.134 C 
ATOM     25  C   UNL     1       6.168   1.969   0.769  0.00  0.00    +0.125 C 
ATOM     26  N   UNL     1       5.393   3.212   0.645  0.00  0.00    -0.297 N 
ATOM     27  C   UNL     1       4.096   2.909   0.501  0.00  0.00    +0.307 C 
ATOM     28  O   UNL     1       3.229   3.752   0.372  0.00  0.00    -0.252 OA
ATOM     29  H   UNL     1       5.762   4.109   0.661  0.00  0.00    +0.150 HD
ENDBRANCH  19  23
ENDBRANCH   1  22
TORSDOF 3
