REMARK  Name = ZINC39637450
REMARK  8 active torsions:
REMARK  status: ('A' for Active; 'I' for Inactive)
REMARK    1  A    between atoms: C_1  and  C_2
REMARK    2  A    between atoms: C_7  and  N_12
REMARK    3  A    between atoms: C_9  and  C_11
REMARK    4  A    between atoms: C_13  and  C_15
REMARK    5  A    between atoms: C_26  and  C_28
REMARK    6  A    between atoms: C_34  and  O_36
REMARK    7  A    between atoms: O_36  and  C_37
REMARK    8  A    between atoms: C_37  and  C_38
REMARK                            x       y       z     vdW  Elec       q    Type
REMARK                         _______ _______ _______ _____ _____    ______ ____
ROOT
ATOM      1  C   UNL     1      -2.287  -4.298   1.743  0.00  0.00    +0.100 C 
ATOM      2  C   UNL     1      -3.149  -3.495   2.743  0.00  0.00    +0.121 C 
ATOM      3  N   UNL     1      -4.051  -4.501   3.352  0.00  0.00    -0.300 N 
ATOM      4  C   UNL     1      -3.197  -5.699   3.533  0.00  0.00    +0.115 C 
ATOM      5  C   UNL     1      -2.320  -5.744   2.266  0.00  0.00    -0.004 C 
ATOM      6  C   UNL     1      -0.911  -6.212   2.616  0.00  0.00    -0.010 C 
ATOM      7  C   UNL     1      -0.962  -7.671   3.078  0.00  0.00    -0.082 C 
ATOM      8  N   UNL     1      -1.525  -8.505   2.008  0.00  0.00    +0.379 N 
ATOM      9  C   UNL     1      -2.913  -8.108   1.742  0.00  0.00    -0.082 C 
ATOM     10  C   UNL     1      -2.944  -6.668   1.224  0.00  0.00    -0.010 C 
ATOM     11  C   UNL     1      -5.353  -4.359   3.670  0.00  0.00    +0.219 C 
ATOM     12  O   UNL     1      -5.960  -5.283   4.168  0.00  0.00    -0.275 OA
ATOM     13  H   UNL     1      -0.976  -8.389   1.169  0.00  0.00    -0.086 HD
ATOM     14  H   UNL     1      -1.501  -9.473   2.291  0.00  0.00    -0.086 HD
ENDROOT
BRANCH  11  15
ATOM     15  C   UNL     1      -6.054  -3.051   3.406  0.00  0.00    +0.078 C 
ATOM     16  C   UNL     1      -5.357  -1.933   4.186  0.00  0.00    +0.032 C 
ATOM     17  C   UNL     1      -6.051  -0.600   3.889  0.00  0.00    +0.112 C 
ATOM     18  N   UNL     1      -7.484  -0.737   4.181  0.00  0.00    -0.267 N 
ATOM     19  C   UNL     1      -8.232  -1.836   3.555  0.00  0.00    +0.112 C 
ATOM     20  C   UNL     1      -7.513  -3.155   3.856  0.00  0.00    +0.032 C 
ATOM     21  C   UNL     1      -8.102   0.128   5.010  0.00  0.00    +0.403 C 
ATOM     22  O   UNL     1      -7.473   1.033   5.522  0.00  0.00    -0.226 OA
BRANCH  21  23
ATOM     23  O   UNL     1      -9.416  -0.009   5.269  0.00  0.00    -0.445 OA
BRANCH  23  24
ATOM     24  C   UNL     1     -10.005   0.943   6.156  0.00  0.00    +0.269 C 
BRANCH  24  25
ATOM     25  C   UNL     1     -11.470   0.632   6.326  0.00  0.00    -0.010 A 
ATOM     26  C   UNL     1     -12.399   1.192   5.470  0.00  0.00    +0.007 A 
ATOM     27  C   UNL     1     -13.743   0.907   5.626  0.00  0.00    +0.000 A 
ATOM     28  C   UNL     1     -14.157   0.062   6.638  0.00  0.00    +0.000 A 
ATOM     29  C   UNL     1     -13.228  -0.499   7.494  0.00  0.00    +0.000 A 
ATOM     30  C   UNL     1     -11.884  -0.217   7.335  0.00  0.00    +0.007 A 
ENDBRANCH  24  25
ENDBRANCH  23  24
ENDBRANCH  21  23
ENDBRANCH  11  15
BRANCH   1  32
ATOM     31  N   UNL     1      -0.139  -3.841   0.604  0.00  0.00    -0.312 N 
ATOM     32  C   UNL     1      -0.873  -3.776   1.733  0.00  0.00    +0.218 C 
ATOM     33  O   UNL     1      -0.396  -3.298   2.740  0.00  0.00    -0.275 OA
ATOM     34  H   UNL     1      -0.521  -4.224  -0.201  0.00  0.00    +0.149 HD
BRANCH  31  40
ATOM     35  C   UNL     1       1.913  -3.774  -3.171  0.00  0.00    +0.008 C 
ATOM     36  C   UNL     1       1.525  -4.167  -1.744  0.00  0.00    -0.009 C 
ATOM     37  C   UNL     1       2.474  -5.255  -1.239  0.00  0.00    +0.003 C 
ATOM     38  C   UNL     1       2.086  -5.648   0.188  0.00  0.00    +0.002 C 
ATOM     39  C   UNL     1       2.184  -4.423   1.099  0.00  0.00    +0.022 C 
ATOM     40  C   UNL     1       1.235  -3.334   0.594  0.00  0.00    +0.076 C 
ATOM     41  C   UNL     1       1.623  -2.941  -0.833  0.00  0.00    +0.009 C 
ATOM     42  C   UNL     1       0.674  -1.853  -1.339  0.00  0.00    +0.009 C 
ENDBRANCH  31  40
ENDBRANCH   1  32
TORSDOF 6
