REMARK  Name = ZINC12158579
REMARK  10 active torsions:
REMARK  status: ('A' for Active; 'I' for Inactive)
REMARK    1  A    between atoms: C_1  and  C_2
REMARK    2  A    between atoms: C_2  and  C_3
REMARK    3  A    between atoms: C_2  and  C_4
REMARK    4  A    between atoms: C_4  and  C_5
REMARK    5  A    between atoms: C_5  and  N_6
REMARK    6  A    between atoms: C_17  and  N_62
REMARK    7  A    between atoms: C_21  and  C_22
REMARK    8  A    between atoms: C_21  and  N_62
REMARK    9  A    between atoms: C_25  and  C_27
REMARK   10  A    between atoms: C_27  and  C_28
REMARK                            x       y       z     vdW  Elec       q    Type
REMARK                         _______ _______ _______ _____ _____    ______ ____
ROOT
ATOM      1  N   UNL     1      -0.949   3.663   0.030  0.00  0.00    -0.299 N 
ATOM      2  C   UNL     1       0.304   4.186   0.021  0.00  0.00    +0.203 A 
ATOM      3  N   UNL     1       1.358   3.414   0.007  0.00  0.00    -0.230 NA
ATOM      4  C   UNL     1       1.236   2.090   0.002  0.00  0.00    +0.116 A 
ATOM      5  C   UNL     1      -0.018   1.458   0.010  0.00  0.00    +0.076 A 
ATOM      6  C   UNL     1      -1.153   2.333   0.031  0.00  0.00    +0.262 A 
ATOM      7  O   UNL     1      -2.285   1.879   0.045  0.00  0.00    -0.267 OA
ATOM      8  C   UNL     1       0.002  -0.004   0.002  0.00  0.00    -0.023 A 
ATOM      9  C   UNL     1       1.213  -0.600  -0.013  0.00  0.00    -0.006 A 
ATOM     10  S   UNL     1       2.381   0.734  -0.017  0.00  0.00    -0.073 S 
ATOM     11  C   UNL     1       1.501  -2.070  -0.024  0.00  0.00    +0.027 C 
ATOM     12  C   UNL     1       0.209  -2.814  -0.391  0.00  0.00    -0.066 C 
ATOM     13  C   UNL     1      -0.936  -2.259   0.461  0.00  0.00    -0.011 C 
ATOM     14  C   UNL     1      -1.276  -0.838   0.011  0.00  0.00    +0.035 C 
ENDROOT
BRANCH  12  15
ATOM     15  N   UNL     1       0.370  -4.253  -0.112  0.00  0.00    +0.385 N 
ATOM     16  H   UNL     1      -0.553  -4.671   0.054  0.00  0.00    -0.085 HD
ATOM     17  H   UNL     1       0.956  -4.373   0.723  0.00  0.00    -0.085 HD
BRANCH  15  18
ATOM     18  C   UNL     1       1.011  -4.928  -1.257  0.00  0.00    -0.025 C 
BRANCH  18  19
ATOM     19  C   UNL     1       1.162  -6.395  -0.944  0.00  0.00    +0.032 A 
ATOM     20  C   UNL     1       0.230  -7.293  -1.353  0.00  0.00    +0.068 A 
ATOM     21  S   UNL     1       0.929  -8.807  -0.712  0.00  0.00    -0.080 S 
ATOM     22  C   UNL     1       2.345  -8.111   0.013  0.00  0.00    +0.083 A 
ATOM     23  N   UNL     1       2.204  -6.837  -0.271  0.00  0.00    -0.251 NA
BRANCH  22  24
ATOM     24  C   UNL     1       3.455  -8.795   0.769  0.00  0.00    +0.098 C 
BRANCH  24  25
ATOM     25  C   UNL     1       3.113  -8.836   2.236  0.00  0.00    -0.041 A 
ATOM     26  C   UNL     1       3.503  -7.803   3.067  0.00  0.00    +0.004 A 
ATOM     27  C   UNL     1       3.185  -7.839   4.412  0.00  0.00    +0.000 A 
ATOM     28  C   UNL     1       2.484  -8.913   4.927  0.00  0.00    +0.000 A 
ATOM     29  C   UNL     1       2.098  -9.949   4.098  0.00  0.00    +0.000 A 
ATOM     30  C   UNL     1       2.412  -9.911   2.752  0.00  0.00    +0.004 A 
ENDBRANCH  24  25
ENDBRANCH  22  24
ENDBRANCH  18  19
ENDBRANCH  15  18
ENDBRANCH  12  15
BRANCH   1  31
ATOM     31  C   UNL     1      -2.103   4.566   0.046  0.00  0.00    +0.126 C 
BRANCH  31  32
ATOM     32  C   UNL     1      -2.518   4.888  -1.391  0.00  0.00    +0.024 C 
BRANCH  32  34
ATOM     33  C   UNL     1      -3.313   7.172  -0.761  0.00  0.00    +0.007 C 
ATOM     34  C   UNL     1      -3.723   5.831  -1.374  0.00  0.00    -0.016 C 
ATOM     35  C   UNL     1      -4.216   6.054  -2.805  0.00  0.00    +0.007 C 
ENDBRANCH  32  34
ENDBRANCH  31  32
ENDBRANCH   1  31
TORSDOF 8
