REMARK  Name = ZINC22413965
REMARK  7 active torsions:
REMARK  status: ('A' for Active; 'I' for Inactive)
REMARK    1  A    between atoms: C_1  and  C_2
REMARK    2  A    between atoms: C_4  and  C_35
REMARK    3  A    between atoms: C_6  and  N_8
REMARK    4  A    between atoms: N_20  and  C_23
REMARK    5  A    between atoms: C_23  and  C_24
REMARK    6  A    between atoms: N_26  and  C_27
REMARK    7  A    between atoms: C_27  and  C_28
REMARK                            x       y       z     vdW  Elec       q    Type
REMARK                         _______ _______ _______ _____ _____    ______ ____
ROOT
ATOM      1  N   UNL     1       1.161  -0.685  -0.013  0.00  0.00    -0.226 N 
ATOM      2  C   UNL     1       2.126  -0.036  -0.694  0.00  0.00    +0.304 A 
ATOM      3  O   UNL     1       2.969  -0.662  -1.310  0.00  0.00    -0.263 OA
ATOM      4  C   UNL     1       2.151   1.381  -0.686  0.00  0.00    +0.217 A 
ATOM      5  C   UNL     1       1.175   2.051   0.026  0.00  0.00    +0.105 A 
ATOM      6  C   UNL     1       1.454   3.478  -0.149  0.00  0.00    +0.045 A 
ATOM      7  C   UNL     1       0.850   4.651   0.305  0.00  0.00    +0.014 A 
ATOM      8  C   UNL     1       1.371   5.865  -0.047  0.00  0.00    +0.001 A 
ATOM      9  C   UNL     1       2.497   5.937  -0.855  0.00  0.00    +0.004 A 
ATOM     10  C   UNL     1       3.108   4.791  -1.314  0.00  0.00    +0.047 A 
ATOM     11  C   UNL     1       2.596   3.545  -0.968  0.00  0.00    +0.138 A 
ATOM     12  O   UNL     1       2.974   2.285  -1.262  0.00  0.00    -0.448 OA
ATOM     13  N   UNL     1       0.211   1.335   0.705  0.00  0.00    -0.281 N 
ATOM     14  C   UNL     1       0.222  -0.012   0.674  0.00  0.00    +0.338 A 
ATOM     15  O   UNL     1      -0.635  -0.629   1.277  0.00  0.00    -0.246 OA
ENDROOT
BRANCH   1  21
ATOM     16  C   UNL     1       2.543  -4.955   1.998  0.00  0.00    +0.044 C 
ATOM     17  C   UNL     1       1.797  -4.180   0.942  0.00  0.00    -0.048 A 
ATOM     18  C   UNL     1       1.089  -4.853  -0.036  0.00  0.00    +0.006 A 
ATOM     19  C   UNL     1       0.404  -4.145  -1.007  0.00  0.00    -0.048 A 
ATOM     20  C   UNL     1       0.426  -2.764  -1.002  0.00  0.00    +0.029 A 
ATOM     21  C   UNL     1       1.136  -2.086  -0.020  0.00  0.00    +0.055 A 
ATOM     22  C   UNL     1       1.827  -2.800   0.950  0.00  0.00    +0.029 A 
ATOM     23  C   UNL     1      -0.367  -4.882  -2.072  0.00  0.00    +0.044 C 
ENDBRANCH   1  21
BRANCH  13  24
ATOM     24  C   UNL     1      -0.830   2.040   1.457  0.00  0.00    +0.222 C 
BRANCH  24  25
ATOM     25  C   UNL     1      -0.363   2.262   2.873  0.00  0.00    +0.233 C 
ATOM     26  O   UNL     1       0.730   1.869   3.220  0.00  0.00    -0.274 OA
ATOM     27  N   UNL     1      -1.162   2.896   3.754  0.00  0.00    -0.310 N 
ATOM     28  H   UNL     1      -2.154   3.252   3.440  0.00  0.00    +0.149 HD
BRANCH  27  29
ATOM     29  C   UNL     1      -0.709   3.111   5.131  0.00  0.00    +0.141 C 
BRANCH  29  30
ATOM     30  C   UNL     1      -1.779   3.837   5.904  0.00  0.00    -0.012 A 
ATOM     31  C   UNL     1      -1.676   5.199   6.117  0.00  0.00    +0.006 A 
ATOM     32  C   UNL     1      -2.660   5.865   6.823  0.00  0.00    +0.000 A 
ATOM     33  C   UNL     1      -3.743   5.169   7.325  0.00  0.00    +0.001 A 
ATOM     34  C   UNL     1      -3.845   3.806   7.118  0.00  0.00    +0.020 A 
ATOM     35  C   UNL     1      -2.863   3.139   6.407  0.00  0.00    +0.046 A 
ATOM     36 CL   UNL     1      -2.990   1.428   6.146  0.00  0.00    -0.083 Cl
ENDBRANCH  29  30
ENDBRANCH  27  29
ENDBRANCH  24  25
ENDBRANCH  13  24
TORSDOF 5
