REMARK  Name = ZINC59387384
REMARK  7 active torsions:
REMARK  status: ('A' for Active; 'I' for Inactive)
REMARK    1  A    between atoms: C_1  and  C_2
REMARK    2  A    between atoms: C_5  and  C_8
REMARK    3  A    between atoms: N_13  and  N_14
REMARK    4  A    between atoms: C_15  and  C_16
REMARK    5  A    between atoms: C_19  and  O_22
REMARK    6  A    between atoms: O_22  and  C_23
REMARK    7  A    between atoms: C_23  and  C_25
REMARK                            x       y       z     vdW  Elec       q    Type
REMARK                         _______ _______ _______ _____ _____    ______ ____
ROOT
ATOM      1  N   UNL     1      -0.006  -8.455   1.805  0.00  0.00    -0.155 NA
ATOM      2  C   UNL     1       0.101  -9.299   2.798  0.00  0.00    +0.143 C 
ENDROOT
BRANCH   1   8
ATOM      3  C   UNL     1      -0.295  -4.280  -0.120  0.00  0.00    +0.055 A 
ATOM      4  C   UNL     1      -0.365  -4.966  -1.280  0.00  0.00    +0.075 A 
ATOM      5  S   UNL     1      -0.266  -6.659  -0.719  0.00  0.00    -0.056 S 
ATOM      6  C   UNL     1      -0.137  -6.331   1.032  0.00  0.00    +0.192 A 
ATOM      7  N   UNL     1      -0.174  -4.958   1.060  0.00  0.00    -0.332 N 
ATOM      8  N   UNL     1      -0.029  -7.186   2.037  0.00  0.00    -0.124 NA
ATOM      9  H   UNL     1      -0.118  -4.479   1.902  0.00  0.00    +0.168 HD
BRANCH   3  14
ATOM     10  C   UNL     1      -0.487   1.472  -0.145  0.00  0.00    +0.044 C 
ATOM     11  C   UNL     1      -0.437  -0.034  -0.138  0.00  0.00    -0.050 A 
ATOM     12  C   UNL     1      -0.514  -0.731  -1.331  0.00  0.00    +0.004 A 
ATOM     13  C   UNL     1      -0.469  -2.110  -1.332  0.00  0.00    +0.010 A 
ATOM     14  C   UNL     1      -0.344  -2.802  -0.126  0.00  0.00    -0.001 A 
ATOM     15  C   UNL     1      -0.267  -2.093   1.073  0.00  0.00    +0.010 A 
ATOM     16  C   UNL     1      -0.308  -0.714   1.060  0.00  0.00    +0.004 A 
ENDBRANCH   3  14
ENDBRANCH   1   8
BRANCH   2  17
ATOM     17  C   UNL     1       0.127 -10.746   2.533  0.00  0.00    -0.005 A 
ATOM     18  C   UNL     1       0.045 -11.221   1.220  0.00  0.00    +0.013 A 
ATOM     19  C   UNL     1       0.070 -12.577   0.978  0.00  0.00    +0.047 A 
ATOM     20  C   UNL     1       0.178 -13.472   2.035  0.00  0.00    +0.132 A 
ATOM     21  C   UNL     1       0.260 -13.005   3.341  0.00  0.00    +0.047 A 
ATOM     22  C   UNL     1       0.241 -11.651   3.594  0.00  0.00    +0.013 A 
BRANCH  20  23
ATOM     23  O   UNL     1       0.202 -14.808   1.790  0.00  0.00    -0.422 OA
BRANCH  23  24
ATOM     24  C   UNL     1       1.289 -15.320   1.181  0.00  0.00    +0.346 C 
ATOM     25  O   UNL     1       2.252 -14.613   0.962  0.00  0.00    -0.244 OA
BRANCH  24  26
ATOM     26  C   UNL     1       1.310 -16.741   0.780  0.00  0.00    +0.073 A 
ATOM     27  C   UNL     1       0.202 -17.556   1.025  0.00  0.00    +0.016 A 
ATOM     28  C   UNL     1       0.228 -18.882   0.648  0.00  0.00    +0.001 A 
ATOM     29  C   UNL     1       1.349 -19.407   0.027  0.00  0.00    +0.001 A 
ATOM     30  C   UNL     1       2.450 -18.607  -0.219  0.00  0.00    +0.016 A 
ATOM     31  C   UNL     1       2.435 -17.276   0.148  0.00  0.00    +0.032 A 
ATOM     32 BR   UNL     1       3.938 -16.181  -0.197  0.00  0.00    -0.049 Br
ENDBRANCH  24  26
ENDBRANCH  23  24
ENDBRANCH  20  23
ENDBRANCH   2  17
TORSDOF 6
