REMARK  Name = ZINC12833849
REMARK  11 active torsions:
REMARK  status: ('A' for Active; 'I' for Inactive)
REMARK    1  A    between atoms: C_1  and  C_2
REMARK    2  A    between atoms: C_7  and  C_14
REMARK    3  A    between atoms: C_14  and  C_16
REMARK    4  A    between atoms: C_14  and  N_75
REMARK    5  A    between atoms: N_20  and  C_21
REMARK    6  A    between atoms: C_26  and  C_27
REMARK    7  A    between atoms: C_26  and  N_75
REMARK    8  A    between atoms: C_30  and  O_33
REMARK    9  A    between atoms: O_33  and  C_34
REMARK   10  A    between atoms: C_35  and  C_36
REMARK   11  A    between atoms: C_35  and  N_75
REMARK                            x       y       z     vdW  Elec       q    Type
REMARK                         _______ _______ _______ _____ _____    ______ ____
ROOT
ATOM      1  C   UNL     1      -2.344   0.667  -0.098  0.00  0.00    +0.039 C 
ENDROOT
BRANCH   1   8
ATOM      2  C   UNL     1       5.428   2.167  -1.079  0.00  0.00    +0.044 C 
ATOM      3  C   UNL     1       4.025   1.663  -0.859  0.00  0.00    -0.048 A 
ATOM      4  C   UNL     1       3.812   0.315  -0.604  0.00  0.00    +0.004 A 
ATOM      5  C   UNL     1       2.549  -0.164  -0.401  0.00  0.00    +0.010 A 
ATOM      6  C   UNL     1       1.460   0.713  -0.451  0.00  0.00    -0.001 A 
ATOM      7  C   UNL     1       0.092   0.234  -0.239  0.00  0.00    +0.017 A 
ATOM      8  C   UNL     1      -0.925   1.128  -0.304  0.00  0.00    +0.011 A 
ATOM      9  C   UNL     1      -0.658   2.490  -0.562  0.00  0.00    +0.251 A 
ATOM     10  O   UNL     1      -1.586   3.279  -0.611  0.00  0.00    -0.268 OA
ATOM     11  N   UNL     1       0.594   2.939  -0.758  0.00  0.00    -0.322 N 
ATOM     12  H   UNL     1       0.742   3.881  -0.936  0.00  0.00    +0.169 HD
ATOM     13  C   UNL     1       1.671   2.080  -0.709  0.00  0.00    +0.049 A 
ATOM     14  C   UNL     1       2.967   2.544  -0.912  0.00  0.00    +0.029 A 
ENDBRANCH   1   8
BRANCH   1  15
ATOM     15  C   UNL     1      -3.124   0.855  -1.373  0.00  0.00    +0.143 A 
ATOM     16  N   UNL     1      -3.746   1.943  -1.758  0.00  0.00    -0.115 NA
ATOM     17  N   UNL     1      -4.291   1.707  -2.901  0.00  0.00    -0.023 NA
ATOM     18  N   UNL     1      -4.040   0.494  -3.252  0.00  0.00    -0.044 NA
ATOM     19  N   UNL     1      -3.323  -0.064  -2.336  0.00  0.00    -0.227 N 
BRANCH  19  20
ATOM     20  C   UNL     1      -2.820  -1.440  -2.343  0.00  0.00    +0.111 C 
ATOM     21  C   UNL     1      -1.855  -1.643  -3.529  0.00  0.00    +0.027 C 
ATOM     22  C   UNL     1      -2.149  -3.085  -4.015  0.00  0.00    +0.002 C 
ATOM     23  C   UNL     1      -3.686  -3.194  -3.852  0.00  0.00    +0.002 C 
ATOM     24  C   UNL     1      -3.984  -2.426  -2.548  0.00  0.00    +0.027 C 
ENDBRANCH  19  20
ENDBRANCH   1  15
BRANCH   1  25
ATOM     25  N   UNL     1      -2.963   1.484   0.968  0.00  0.00    +0.394 N 
ATOM     26  H   UNL     1      -2.948   2.470   0.683  0.00  0.00    -0.080 HD
BRANCH  25  27
ATOM     27  C   UNL     1      -4.366   1.066   1.174  0.00  0.00    -0.041 C 
BRANCH  27  28
ATOM     28  C   UNL     1      -4.431  -0.385   1.578  0.00  0.00    -0.064 A 
ATOM     29  C   UNL     1      -4.564  -1.365   0.611  0.00  0.00    +0.005 A 
ATOM     30  C   UNL     1      -4.618  -2.695   0.978  0.00  0.00    +0.046 A 
ATOM     31  C   UNL     1      -4.551  -3.047   2.319  0.00  0.00    +0.120 A 
ATOM     32  C   UNL     1      -4.424  -2.062   3.287  0.00  0.00    +0.046 A 
ATOM     33  C   UNL     1      -4.364  -0.733   2.914  0.00  0.00    +0.005 A 
BRANCH  31  34
ATOM     34  O   UNL     1      -4.609  -4.355   2.683  0.00  0.00    -0.495 OA
ATOM     35  C   UNL     1      -4.740  -5.316   1.633  0.00  0.00    +0.277 C 
ENDBRANCH  31  34
ENDBRANCH  27  28
ENDBRANCH  25  27
BRANCH  25  36
ATOM     36  C   UNL     1      -2.201   1.335   2.226  0.00  0.00    -0.045 C 
BRANCH  36  37
ATOM     37  C   UNL     1      -2.640   2.431   3.199  0.00  0.00    +0.102 C 
ATOM     38  C   UNL     1      -1.865   2.296   4.524  0.00  0.00    +0.032 C 
ATOM     39  C   UNL     1      -1.141   3.655   4.680  0.00  0.00    +0.030 C 
ATOM     40  C   UNL     1      -1.982   4.578   3.762  0.00  0.00    +0.160 C 
ATOM     41  O   UNL     1      -2.333   3.723   2.650  0.00  0.00    -0.378 OA
ENDBRANCH  36  37
ENDBRANCH  25  36
ENDBRANCH   1  25
TORSDOF 9
