REMARK  Name = ZINC12213184
REMARK  11 active torsions:
REMARK  status: ('A' for Active; 'I' for Inactive)
REMARK    1  A    between atoms: C_1  and  C_2
REMARK    2  A    between atoms: C_2  and  C_3
REMARK    3  A    between atoms: C_2  and  C_4
REMARK    4  A    between atoms: C_4  and  C_5
REMARK    5  A    between atoms: C_5  and  C_7
REMARK    6  A    between atoms: C_5  and  N_29
REMARK    7  A    between atoms: C_16  and  C_17
REMARK    8  A    between atoms: C_16  and  N_69
REMARK    9  A    between atoms: C_20  and  O_27
REMARK   10  A    between atoms: O_27  and  C_28
REMARK   11  A    between atoms: C_30  and  C_32
REMARK                            x       y       z     vdW  Elec       q    Type
REMARK                         _______ _______ _______ _____ _____    ______ ____
ROOT
ATOM      1  C   UNL     1      -7.257  -0.312  -2.017  0.00  0.00    +0.154 A 
ATOM      2  N   UNL     1      -7.439  -0.897  -3.171  0.00  0.00    -0.132 NA
ATOM      3  N   UNL     1      -6.317  -0.980  -3.799  0.00  0.00    -0.134 NA
ATOM      4  C   UNL     1      -5.375  -0.446  -3.077  0.00  0.00    +0.132 A 
ATOM      5  N   UNL     1      -5.942  -0.024  -1.920  0.00  0.00    -0.315 N 
ATOM      6  C   UNL     1      -5.242   0.597  -0.796  0.00  0.00    +0.106 C 
ATOM      7  C   UNL     1      -3.997   1.323  -1.317  0.00  0.00    -0.056 C 
ATOM      8  C   UNL     1      -3.075  -0.738  -2.224  0.00  0.00    -0.071 C 
ATOM      9  C   UNL     1      -3.917  -0.299  -3.426  0.00  0.00    +0.058 C 
ATOM     10  N   UNL     1      -2.823   0.421  -1.340  0.00  0.00    +0.384 N 
ATOM     11  H   UNL     1      -2.014   0.941  -1.699  0.00  0.00    -0.081 HD
ENDROOT
BRANCH   1  12
ATOM     12  C   UNL     1      -8.317  -0.015  -0.988  0.00  0.00    +0.142 C 
BRANCH  12  13
ATOM     13  N   UNL     1      -9.176  -1.189  -0.818  0.00  0.00    -0.299 N 
ATOM     14  C   UNL     1      -9.842  -1.375   0.339  0.00  0.00    +0.280 C 
ATOM     15  O   UNL     1      -9.730  -0.567   1.242  0.00  0.00    -0.267 OA
ATOM     16  H   UNL     1      -9.265  -1.833  -1.538  0.00  0.00    +0.150 HD
BRANCH  14  17
ATOM     17  C   UNL     1     -10.703  -2.550   0.509  0.00  0.00    +0.189 A 
ATOM     18  C   UNL     1     -11.430  -2.858   1.623  0.00  0.00    +0.054 A 
ATOM     19  C   UNL     1     -12.100  -4.060   1.348  0.00  0.00    +0.042 A 
ATOM     20  C   UNL     1     -11.757  -4.429   0.094  0.00  0.00    +0.196 A 
ATOM     21  O   UNL     1     -10.919  -3.514  -0.410  0.00  0.00    -0.458 OA
ENDBRANCH  14  17
ENDBRANCH  12  13
BRANCH  12  22
ATOM     22  C   UNL     1      -9.162   1.173  -1.454  0.00  0.00    +0.033 C 
BRANCH  22  24
ATOM     23  C   UNL     1      -9.392   2.058   0.871  0.00  0.00    +0.007 C 
ATOM     24  C   UNL     1     -10.156   1.554  -0.355  0.00  0.00    -0.015 C 
ATOM     25  C   UNL     1     -11.083   2.658  -0.867  0.00  0.00    +0.007 C 
ENDBRANCH  22  24
ENDBRANCH  12  22
ENDBRANCH   1  12
BRANCH  10  26
ATOM     26  C   UNL     1      -2.522  -0.046   0.025  0.00  0.00    -0.042 C 
BRANCH  26  27
ATOM     27  C   UNL     1      -1.189  -0.750   0.009  0.00  0.00    -0.056 A 
ATOM     28  C   UNL     1      -1.135  -2.111   0.002  0.00  0.00    +0.006 A 
ATOM     29  C   UNL     1       0.085  -2.780  -0.014  0.00  0.00    +0.046 A 
ATOM     30  C   UNL     1       1.265  -2.091  -0.021  0.00  0.00    +0.128 A 
ATOM     31  C   UNL     1       1.247  -0.681  -0.013  0.00  0.00    +0.024 A 
ATOM     32  C   UNL     1       0.002  -0.004   0.002  0.00  0.00    -0.013 A 
ATOM     33  C   UNL     1      -0.017   1.401   0.010  0.00  0.00    +0.009 A 
ATOM     34  C   UNL     1       1.157   2.091   0.002  0.00  0.00    +0.001 A 
ATOM     35  C   UNL     1       2.380   1.424  -0.014  0.00  0.00    +0.001 A 
ATOM     36  C   UNL     1       2.437   0.064  -0.021  0.00  0.00    +0.012 A 
BRANCH  30  37
ATOM     37  O   UNL     1       2.447  -2.759  -0.036  0.00  0.00    -0.495 OA
ATOM     38  C   UNL     1       2.386  -4.187  -0.043  0.00  0.00    +0.277 C 
ENDBRANCH  30  37
ENDBRANCH  26  27
ENDBRANCH  10  26
TORSDOF 8
