REMARK  Name = ZINC13499329
REMARK  11 active torsions:
REMARK  status: ('A' for Active; 'I' for Inactive)
REMARK    1  A    between atoms: C_1  and  C_2
REMARK    2  A    between atoms: C_2  and  C_3
REMARK    3  A    between atoms: C_3  and  C_4
REMARK    4  A    between atoms: C_4  and  C_6
REMARK    5  A    between atoms: C_4  and  N_69
REMARK    6  A    between atoms: N_10  and  C_11
REMARK    7  A    between atoms: C_11  and  C_12
REMARK    8  A    between atoms: C_17  and  C_18
REMARK    9  A    between atoms: C_17  and  N_69
REMARK   10  A    between atoms: C_23  and  C_30
REMARK   11  A    between atoms: C_31  and  N_69
REMARK                            x       y       z     vdW  Elec       q    Type
REMARK                         _______ _______ _______ _____ _____    ______ ____
ROOT
ATOM      1  N   UNL     1       1.047   3.792   1.324  0.00  0.00    +0.391 N 
ATOM      2  H   UNL     1       1.103   3.496   2.305  0.00  0.00    -0.080 HD
ENDROOT
BRANCH   1   3
ATOM      3  C   UNL     1      -0.366   3.752   0.890  0.00  0.00    -0.067 C 
ATOM      4  C   UNL     1      -0.943   2.373   1.217  0.00  0.00    -0.015 C 
ATOM      5  C   UNL     1      -2.412   2.322   0.794  0.00  0.00    -0.002 C 
ATOM      6  C   UNL     1      -2.519   2.576  -0.711  0.00  0.00    -0.000 C 
ATOM      7  C   UNL     1      -1.942   3.955  -1.037  0.00  0.00    -0.002 C 
ATOM      8  C   UNL     1      -0.472   4.006  -0.615  0.00  0.00    -0.015 C 
ENDBRANCH   1   3
BRANCH   1   9
ATOM      9  C   UNL     1       1.855   2.871   0.497  0.00  0.00    +0.003 C 
BRANCH   9  10
ATOM     10  C   UNL     1       2.148   3.487  -0.846  0.00  0.00    +0.139 A 
ATOM     11  N   UNL     1       2.634   4.684  -1.070  0.00  0.00    -0.115 NA
ATOM     12  N   UNL     1       2.740   4.839  -2.344  0.00  0.00    -0.023 NA
ATOM     13  N   UNL     1       2.335   3.772  -2.940  0.00  0.00    -0.044 NA
ATOM     14  N   UNL     1       1.962   2.915  -2.050  0.00  0.00    -0.223 N 
BRANCH  14  15
ATOM     15  C   UNL     1       1.435   1.572  -2.303  0.00  0.00    +0.221 C 
BRANCH  15  16
ATOM     16  C   UNL     1       2.573   0.585  -2.344  0.00  0.00    +0.126 A 
ATOM     17  C   UNL     1       3.069  -0.088  -1.290  0.00  0.00    +0.046 A 
ATOM     18  C   UNL     1       4.119  -0.899  -1.778  0.00  0.00    +0.041 A 
ATOM     19  C   UNL     1       4.208  -0.667  -3.100  0.00  0.00    +0.195 A 
ATOM     20  O   UNL     1       3.269   0.233  -3.437  0.00  0.00    -0.466 OA
ENDBRANCH  15  16
ENDBRANCH  14  15
ENDBRANCH   9  10
BRANCH   9  21
ATOM     21  C   UNL     1       3.171   2.586   1.225  0.00  0.00    -0.008 C 
BRANCH  21  23
ATOM     22  C   UNL     1       4.182   1.692   3.328  0.00  0.00    +0.004 C 
ATOM     23  C   UNL     1       2.879   1.871   2.546  0.00  0.00    -0.005 C 
ENDBRANCH  21  23
ENDBRANCH   9  21
ENDBRANCH   1   9
BRANCH   1  24
ATOM     24  C   UNL     1       1.572   5.169   1.206  0.00  0.00    -0.036 C 
BRANCH  24  25
ATOM     25  C   UNL     1       1.010   5.998   2.332  0.00  0.00    +0.001 A 
ATOM     26  C   UNL     1       1.716   6.147   3.480  0.00  0.00    +0.017 A 
ATOM     27  C   UNL     1       1.145   6.964   4.552  0.00  0.00    -0.001 A 
ATOM     28  C   UNL     1       1.829   7.157   5.757  0.00  0.00    +0.010 A 
ATOM     29  C   UNL     1       1.265   7.920   6.740  0.00  0.00    +0.004 A 
ATOM     30  C   UNL     1       0.020   8.505   6.555  0.00  0.00    -0.048 A 
ATOM     31  C   UNL     1      -0.671   8.328   5.376  0.00  0.00    +0.029 A 
ATOM     32  C   UNL     1      -0.118   7.555   4.360  0.00  0.00    +0.049 A 
ATOM     33  N   UNL     1      -0.788   7.361   3.171  0.00  0.00    -0.322 N 
ATOM     34  H   UNL     1      -1.658   7.769   3.041  0.00  0.00    +0.169 HD
ATOM     35  C   UNL     1      -0.253   6.613   2.190  0.00  0.00    +0.251 A 
ATOM     36  O   UNL     1      -0.874   6.463   1.152  0.00  0.00    -0.268 OA
ATOM     37  C   UNL     1      -0.582   9.342   7.654  0.00  0.00    +0.044 C 
ENDBRANCH  24  25
ENDBRANCH   1  24
TORSDOF 9
