REMARK  Name = ZINC58236536
REMARK  7 active torsions:
REMARK  status: ('A' for Active; 'I' for Inactive)
REMARK    1  A    between atoms: C_1  and  C_2
REMARK    2  A    between atoms: C_2  and  C_3
REMARK    3  A    between atoms: C_2  and  N_13
REMARK    4  A    between atoms: C_6  and  N_9
REMARK    5  A    between atoms: C_14  and  C_16
REMARK    6  A    between atoms: C_21  and  O_22
REMARK    7  A    between atoms: O_22  and  C_23
REMARK                            x       y       z     vdW  Elec       q    Type
REMARK                         _______ _______ _______ _____ _____    ______ ____
ROOT
ATOM      1  N   UNL     1       0.137   0.087  -0.296  0.00  0.00    -0.305 N 
ATOM      2  C   UNL     1       1.485   0.100  -0.262  0.00  0.00    +0.248 C 
ATOM      3  O   UNL     1       2.064   0.460   0.744  0.00  0.00    -0.270 OA
ATOM      4  H   UNL     1      -0.325  -0.201  -1.099  0.00  0.00    +0.150 HD
ENDROOT
BRANCH   2   5
ATOM      5  C   UNL     1       2.256  -0.321  -1.447  0.00  0.00    +0.079 A 
ATOM      6  C   UNL     1       1.595  -0.730  -2.607  0.00  0.00    +0.017 A 
ATOM      7  C   UNL     1       2.321  -1.122  -3.711  0.00  0.00    +0.001 A 
ATOM      8  C   UNL     1       3.706  -1.113  -3.675  0.00  0.00    +0.004 A 
ATOM      9  C   UNL     1       4.373  -0.712  -2.535  0.00  0.00    +0.047 A 
ATOM     10  C   UNL     1       3.658  -0.308  -1.417  0.00  0.00    +0.141 A 
BRANCH  10  11
ATOM     11  O   UNL     1       4.311   0.092  -0.297  0.00  0.00    -0.455 OA
BRANCH  11  12
ATOM     12  C   UNL     1       5.665   0.189  -0.350  0.00  0.00    +0.128 A 
ATOM     13  C   UNL     1       6.263   1.142  -1.163  0.00  0.00    +0.046 A 
ATOM     14  C   UNL     1       7.639   1.239  -1.215  0.00  0.00    +0.004 A 
ATOM     15  C   UNL     1       8.423   0.388  -0.458  0.00  0.00    +0.000 A 
ATOM     16  C   UNL     1       7.830  -0.563   0.353  0.00  0.00    +0.004 A 
ATOM     17  C   UNL     1       6.454  -0.660   0.413  0.00  0.00    +0.046 A 
ENDBRANCH  11  12
ENDBRANCH  10  11
ENDBRANCH   2   5
BRANCH   1  19
ATOM     18  C   UNL     1      -0.790   2.027   0.869  0.00  0.00    +0.033 C 
ATOM     19  C   UNL     1      -0.629   0.505   0.881  0.00  0.00    +0.100 C 
BRANCH  19  20
ATOM     20  C   UNL     1      -1.988  -0.144   0.852  0.00  0.00    -0.027 A 
ATOM     21  C   UNL     1      -2.670  -0.265  -0.345  0.00  0.00    +0.007 A 
ATOM     22  C   UNL     1      -3.916  -0.860  -0.374  0.00  0.00    +0.023 A 
ATOM     23  C   UNL     1      -4.484  -1.337   0.799  0.00  0.00    +0.035 A 
ATOM     24  C   UNL     1      -3.797  -1.215   2.000  0.00  0.00    +0.023 A 
ATOM     25  C   UNL     1      -2.549  -0.624   2.022  0.00  0.00    +0.007 A 
BRANCH  23  26
ATOM     26  N   UNL     1      -5.747  -1.940   0.773  0.00  0.00    -0.270 N 
ATOM     27  C   UNL     1      -6.185  -2.538  -0.353  0.00  0.00    +0.301 C 
ATOM     28  O   UNL     1      -5.442  -2.653  -1.309  0.00  0.00    -0.253 OA
ATOM     29  N   UNL     1      -7.446  -3.009  -0.419  0.00  0.00    -0.313 N 
ATOM     30  H   UNL     1      -6.307  -1.928   1.565  0.00  0.00    +0.156 HD
ATOM     31  H   UNL     1      -8.039  -2.917   0.343  0.00  0.00    +0.146 HD
ATOM     32  H   UNL     1      -7.761  -3.439  -1.230  0.00  0.00    +0.146 HD
ENDBRANCH  23  26
ENDBRANCH  19  20
ENDBRANCH   1  19
TORSDOF 6
