REMARK  Name = ZINC40110752
REMARK  14 active torsions:
REMARK  status: ('A' for Active; 'I' for Inactive)
REMARK    1  A    between atoms: C_1  and  C_2
REMARK    2  A    between atoms: C_2  and  C_3
REMARK    3  A    between atoms: C_3  and  O_4
REMARK    4  A    between atoms: O_4  and  C_5
REMARK    5  A    between atoms: C_10  and  C_11
REMARK    6  A    between atoms: C_13  and  C_22
REMARK    7  A    between atoms: N_17  and  C_18
REMARK    8  A    between atoms: C_18  and  C_19
REMARK    9  A    between atoms: C_19  and  O_20
REMARK   10  A    between atoms: C_22  and  C_24
REMARK   11  A    between atoms: C_27  and  S_30
REMARK   12  A    between atoms: S_30  and  N_33
REMARK   13  A    between atoms: N_33  and  C_34
REMARK   14  A    between atoms: N_33  and  C_35
REMARK                            x       y       z     vdW  Elec       q    Type
REMARK                         _______ _______ _______ _____ _____    ______ ____
ROOT
ATOM      1  C   UNL     1      -1.467  -4.794   0.283  0.00  0.00    +0.148 C 
ATOM      2  C   UNL     1      -0.921  -5.111   1.656  0.00  0.00    +0.076 C 
ATOM      3  C   UNL     1      -0.804  -6.457   1.730  0.00  0.00    +0.249 C 
ATOM      4  C   UNL     1      -1.252  -7.054   0.453  0.00  0.00    +0.288 C 
ATOM      5  O   UNL     1      -1.268  -8.243   0.207  0.00  0.00    -0.266 OA
ATOM      6  N   UNL     1      -1.640  -6.083  -0.396  0.00  0.00    -0.281 N 
ATOM      7  O   UNL     1      -0.348  -7.148   2.800  0.00  0.00    -0.282 OA
ENDROOT
BRANCH   1  13
ATOM      8  C   UNL     1      -2.838  -2.705   0.485  0.00  0.00    +0.126 A 
ATOM      9  C   UNL     1      -4.061  -2.058   0.590  0.00  0.00    +0.046 A 
ATOM     10  C   UNL     1      -5.230  -2.793   0.617  0.00  0.00    +0.004 A 
ATOM     11  C   UNL     1      -5.182  -4.173   0.541  0.00  0.00    +0.001 A 
ATOM     12  C   UNL     1      -3.965  -4.820   0.437  0.00  0.00    +0.009 A 
ATOM     13  C   UNL     1      -2.793  -4.089   0.403  0.00  0.00    +0.019 A 
BRANCH   8  14
ATOM     14  O   UNL     1      -1.686  -1.984   0.457  0.00  0.00    -0.492 OA
BRANCH  14  15
ATOM     15  C   UNL     1      -1.813  -0.561   0.419  0.00  0.00    +0.229 C 
BRANCH  15  17
ATOM     16  C   UNL     1      -0.549   1.594   0.353  0.00  0.00    +0.007 C 
ATOM     17  C   UNL     1      -0.427   0.071   0.271  0.00  0.00    +0.038 C 
ENDBRANCH  15  17
ENDBRANCH  14  15
ENDBRANCH   8  14
ENDBRANCH   1  13
BRANCH   2  18
ATOM     18  C   UNL     1      -0.583  -4.145   2.707  0.00  0.00    +0.195 C 
ATOM     19  O   UNL     1       0.432  -3.481   2.618  0.00  0.00    -0.287 OA
BRANCH  18  20
ATOM     20  C   UNL     1      -1.476  -3.979   3.873  0.00  0.00    +0.022 A 
ATOM     21  C   UNL     1      -2.585  -4.813   4.032  0.00  0.00    +0.013 A 
ATOM     22  C   UNL     1      -3.413  -4.653   5.123  0.00  0.00    +0.029 A 
ATOM     23  C   UNL     1      -3.148  -3.668   6.059  0.00  0.00    +0.105 A 
ATOM     24  C   UNL     1      -2.051  -2.839   5.907  0.00  0.00    +0.029 A 
ATOM     25  C   UNL     1      -1.211  -2.992   4.824  0.00  0.00    +0.013 A 
BRANCH  23  26
ATOM     26  S   UNL     1      -4.212  -3.470   7.449  0.00  0.00    +0.060 S 
ATOM     27  O   UNL     1      -4.148  -2.099   7.818  0.00  0.00    -0.153 OA
ATOM     28  O   UNL     1      -5.436  -4.113   7.119  0.00  0.00    -0.153 OA
BRANCH  26  29
ATOM     29  N   UNL     1      -3.549  -4.329   8.700  0.00  0.00    -0.183 NA
ATOM     30  C   UNL     1      -2.599  -3.682   9.610  0.00  0.00    +0.131 C 
ATOM     31  C   UNL     1      -3.912  -5.734   8.898  0.00  0.00    +0.131 C 
ENDBRANCH  26  29
ENDBRANCH  23  26
ENDBRANCH  18  20
ENDBRANCH   2  18
BRANCH   6  32
ATOM     32  C   UNL     1      -2.147  -6.279  -1.757  0.00  0.00    +0.137 C 
BRANCH  32  33
ATOM     33  C   UNL     1      -0.978  -6.258  -2.744  0.00  0.00    +0.175 C 
BRANCH  33  34
ATOM     34  O   UNL     1      -0.123  -7.375  -2.495  0.00  0.00    -0.393 OA
ATOM     35  H   UNL     1       0.641  -7.426  -3.085  0.00  0.00    +0.209 HD
ENDBRANCH  33  34
ENDBRANCH  32  33
ENDBRANCH   6  32
TORSDOF 11
