REMARK  Name = ZINC16569791
REMARK  11 active torsions:
REMARK  status: ('A' for Active; 'I' for Inactive)
REMARK    1  A    between atoms: C_1  and  C_2
REMARK    2  A    between atoms: C_2  and  C_3
REMARK    3  A    between atoms: C_3  and  C_4
REMARK    4  A    between atoms: C_4  and  N_5
REMARK    5  A    between atoms: N_5  and  C_6
REMARK    6  A    between atoms: C_6  and  C_7
REMARK    7  A    between atoms: C_21  and  C_23
REMARK    8  A    between atoms: N_31  and  C_32
REMARK    9  A    between atoms: C_32  and  C_33
REMARK   10  A    between atoms: C_32  and  C_34
REMARK   11  A    between atoms: C_32  and  C_35
REMARK                            x       y       z     vdW  Elec       q    Type
REMARK                         _______ _______ _______ _____ _____    ______ ____
ROOT
ATOM      1  C   UNL     1      -1.726   2.296   1.444  0.00  0.00    +0.238 C 
ATOM      2  O   UNL     1      -1.077   1.836   2.359  0.00  0.00    -0.273 OA
ATOM      3  N   UNL     1      -2.828   3.029   1.700  0.00  0.00    -0.255 N 
ATOM      4  C   UNL     1      -3.170   3.337   3.024  0.00  0.00    +0.061 A 
ATOM      5  C   UNL     1      -2.822   2.483   4.059  0.00  0.00    +0.025 A 
ATOM      6  C   UNL     1      -3.157   2.805   5.361  0.00  0.00    +0.002 A 
ATOM      7  C   UNL     1      -3.838   3.976   5.640  0.00  0.00    +0.002 A 
ATOM      8  C   UNL     1      -4.194   4.833   4.614  0.00  0.00    +0.028 A 
ATOM      9  C   UNL     1      -3.867   4.516   3.311  0.00  0.00    +0.068 A 
ATOM     10  N   UNL     1      -4.227   5.341   2.235  0.00  0.00    -0.316 N 
ATOM     11  C   UNL     1      -4.685   6.615   2.227  0.00  0.00    +0.092 A 
ATOM     12  C   UNL     1      -4.886   6.983   0.942  0.00  0.00    +0.020 A 
ATOM     13  C   UNL     1      -4.538   5.884   0.125  0.00  0.00    +0.025 A 
ATOM     14  C   UNL     1      -4.142   4.896   0.934  0.00  0.00    +0.049 A 
ATOM     15  C   UNL     1      -3.668   3.508   0.590  0.00  0.00    +0.159 C 
ENDROOT
BRANCH  15  16
ATOM     16  C   UNL     1      -4.855   2.596   0.416  0.00  0.00    -0.021 A 
ATOM     17  C   UNL     1      -5.504   2.088   1.526  0.00  0.00    +0.006 A 
ATOM     18  C   UNL     1      -6.596   1.255   1.366  0.00  0.00    +0.000 A 
ATOM     19  C   UNL     1      -7.032   0.923   0.098  0.00  0.00    +0.000 A 
ATOM     20  C   UNL     1      -6.380   1.427  -1.012  0.00  0.00    +0.000 A 
ATOM     21  C   UNL     1      -5.291   2.263  -0.853  0.00  0.00    +0.006 A 
ENDBRANCH  15  16
BRANCH   1  22
ATOM     22  C   UNL     1      -1.301   2.049   0.019  0.00  0.00    +0.205 C 
BRANCH  22  23
ATOM     23  N   UNL     1      -0.022   1.335   0.008  0.00  0.00    -0.277 N 
ATOM     24  C   UNL     1      -0.002  -0.013   0.010  0.00  0.00    +0.303 C 
ATOM     25  O   UNL     1      -1.046  -0.636   0.026  0.00  0.00    -0.253 OA
ATOM     26  N   UNL     1       1.175  -0.669  -0.005  0.00  0.00    -0.294 N 
ATOM     27  H   UNL     1       2.007  -0.172  -0.018  0.00  0.00    +0.151 HD
BRANCH  26  28
ATOM     28  C   UNL     1       1.196  -2.134  -0.003  0.00  0.00    +0.028 C 
ATOM     29  C   UNL     1       0.464  -2.657  -1.241  0.00  0.00    +0.031 C 
ATOM     30  C   UNL     1       2.646  -2.623  -0.023  0.00  0.00    +0.031 C 
ATOM     31  C   UNL     1       0.500  -2.652   1.257  0.00  0.00    +0.031 C 
ENDBRANCH  26  28
BRANCH  23  32
ATOM     32  C   UNL     1       1.236   2.086  -0.011  0.00  0.00    +0.110 C 
BRANCH  32  33
ATOM     33  C   UNL     1       1.653   2.345  -1.460  0.00  0.00    +0.019 C 
BRANCH  33  35
ATOM     34  C   UNL     1       3.384   3.388  -2.929  0.00  0.00    +0.004 C 
ATOM     35  C   UNL     1       2.967   3.129  -1.480  0.00  0.00    -0.002 C 
ENDBRANCH  33  35
ENDBRANCH  32  33
ENDBRANCH  23  32
ENDBRANCH  22  23
ENDBRANCH   1  22
TORSDOF 7
