REMARK  Name = ZINC03978036
REMARK  11 active torsions:
REMARK  status: ('A' for Active; 'I' for Inactive)
REMARK    1  A    between atoms: C_1  and  C_2
REMARK    2  A    between atoms: C_2  and  C_3
REMARK    3  A    between atoms: C_2  and  C_4
REMARK    4  A    between atoms: C_4  and  C_5
REMARK    5  A    between atoms: C_15  and  O_48
REMARK    6  A    between atoms: C_19  and  C_21
REMARK    7  A    between atoms: C_19  and  N_25
REMARK    8  A    between atoms: C_21  and  C_23
REMARK    9  A    between atoms: C_21  and  C_24
REMARK   10  A    between atoms: C_26  and  C_28
REMARK   11  A    between atoms: C_47  and  N_83
REMARK                            x       y       z     vdW  Elec       q    Type
REMARK                         _______ _______ _______ _____ _____    ______ ____
ROOT
ATOM      1  N   UNL     1       3.223  -2.130   1.060  0.00  0.00    -0.279 N 
ATOM      2  C   UNL     1       4.468  -2.250   0.558  0.00  0.00    +0.220 C 
ATOM      3  O   UNL     1       5.016  -1.288   0.063  0.00  0.00    -0.275 OA
ATOM      4  H   UNL     1       2.755  -2.914   1.389  0.00  0.00    +0.152 HD
ENDROOT
BRANCH   2   5
ATOM      5  C   UNL     1       5.178  -3.578   0.612  0.00  0.00    +0.081 C 
ATOM      6  C   UNL     1       6.563  -3.449  -0.032  0.00  0.00    -0.061 C 
ATOM      7  C   UNL     1       5.732  -4.179  -2.205  0.00  0.00    -0.033 C 
ATOM      8  C   UNL     1       5.252  -3.617  -3.550  0.00  0.00    +0.028 C 
ATOM      9  C   UNL     1       4.459  -4.671  -4.279  0.00  0.00    -0.009 A 
ATOM     10  C   UNL     1       3.796  -5.728  -3.525  0.00  0.00    +0.011 A 
ATOM     11  C   UNL     1       3.846  -5.896  -2.120  0.00  0.00    -0.014 A 
ATOM     12  C   UNL     1       3.139  -6.964  -1.617  0.00  0.00    +0.009 A 
ATOM     13  C   UNL     1       2.460  -7.815  -2.486  0.00  0.00    +0.003 A 
ATOM     14  C   UNL     1       2.439  -7.668  -3.868  0.00  0.00    +0.026 A 
ATOM     15  C   UNL     1       3.119  -6.563  -4.418  0.00  0.00    +0.048 A 
ATOM     16  N   UNL     1       3.369  -6.046  -5.654  0.00  0.00    -0.349 N 
ATOM     17  H   UNL     1       3.034  -6.415  -6.486  0.00  0.00    +0.166 HD
ATOM     18  C   UNL     1       4.169  -4.918  -5.553  0.00  0.00    +0.087 A 
ATOM     19 BR   UNL     1       4.763  -3.880  -7.018  0.00  0.00    -0.031 Br
ATOM     20  C   UNL     1       4.647  -4.871  -1.423  0.00  0.00    -0.056 C 
ATOM     21  C   UNL     1       4.391  -4.605  -0.155  0.00  0.00    -0.014 C 
ATOM     22  C   UNL     1       7.665  -2.743  -2.067  0.00  0.00    -0.095 C 
ATOM     23  N   UNL     1       6.370  -3.077  -1.456  0.00  0.00    +0.383 N 
ATOM     24  H   UNL     1       5.760  -2.253  -1.500  0.00  0.00    -0.081 HD
ENDBRANCH   2   5
BRANCH   1  37
ATOM     25  C   UNL     1       0.944   1.064  -1.688  0.00  0.00    +0.167 C 
ATOM     26  C   UNL     1      -0.442   0.570  -2.028  0.00  0.00    +0.237 C 
ATOM     27  O   UNL     1      -0.938   0.836  -3.102  0.00  0.00    -0.274 OA
ATOM     28  N   UNL     1      -1.122  -0.165  -1.134  0.00  0.00    -0.290 N 
ATOM     29  C   UNL     1      -2.293  -1.013  -1.417  0.00  0.00    +0.108 C 
ATOM     30  C   UNL     1      -2.340  -2.096  -0.322  0.00  0.00    +0.021 C 
ATOM     31  C   UNL     1      -1.145  -1.776   0.609  0.00  0.00    +0.031 C 
ATOM     32  C   UNL     1      -0.866  -0.293   0.293  0.00  0.00    +0.156 C 
ATOM     33  C   UNL     1       0.540   0.095   0.696  0.00  0.00    +0.269 C 
ATOM     34  N   UNL     1       1.377   0.362  -0.474  0.00  0.00    -0.233 N 
ATOM     35  C   UNL     1       2.601  -0.167  -0.258  0.00  0.00    +0.271 C 
ATOM     36  O   UNL     1       3.546  -0.127  -1.017  0.00  0.00    -0.270 OA
ATOM     37  C   UNL     1       2.575  -0.817   1.110  0.00  0.00    +0.220 C 
ATOM     38  O   UNL     1       1.178  -0.960   1.432  0.00  0.00    -0.298 OA
BRANCH  37  39
ATOM     39  C   UNL     1       3.269   0.078   2.139  0.00  0.00    +0.043 C 
ATOM     40  C   UNL     1       3.126  -0.541   3.531  0.00  0.00    +0.012 C 
ATOM     41  C   UNL     1       4.753   0.204   1.787  0.00  0.00    +0.012 C 
ENDBRANCH  37  39
BRANCH  33  42
ATOM     42  O   UNL     1       0.487   1.267   1.510  0.00  0.00    -0.348 OA
ATOM     43  H   UNL     1       1.348   1.553   1.845  0.00  0.00    +0.214 HD
ENDBRANCH  33  42
BRANCH  25  44
ATOM     44  C   UNL     1       1.903   0.753  -2.838  0.00  0.00    +0.035 C 
BRANCH  44  46
ATOM     45  C   UNL     1       1.770   3.097  -3.695  0.00  0.00    +0.007 C 
ATOM     46  C   UNL     1       1.550   1.624  -4.046  0.00  0.00    -0.015 C 
ATOM     47  C   UNL     1       2.442   1.242  -5.228  0.00  0.00    +0.007 C 
ENDBRANCH  44  46
ENDBRANCH  25  44
ENDBRANCH   1  37
TORSDOF 6
