REMARK  Name = ZINC45592654
REMARK  10 active torsions:
REMARK  status: ('A' for Active; 'I' for Inactive)
REMARK    1  A    between atoms: C_1  and  C_2
REMARK    2  A    between atoms: C_2  and  C_3
REMARK    3  A    between atoms: C_2  and  O_4
REMARK    4  A    between atoms: O_4  and  C_5
REMARK    5  A    between atoms: C_5  and  C_7
REMARK    6  A    between atoms: C_7  and  C_8
REMARK    7  A    between atoms: C_8  and  C_10
REMARK    8  A    between atoms: C_8  and  N_19
REMARK    9  A    between atoms: C_15  and  N_16
REMARK   10  A    between atoms: C_20  and  C_22
REMARK                            x       y       z     vdW  Elec       q    Type
REMARK                         _______ _______ _______ _____ _____    ______ ____
ROOT
ATOM      1  C   UNL     1      -2.920  -3.602  -1.362  0.00  0.00    +0.116 C 
ENDROOT
BRANCH   1   2
ATOM      2  C   UNL     1      -4.326  -4.127  -1.498  0.00  0.00    +0.003 A 
ATOM      3  C   UNL     1      -4.787  -5.103  -0.633  0.00  0.00    +0.008 A 
ATOM      4  C   UNL     1      -6.076  -5.584  -0.758  0.00  0.00    +0.000 A 
ATOM      5  C   UNL     1      -6.905  -5.090  -1.748  0.00  0.00    +0.002 A 
ATOM      6  C   UNL     1      -6.445  -4.114  -2.612  0.00  0.00    +0.033 A 
ATOM      7  C   UNL     1      -5.157  -3.630  -2.484  0.00  0.00    +0.131 A 
BRANCH   7   8
ATOM      8  N   UNL     1      -4.666  -2.581  -3.406  0.00  0.00    +0.057 N 
ATOM      9  O   UNL     1      -5.418  -2.082  -4.210  0.00  0.00    -0.126 OA
ATOM     10  O   UNL     1      -3.512  -2.224  -3.356  0.00  0.00    -0.126 OA
ENDBRANCH   7   8
ENDBRANCH   1   2
BRANCH   1  11
ATOM     11  N   UNL     1      -2.115  -4.555  -0.593  0.00  0.00    -0.304 N 
ATOM     12  C   UNL     1      -1.528  -5.597  -1.214  0.00  0.00    +0.245 C 
ATOM     13  O   UNL     1      -1.666  -5.746  -2.413  0.00  0.00    -0.270 OA
ATOM     14  H   UNL     1      -2.005  -4.436   0.363  0.00  0.00    +0.150 HD
BRANCH  12  15
ATOM     15  C   UNL     1      -0.717  -6.557  -0.440  0.00  0.00    +0.042 A 
ATOM     16  C   UNL     1      -0.103  -7.635  -1.085  0.00  0.00    +0.062 A 
ATOM     17  C   UNL     1       0.654  -8.527  -0.352  0.00  0.00    +0.164 A 
ATOM     18  C   UNL     1       0.804  -8.356   1.019  0.00  0.00    +0.180 A 
ATOM     19  C   UNL     1       0.196  -7.287   1.663  0.00  0.00    +0.087 A 
ATOM     20  C   UNL     1      -0.558  -6.387   0.937  0.00  0.00    +0.037 A 
ATOM     21 CL   UNL     1       0.388  -7.079   3.375  0.00  0.00    -0.080 Cl
ATOM     22  O   UNL     1       1.555  -9.245   1.730  0.00  0.00    -0.487 OA
ATOM     23  C   UNL     1       1.018 -10.564   1.847  0.00  0.00    +0.232 C 
ATOM     24  C   UNL     1       1.380 -11.404   0.631  0.00  0.00    +0.082 C 
ATOM     25  C   UNL     1       0.746 -10.876  -0.646  0.00  0.00    +0.232 C 
ATOM     26  O   UNL     1       1.260  -9.583  -0.970  0.00  0.00    -0.488 OA
ENDBRANCH  12  15
ENDBRANCH   1  11
BRANCH   1  27
ATOM     27  C   UNL     1      -2.946  -2.256  -0.636  0.00  0.00    +0.147 C 
BRANCH  27  28
ATOM     28  C   UNL     1      -1.557  -1.673  -0.608  0.00  0.00    +0.309 C 
ATOM     29  O   UNL     1      -0.640  -2.273  -1.116  0.00  0.00    -0.251 OA
BRANCH  28  30
ATOM     30  O   UNL     1      -1.338  -0.486  -0.019  0.00  0.00    -0.462 OA
BRANCH  30  32
ATOM     31  C   UNL     1      -0.015   1.536  -0.039  0.00  0.00    +0.052 C 
ATOM     32  C   UNL     1       0.003   0.006  -0.030  0.00  0.00    +0.170 C 
ATOM     33  C   UNL     1       0.737  -0.488   1.219  0.00  0.00    +0.052 C 
ENDBRANCH  30  32
ENDBRANCH  28  30
ENDBRANCH  27  28
ENDBRANCH   1  27
TORSDOF 8
