REMARK  Name = ZINC04473693
REMARK  12 active torsions:
REMARK  status: ('A' for Active; 'I' for Inactive)
REMARK    1  A    between atoms: C_1  and  C_2
REMARK    2  A    between atoms: C_2  and  C_3
REMARK    3  A    between atoms: C_2  and  C_4
REMARK    4  A    between atoms: C_4  and  N_5
REMARK    5  A    between atoms: C_10  and  C_12
REMARK    6  A    between atoms: C_10  and  C_20
REMARK    7  A    between atoms: C_10  and  N_66
REMARK    8  A    between atoms: C_12  and  O_13
REMARK    9  A    between atoms: O_13  and  C_14
REMARK   10  A    between atoms: C_20  and  C_21
REMARK   11  A    between atoms: C_20  and  C_22
REMARK   12  A    between atoms: C_20  and  C_23
REMARK                            x       y       z     vdW  Elec       q    Type
REMARK                         _______ _______ _______ _____ _____    ______ ____
ROOT
ATOM      1  N   UNL     1      -3.875   1.427   3.317  0.00  0.00    -0.300 N 
ATOM      2  C   UNL     1      -4.034   1.580   1.989  0.00  0.00    +0.139 C 
ATOM      3  S   UNL     1      -5.453   2.211   1.269  0.00  0.00    -0.018 S 
ATOM      4  N   UNL     1      -2.961   1.184   1.293  0.00  0.00    -0.285 N 
ATOM      5  C   UNL     1      -1.971   0.721   2.132  0.00  0.00    +0.098 C 
ATOM      6  C   UNL     1      -2.539   0.857   3.526  0.00  0.00    +0.090 C 
ATOM      7  C   UNL     1      -1.682   1.803   4.359  0.00  0.00    +0.033 C 
ATOM      8  C   UNL     1      -2.289   1.949   5.757  0.00  0.00    +0.003 C 
ATOM      9  C   UNL     1      -2.361   0.576   6.427  0.00  0.00    +0.000 C 
ATOM     10  C   UNL     1      -3.242  -0.356   5.592  0.00  0.00    +0.003 C 
ATOM     11  C   UNL     1      -2.638  -0.511   4.194  0.00  0.00    +0.033 C 
ATOM     12  H   UNL     1      -2.890   1.219   0.326  0.00  0.00    +0.155 HD
ATOM     13  N   UNL     1      -0.766   0.242   1.850  0.00  0.00    -0.368 N 
ATOM     14  H   UNL     1      -0.144  -0.064   2.608  0.00  0.00    +0.161 HD
ENDROOT
BRANCH   1  15
ATOM     15  C   UNL     1      -4.853   1.761   4.355  0.00  0.00    +0.110 C 
BRANCH  15  17
ATOM     16  C   UNL     1      -5.835  -0.526   4.136  0.00  0.00    +0.009 C 
ATOM     17  C   UNL     1      -6.142   0.973   4.114  0.00  0.00    +0.000 C 
ATOM     18  C   UNL     1      -7.154   1.302   5.214  0.00  0.00    +0.009 C 
ENDBRANCH  15  17
ENDBRANCH   1  15
BRANCH  13  19
ATOM     19  C   UNL     1      -0.309   0.149   0.421  0.00  0.00    +0.123 C 
BRANCH  19  20
ATOM     20  C   UNL     1       0.009  -1.316   0.113  0.00  0.00    -0.014 C 
ATOM     21  C   UNL     1       0.952  -1.869   1.182  0.00  0.00    +0.013 C 
ATOM     22  C   UNL     1      -1.288  -2.128   0.106  0.00  0.00    +0.013 C 
ATOM     23  C   UNL     1       0.679  -1.414  -1.259  0.00  0.00    +0.013 C 
ENDBRANCH  19  20
BRANCH  19  24
ATOM     24  C   UNL     1       0.959   0.990   0.265  0.00  0.00    +0.254 C 
BRANCH  24  25
ATOM     25  O   UNL     1       1.974   0.487   1.135  0.00  0.00    -0.490 OA
BRANCH  25  26
ATOM     26  C   UNL     1       3.173   1.126   1.120  0.00  0.00    +0.121 A 
ATOM     27  C   UNL     1       3.370   2.212   0.279  0.00  0.00    +0.045 A 
ATOM     28  C   UNL     1       4.588   2.865   0.270  0.00  0.00    +0.004 A 
ATOM     29  C   UNL     1       5.614   2.428   1.088  0.00  0.00    +0.000 A 
ATOM     30  C   UNL     1       5.422   1.343   1.922  0.00  0.00    +0.004 A 
ATOM     31  C   UNL     1       4.204   0.691   1.940  0.00  0.00    +0.045 A 
ENDBRANCH  25  26
ENDBRANCH  24  25
ENDBRANCH  19  24
ENDBRANCH  13  19
TORSDOF 7
