REMARK  Name = ZINC03292318
REMARK  5 active torsions:
REMARK  status: ('A' for Active; 'I' for Inactive)
REMARK    1  A    between atoms: C_4  and  N_7
REMARK    2  A    between atoms: C_20  and  S_21
REMARK    3  A    between atoms: S_21  and  C_22
REMARK    4  A    between atoms: C_22  and  C_23
REMARK    5  A    between atoms: N_25  and  C_26
REMARK                            x       y       z     vdW  Elec       q    Type
REMARK                         _______ _______ _______ _____ _____    ______ ____
ROOT
ATOM      1  N   UNL     1       1.291   0.394   5.395  0.00  0.00    -0.245 N 
ATOM      2  C   UNL     1       0.415   0.946   6.260  0.00  0.00    +0.268 A 
ATOM      3  O   UNL     1       0.573   0.826   7.460  0.00  0.00    -0.267 OA
ATOM      4  C   UNL     1      -0.736   1.697   5.728  0.00  0.00    +0.064 A 
ATOM      5  C   UNL     1      -1.670   2.288   6.578  0.00  0.00    +0.015 A 
ATOM      6  C   UNL     1      -2.734   2.983   6.043  0.00  0.00    +0.001 A 
ATOM      7  C   UNL     1      -2.878   3.096   4.669  0.00  0.00    +0.002 A 
ATOM      8  C   UNL     1      -1.959   2.515   3.817  0.00  0.00    +0.027 A 
ATOM      9  C   UNL     1      -0.883   1.812   4.336  0.00  0.00    +0.064 A 
ATOM     10  N   UNL     1       0.061   1.223   3.505  0.00  0.00    -0.255 N 
ATOM     11  C   UNL     1       1.119   0.525   4.026  0.00  0.00    +0.245 A 
ATOM     12  N   UNL     1       1.823   0.086   3.009  0.00  0.00    -0.109 NA
ATOM     13  N   UNL     1       1.279   0.454   1.904  0.00  0.00    -0.120 NA
ATOM     14  C   UNL     1       0.194   1.150   2.145  0.00  0.00    +0.198 A 
ENDROOT
BRANCH   1  18
ATOM     15  C   UNL     1       4.559  -1.736   6.861  0.00  0.00    +0.000 A 
ATOM     16  C   UNL     1       3.677  -2.342   5.986  0.00  0.00    +0.002 A 
ATOM     17  C   UNL     1       2.593  -1.639   5.498  0.00  0.00    +0.026 A 
ATOM     18  C   UNL     1       2.389  -0.322   5.888  0.00  0.00    +0.053 A 
ATOM     19  C   UNL     1       3.280   0.286   6.762  0.00  0.00    +0.026 A 
ATOM     20  C   UNL     1       4.359  -0.424   7.251  0.00  0.00    +0.002 A 
ENDBRANCH   1  18
BRANCH  14  21
ATOM     21  S   UNL     1      -0.882   1.863   0.946  0.00  0.00    -0.076 S 
BRANCH  21  22
ATOM     22  C   UNL     1      -0.135   1.405  -0.642  0.00  0.00    +0.173 C 
BRANCH  22  23
ATOM     23  C   UNL     1      -0.969   1.960  -1.768  0.00  0.00    +0.228 C 
ATOM     24  O   UNL     1      -1.969   2.601  -1.524  0.00  0.00    -0.275 OA
ATOM     25  N   UNL     1      -0.604   1.743  -3.047  0.00  0.00    -0.284 N 
ATOM     26  H   UNL     1       0.226   1.279  -3.243  0.00  0.00    +0.155 HD
BRANCH  25  27
ATOM     27  C   UNL     1      -1.419   2.186  -4.091  0.00  0.00    +0.041 A 
ATOM     28  C   UNL     1      -2.135   3.357  -3.965  0.00  0.00    +0.024 A 
ATOM     29  C   UNL     1      -2.950   3.807  -4.999  0.00  0.00    +0.002 A 
ATOM     30  C   UNL     1      -3.064   3.106  -6.161  0.00  0.00    +0.008 A 
ATOM     31  C   UNL     1      -2.350   1.907  -6.329  0.00  0.00    -0.016 A 
ATOM     32  C   UNL     1      -1.513   1.441  -5.286  0.00  0.00    +0.003 A 
ATOM     33  C   UNL     1      -0.804   0.241  -5.454  0.00  0.00    +0.010 A 
ATOM     34  C   UNL     1      -0.923  -0.454  -6.619  0.00  0.00    +0.001 A 
ATOM     35  C   UNL     1      -1.743   0.006  -7.648  0.00  0.00    +0.001 A 
ATOM     36  C   UNL     1      -2.448   1.162  -7.518  0.00  0.00    +0.008 A 
ENDBRANCH  25  27
ENDBRANCH  22  23
ENDBRANCH  21  22
ENDBRANCH  14  21
TORSDOF 5
