REMARK  Name = ZINC02743607
REMARK  17 active torsions:
REMARK  status: ('A' for Active; 'I' for Inactive)
REMARK    1  A    between atoms: C_1  and  C_2
REMARK    2  A    between atoms: C_2  and  C_3
REMARK    3  A    between atoms: C_3  and  C_4
REMARK    4  A    between atoms: C_4  and  N_5
REMARK    5  A    between atoms: C_6  and  C_27
REMARK    6  A    between atoms: C_9  and  S_10
REMARK    7  A    between atoms: S_10  and  C_11
REMARK    8  A    between atoms: C_11  and  C_12
REMARK    9  A    between atoms: N_14  and  C_15
REMARK   10  A    between atoms: C_16  and  C_22
REMARK   11  A    between atoms: C_17  and  C_21
REMARK   12  A    between atoms: C_18  and  C_20
REMARK   13  A    between atoms: C_22  and  O_24
REMARK   14  A    between atoms: O_24  and  C_25
REMARK   15  A    between atoms: C_25  and  C_26
REMARK   16  A    between atoms: C_29  and  C_33
REMARK   17  A    between atoms: N_31  and  C_32
REMARK                            x       y       z     vdW  Elec       q    Type
REMARK                         _______ _______ _______ _____ _____    ______ ____
ROOT
ATOM      1  S   UNL     1       1.384   7.157   0.279  0.00  0.00    -0.077 S 
ENDROOT
BRANCH   1   6
ATOM      2  N   UNL     1       0.985   4.391   0.161  0.00  0.00    -0.301 N 
ATOM      3  C   UNL     1       1.782   3.279   0.007  0.00  0.00    +0.184 A 
ATOM      4  N   UNL     1       3.019   3.706  -0.115  0.00  0.00    -0.127 NA
ATOM      5  N   UNL     1       3.049   4.989  -0.044  0.00  0.00    -0.122 NA
ATOM      6  C   UNL     1       1.834   5.460   0.128  0.00  0.00    +0.192 A 
BRANCH   3   7
ATOM      7  C   UNL     1       1.333   1.876  -0.020  0.00  0.00    +0.124 A 
ATOM      8  C   UNL     1       1.833   0.839   0.741  0.00  0.00    +0.092 A 
ATOM      9  C   UNL     1       1.126  -0.314   0.401  0.00  0.00    +0.079 A 
ATOM     10  N   UNL     1       0.242  -0.011  -0.515  0.00  0.00    -0.175 NA
ATOM     11  N   UNL     1       0.343   1.356  -0.804  0.00  0.00    -0.262 N 
ATOM     12  C   UNL     1      -0.469   2.095  -1.774  0.00  0.00    +0.173 C 
ATOM     13  C   UNL     1       1.345  -1.684   0.991  0.00  0.00    +0.069 C 
ATOM     14 CL   UNL     1       3.108   0.952   1.914  0.00  0.00    -0.079 Cl
ENDBRANCH   3   7
BRANCH   2  15
ATOM     15  C   UNL     1      -0.470   4.421   0.328  0.00  0.00    +0.126 C 
BRANCH  15  16
ATOM     16  C   UNL     1      -0.811   4.488   1.818  0.00  0.00    +0.021 C 
BRANCH  16  18
ATOM     17  C   UNL     1      -2.672   4.587   3.482  0.00  0.00    +0.004 C 
ATOM     18  C   UNL     1      -2.331   4.519   1.992  0.00  0.00    -0.002 C 
ENDBRANCH  16  18
ENDBRANCH  15  16
ENDBRANCH   2  15
ENDBRANCH   1   6
BRANCH   1  19
ATOM     19  C   UNL     1       3.015   7.929   0.130  0.00  0.00    +0.173 C 
BRANCH  19  20
ATOM     20  C   UNL     1       2.873   9.426   0.233  0.00  0.00    +0.228 C 
ATOM     21  O   UNL     1       1.778   9.922   0.392  0.00  0.00    -0.275 OA
ATOM     22  N   UNL     1       3.963  10.213   0.149  0.00  0.00    -0.279 N 
ATOM     23  H   UNL     1       4.840   9.817   0.022  0.00  0.00    +0.155 HD
BRANCH  22  24
ATOM     24  C   UNL     1       3.833  11.590   0.244  0.00  0.00    +0.086 A 
ATOM     25  C   UNL     1       4.830  12.559   0.182  0.00  0.00    +0.091 A 
ATOM     26  C   UNL     1       4.407  13.933   0.311  0.00  0.00    -0.025 A 
ATOM     27  C   UNL     1       3.092  14.158   0.480  0.00  0.00    -0.008 A 
ATOM     28  S   UNL     1       2.390  12.522   0.462  0.00  0.00    -0.078 S 
ATOM     29  C   UNL     1       2.382  15.478   0.640  0.00  0.00    +0.052 C 
ATOM     30  C   UNL     1       5.397  15.068   0.260  0.00  0.00    +0.045 C 
BRANCH  25  31
ATOM     31  C   UNL     1       6.237  12.202  -0.005  0.00  0.00    +0.342 C 
ATOM     32  O   UNL     1       6.699  12.114  -1.128  0.00  0.00    -0.245 OA
BRANCH  31  33
ATOM     33  O   UNL     1       7.023  11.971   1.066  0.00  0.00    -0.461 OA
BRANCH  33  34
ATOM     34  C   UNL     1       8.408  11.622   0.806  0.00  0.00    +0.229 C 
ATOM     35  C   UNL     1       9.136  11.399   2.132  0.00  0.00    +0.048 C 
ENDBRANCH  33  34
ENDBRANCH  31  33
ENDBRANCH  25  31
ENDBRANCH  22  24
ENDBRANCH  19  20
ENDBRANCH   1  19
TORSDOF 11
