REMARK  Name = ZINC36606770
REMARK  15 active torsions:
REMARK  status: ('A' for Active; 'I' for Inactive)
REMARK    1  A    between atoms: C_1  and  C_2
REMARK    2  A    between atoms: C_2  and  C_3
REMARK    3  A    between atoms: C_3  and  C_4
REMARK    4  A    between atoms: C_4  and  C_5
REMARK    5  A    between atoms: C_5  and  C_7
REMARK    6  A    between atoms: C_5  and  C_9
REMARK    7  A    between atoms: C_7  and  C_8
REMARK    8  A    between atoms: N_11  and  C_12
REMARK    9  A    between atoms: N_11  and  C_18
REMARK   10  A    between atoms: C_18  and  C_20
REMARK   11  A    between atoms: C_18  and  C_26
REMARK   12  A    between atoms: N_28  and  C_29
REMARK   13  A    between atoms: C_29  and  S_30
REMARK   14  A    between atoms: S_30  and  C_33
REMARK   15  A    between atoms: C_36  and  C_39
REMARK                            x       y       z     vdW  Elec       q    Type
REMARK                         _______ _______ _______ _____ _____    ______ ____
ROOT
ATOM      1  C   UNL     1       2.032  -6.395   2.123  0.00  0.00    +0.197 C 
ENDROOT
BRANCH   1   2
ATOM      2  C   UNL     1       3.521  -6.500   2.337  0.00  0.00    -0.018 A 
ATOM      3  C   UNL     1       4.108  -5.882   3.424  0.00  0.00    +0.006 A 
ATOM      4  C   UNL     1       5.473  -5.978   3.619  0.00  0.00    +0.000 A 
ATOM      5  C   UNL     1       6.250  -6.694   2.728  0.00  0.00    +0.000 A 
ATOM      6  C   UNL     1       5.662  -7.313   1.641  0.00  0.00    +0.000 A 
ATOM      7  C   UNL     1       4.297  -7.220   1.448  0.00  0.00    +0.006 A 
ENDBRANCH   1   2
BRANCH   1   8
ATOM      8  C   UNL     1       1.319  -7.262   3.129  0.00  0.00    +0.240 C 
ATOM      9  O   UNL     1       0.897  -6.777   4.157  0.00  0.00    -0.273 OA
ATOM     10  N   UNL     1       1.148  -8.577   2.885  0.00  0.00    -0.294 N 
ATOM     11  H   UNL     1       1.485  -8.965   2.062  0.00  0.00    +0.150 HD
BRANCH  10  12
ATOM     12  C   UNL     1       0.454  -9.419   3.862  0.00  0.00    +0.278 C 
BRANCH  12  13
ATOM     13  S   UNL     1      -1.298  -9.551   3.411  0.00  0.00    +0.013 S 
ATOM     14  O   UNL     1      -1.972 -10.416   4.314  0.00  0.00    -0.168 OA
ATOM     15  O   UNL     1      -1.824  -8.265   3.110  0.00  0.00    -0.168 OA
BRANCH  13  16
ATOM     16  C   UNL     1      -1.306 -10.411   1.873  0.00  0.00    +0.090 A 
ATOM     17  C   UNL     1      -1.231  -9.705   0.686  0.00  0.00    +0.027 A 
ATOM     18  C   UNL     1      -1.238 -10.380  -0.520  0.00  0.00    +0.005 A 
ATOM     19  C   UNL     1      -1.318 -11.760  -0.540  0.00  0.00    -0.050 A 
ATOM     20  C   UNL     1      -1.391 -12.465   0.646  0.00  0.00    +0.005 A 
ATOM     21  C   UNL     1      -1.381 -11.791   1.853  0.00  0.00    +0.027 A 
ATOM     22  C   UNL     1      -1.326 -12.495  -1.855  0.00  0.00    +0.044 C 
ENDBRANCH  13  16
ENDBRANCH  12  13
ENDBRANCH  10  12
ENDBRANCH   1   8
BRANCH   1  25
ATOM     23  C   UNL     1       2.309  -4.011   1.704  0.00  0.00    +0.224 C 
ATOM     24  O   UNL     1       3.344  -4.261   1.122  0.00  0.00    -0.275 OA
ATOM     25  N   UNL     1       1.612  -5.002   2.294  0.00  0.00    -0.255 N 
BRANCH  25  26
ATOM     26  C   UNL     1       0.486  -4.701   3.068  0.00  0.00    +0.037 A 
ATOM     27  C   UNL     1      -0.722  -5.339   2.817  0.00  0.00    +0.023 A 
ATOM     28  C   UNL     1      -1.832  -5.039   3.583  0.00  0.00    +0.002 A 
ATOM     29  C   UNL     1      -1.741  -4.105   4.599  0.00  0.00    +0.000 A 
ATOM     30  C   UNL     1      -0.539  -3.468   4.851  0.00  0.00    +0.002 A 
ATOM     31  C   UNL     1       0.575  -3.768   4.093  0.00  0.00    +0.023 A 
ENDBRANCH  25  26
BRANCH  23  32
ATOM     32  C   UNL     1       1.804  -2.593   1.769  0.00  0.00    +0.075 C 
BRANCH  32  33
ATOM     33  C   UNL     1       0.770  -2.369   0.664  0.00  0.00    +0.009 C 
ATOM     34  C   UNL     1      -0.446  -3.264   0.915  0.00  0.00    +0.004 C 
ENDBRANCH  32  33
BRANCH  32  35
ATOM     35  C   UNL     1       2.974  -1.626   1.576  0.00  0.00    +0.013 C 
BRANCH  35  36
ATOM     36  C   UNL     1       2.484  -0.189   1.765  0.00  0.00    +0.000 C 
BRANCH  36  38
ATOM     37  C   UNL     1       3.164   2.216   1.762  0.00  0.00    +0.004 C 
ATOM     38  C   UNL     1       3.654   0.779   1.572  0.00  0.00    -0.003 C 
ENDBRANCH  36  38
ENDBRANCH  35  36
ENDBRANCH  32  35
ENDBRANCH  23  32
ENDBRANCH   1  25
TORSDOF 12
