REMARK  Name = ZINC13234261
REMARK  12 active torsions:
REMARK  status: ('A' for Active; 'I' for Inactive)
REMARK    1  A    between atoms: C_1  and  C_2
REMARK    2  A    between atoms: C_2  and  C_3
REMARK    3  A    between atoms: C_3  and  N_4
REMARK    4  A    between atoms: N_4  and  C_5
REMARK    5  A    between atoms: C_13  and  C_15
REMARK    6  A    between atoms: C_15  and  S_16
REMARK    7  A    between atoms: S_16  and  C_17
REMARK    8  A    between atoms: N_27  and  C_28
REMARK    9  A    between atoms: C_28  and  C_30
REMARK   10  A    between atoms: C_28  and  C_33
REMARK   11  A    between atoms: C_30  and  C_31
REMARK   12  A    between atoms: C_30  and  C_32
REMARK                            x       y       z     vdW  Elec       q    Type
REMARK                         _______ _______ _______ _____ _____    ______ ____
ROOT
ATOM      1  C   UNL     1       3.588  -5.676   2.528  0.00  0.00    +0.173 A 
ATOM      2  N   UNL     1       3.732  -6.242   1.355  0.00  0.00    -0.223 NA
ATOM      3  C   UNL     1       4.119  -7.527   1.233  0.00  0.00    +0.079 A 
ATOM      4  C   UNL     1       4.272  -8.131  -0.018  0.00  0.00    +0.028 A 
ATOM      5  C   UNL     1       4.665  -9.438  -0.095  0.00  0.00    +0.002 A 
ATOM      6  C   UNL     1       4.915 -10.178   1.053  0.00  0.00    +0.001 A 
ATOM      7  C   UNL     1       4.773  -9.615   2.292  0.00  0.00    +0.015 A 
ATOM      8  C   UNL     1       4.374  -8.284   2.400  0.00  0.00    +0.065 A 
ATOM      9  C   UNL     1       4.205  -7.628   3.703  0.00  0.00    +0.263 A 
ATOM     10  O   UNL     1       4.410  -8.226   4.743  0.00  0.00    -0.267 OA
ATOM     11  N   UNL     1       3.818  -6.331   3.704  0.00  0.00    -0.273 N 
ENDROOT
BRANCH   1  12
ATOM     12  S   UNL     1       3.079  -3.990   2.591  0.00  0.00    -0.078 S 
BRANCH  12  13
ATOM     13  C   UNL     1       2.933  -3.640   0.821  0.00  0.00    +0.173 C 
BRANCH  13  15
ATOM     14  N   UNL     1       2.321  -1.724  -0.618  0.00  0.00    -0.296 N 
ATOM     15  C   UNL     1       2.496  -2.211   0.626  0.00  0.00    +0.226 C 
ATOM     16  O   UNL     1       2.303  -1.499   1.589  0.00  0.00    -0.275 OA
BRANCH  14  17
ATOM     17  C   UNL     1       1.896  -0.335  -0.808  0.00  0.00    +0.098 C 
ATOM     18  C   UNL     1       0.534  -0.120  -0.128  0.00  0.00    +0.046 C 
ATOM     19  C   UNL     1       0.257   1.410  -0.069  0.00  0.00    +0.168 C 
ATOM     20  S   UNL     1       1.932   2.038   0.374  0.00  0.00    -0.029 S 
ATOM     21  O   UNL     1       2.230   3.168  -0.434  0.00  0.00    -0.174 OA
ATOM     22  O   UNL     1       2.026   2.144   1.788  0.00  0.00    -0.174 OA
ATOM     23  C   UNL     1       2.950   0.614  -0.189  0.00  0.00    +0.188 C 
ENDBRANCH  14  17
BRANCH  14  24
ATOM     24  C   UNL     1       2.554  -2.583  -1.782  0.00  0.00    +0.108 C 
BRANCH  24  26
ATOM     25  C   UNL     1       4.260  -3.363  -3.432  0.00  0.00    +0.005 C 
ATOM     26  C   UNL     1       4.016  -2.465  -2.218  0.00  0.00    +0.016 C 
ENDBRANCH  24  26
ENDBRANCH  14  24
ENDBRANCH  13  15
ENDBRANCH  12  13
ENDBRANCH   1  12
BRANCH  11  27
ATOM     27  C   UNL     1       3.640  -5.626   4.976  0.00  0.00    +0.208 C 
BRANCH  27  28
ATOM     28  C   UNL     1       2.403  -6.171   5.692  0.00  0.00    +0.017 C 
ATOM     29  C   UNL     1       1.192  -6.080   4.761  0.00  0.00    +0.010 C 
ATOM     30  C   UNL     1       2.640  -7.632   6.079  0.00  0.00    +0.010 C 
ENDBRANCH  27  28
BRANCH  27  31
ATOM     31  C   UNL     1       4.855  -5.836   5.842  0.00  0.00    +0.379 C 
ATOM     32  O   UNL     1       5.776  -6.506   5.438  0.00  0.00    -0.244 OA
ATOM     33  O   UNL     1       4.915  -5.279   7.062  0.00  0.00    -0.244 OA
ENDBRANCH  27  31
ENDBRANCH  11  27
TORSDOF 9
