REMARK  Name = ZINC09478613
REMARK  6 active torsions:
REMARK  status: ('A' for Active; 'I' for Inactive)
REMARK    1  A    between atoms: C_4  and  C_7
REMARK    2  A    between atoms: C_7  and  N_8
REMARK    3  A    between atoms: C_13  and  C_20
REMARK    4  A    between atoms: C_23  and  O_26
REMARK    5  A    between atoms: O_26  and  C_27
REMARK    6  A    between atoms: C_27  and  C_28
REMARK                            x       y       z     vdW  Elec       q    Type
REMARK                         _______ _______ _______ _____ _____    ______ ____
ROOT
ATOM      1  N   UNL     1       4.152  -0.952   1.338  0.00  0.00    -0.246 N 
ATOM      2  C   UNL     1       4.930  -0.115   2.092  0.00  0.00    +0.128 A 
ATOM      3  C   UNL     1       5.105  -0.710   3.292  0.00  0.00    +0.029 A 
ATOM      4  C   UNL     1       4.414  -1.939   3.269  0.00  0.00    +0.141 A 
ATOM      5  N   UNL     1       3.845  -2.076   2.105  0.00  0.00    -0.177 NA
ATOM      6  C   UNL     1       5.866  -0.250   4.496  0.00  0.00    +0.111 C 
ATOM      7  S   UNL     1       7.339   0.691   4.089  0.00  0.00    -0.138 S 
ATOM      8  C   UNL     1       6.759   2.228   3.358  0.00  0.00    +0.166 C 
ATOM      9  C   UNL     1       6.139   2.038   2.030  0.00  0.00    +0.228 C 
ATOM     10  O   UNL     1       6.383   2.910   1.223  0.00  0.00    -0.275 OA
ATOM     11  N   UNL     1       5.375   1.084   1.589  0.00  0.00    -0.270 N 
ATOM     12  H   UNL     1       5.039   1.260   0.696  0.00  0.00    +0.156 HD
ENDROOT
BRANCH   6  13
ATOM     13  C   UNL     1       6.274  -1.458   5.300  0.00  0.00    -0.030 A 
ATOM     14  C   UNL     1       7.085  -2.423   4.732  0.00  0.00    +0.008 A 
ATOM     15  C   UNL     1       7.460  -3.531   5.467  0.00  0.00    +0.046 A 
ATOM     16  C   UNL     1       7.023  -3.675   6.776  0.00  0.00    +0.121 A 
ATOM     17  C   UNL     1       6.211  -2.704   7.343  0.00  0.00    +0.046 A 
ATOM     18  C   UNL     1       5.843  -1.595   6.606  0.00  0.00    +0.008 A 
BRANCH  16  19
ATOM     19  O   UNL     1       7.391  -4.764   7.500  0.00  0.00    -0.487 OA
BRANCH  19  20
ATOM     20  C   UNL     1       6.904  -4.846   8.841  0.00  0.00    +0.264 C 
BRANCH  20  21
ATOM     21  C   UNL     1       7.410  -6.111   9.484  0.00  0.00    -0.010 A 
ATOM     22  C   UNL     1       6.675  -7.278   9.386  0.00  0.00    +0.007 A 
ATOM     23  C   UNL     1       7.140  -8.439   9.975  0.00  0.00    +0.000 A 
ATOM     24  C   UNL     1       8.340  -8.433  10.662  0.00  0.00    +0.000 A 
ATOM     25  C   UNL     1       9.075  -7.267  10.759  0.00  0.00    +0.000 A 
ATOM     26  C   UNL     1       8.613  -6.107  10.166  0.00  0.00    +0.007 A 
ENDBRANCH  20  21
ENDBRANCH  19  20
ENDBRANCH  16  19
ENDBRANCH   6  13
BRANCH   1  27
ATOM     27  C   UNL     1       3.711  -0.707  -0.038  0.00  0.00    +0.180 C 
BRANCH  27  31
ATOM     28  C   UNL     1      -0.017   1.378   0.010  0.00  0.00    +0.000 A 
ATOM     29  C   UNL     1       1.171   2.086   0.002  0.00  0.00    +0.000 A 
ATOM     30  C   UNL     1       2.377   1.411  -0.013  0.00  0.00    +0.005 A 
ATOM     31  C   UNL     1       2.396   0.029  -0.020  0.00  0.00    -0.026 A 
ATOM     32  C   UNL     1       1.208  -0.679  -0.012  0.00  0.00    +0.005 A 
ATOM     33  C   UNL     1       0.002  -0.004   0.002  0.00  0.00    +0.000 A 
ENDBRANCH  27  31
ENDBRANCH   1  27
TORSDOF 6
