REMARK  Name = ZINC39636405
REMARK  8 active torsions:
REMARK  status: ('A' for Active; 'I' for Inactive)
REMARK    1  A    between atoms: C_1  and  O_2
REMARK    2  A    between atoms: O_2  and  C_3
REMARK    3  A    between atoms: C_8  and  C_9
REMARK    4  A    between atoms: C_9  and  C_10
REMARK    5  A    between atoms: C_10  and  N_11
REMARK    6  A    between atoms: C_12  and  C_14
REMARK    7  A    between atoms: C_25  and  C_27
REMARK    8  A    between atoms: C_30  and  C_32
REMARK                            x       y       z     vdW  Elec       q    Type
REMARK                         _______ _______ _______ _____ _____    ______ ____
ROOT
ATOM      1  C   UNL     1      -3.958  -4.971   1.815  0.00  0.00    +0.100 C 
ATOM      2  C   UNL     1      -3.419  -6.417   1.751  0.00  0.00    +0.121 C 
ATOM      3  N   UNL     1      -4.581  -7.266   2.104  0.00  0.00    -0.294 N 
ATOM      4  C   UNL     1      -5.731  -6.616   1.431  0.00  0.00    +0.115 C 
ATOM      5  C   UNL     1      -5.476  -5.105   1.604  0.00  0.00    -0.004 C 
ATOM      6  C   UNL     1      -5.903  -4.351   0.349  0.00  0.00    -0.010 C 
ATOM      7  C   UNL     1      -7.423  -4.450   0.192  0.00  0.00    -0.082 C 
ATOM      8  N   UNL     1      -8.078  -3.881   1.376  0.00  0.00    +0.379 N 
ATOM      9  C   UNL     1      -7.734  -4.669   2.566  0.00  0.00    -0.082 C 
ATOM     10  C   UNL     1      -6.228  -4.579   2.823  0.00  0.00    -0.010 C 
ATOM     11  C   UNL     1      -4.591  -8.379   2.865  0.00  0.00    +0.282 C 
ATOM     12  O   UNL     1      -5.636  -8.971   3.064  0.00  0.00    -0.267 OA
ATOM     13  H   UNL     1      -7.768  -2.929   1.505  0.00  0.00    -0.086 HD
ATOM     14  H   UNL     1      -9.078  -3.891   1.244  0.00  0.00    -0.086 HD
ENDROOT
BRANCH  11  15
ATOM     15  C   UNL     1      -3.344  -8.875   3.452  0.00  0.00    +0.190 A 
ATOM     16  C   UNL     1      -3.212  -9.997   4.241  0.00  0.00    +0.055 A 
ATOM     17  C   UNL     1      -1.859 -10.096   4.579  0.00  0.00    +0.051 A 
ATOM     18  C   UNL     1      -1.220  -9.042   3.990  0.00  0.00    +0.139 A 
ATOM     19  O   UNL     1      -2.123  -8.316   3.310  0.00  0.00    -0.450 OA
BRANCH  18  20
ATOM     20  C   UNL     1       0.225  -8.751   4.082  0.00  0.00    +0.052 A 
ATOM     21  C   UNL     1       0.860  -8.733   5.325  0.00  0.00    +0.014 A 
ATOM     22  C   UNL     1       2.209  -8.460   5.404  0.00  0.00    +0.001 A 
ATOM     23  C   UNL     1       2.936  -8.205   4.254  0.00  0.00    +0.003 A 
ATOM     24  C   UNL     1       2.316  -8.220   3.018  0.00  0.00    +0.039 A 
ATOM     25  C   UNL     1       0.965  -8.498   2.923  0.00  0.00    +0.134 A 
ATOM     26  F   UNL     1       0.361  -8.518   1.714  0.00  0.00    -0.205 F 
ENDBRANCH  18  20
ENDBRANCH  11  15
BRANCH   1  28
ATOM     27  N   UNL     1      -3.193  -2.806   0.894  0.00  0.00    -0.315 N 
ATOM     28  C   UNL     1      -3.348  -4.134   0.721  0.00  0.00    +0.218 C 
ATOM     29  O   UNL     1      -2.997  -4.655  -0.316  0.00  0.00    -0.275 OA
ATOM     30  H   UNL     1      -3.475  -2.390   1.724  0.00  0.00    +0.149 HD
BRANCH  27  31
ATOM     31  C   UNL     1      -2.600  -1.993  -0.170  0.00  0.00    +0.109 C 
BRANCH  31  32
ATOM     32  C   UNL     1      -2.540  -0.531   0.279  0.00  0.00    +0.057 C 
BRANCH  32  38
ATOM     33  C   UNL     1      -2.725   0.793  -1.842  0.00  0.00    +0.123 A 
ATOM     34  C   UNL     1      -2.162   1.568  -2.845  0.00  0.00    +0.046 A 
ATOM     35  C   UNL     1      -0.809   1.847  -2.823  0.00  0.00    +0.004 A 
ATOM     36  C   UNL     1      -0.017   1.356  -1.801  0.00  0.00    +0.000 A 
ATOM     37  C   UNL     1      -0.577   0.584  -0.800  0.00  0.00    +0.007 A 
ATOM     38  C   UNL     1      -1.930   0.306  -0.815  0.00  0.00    -0.004 A 
BRANCH  33  40
ATOM     39  C   UNL     1      -4.814   1.051  -2.949  0.00  0.00    +0.277 C 
ATOM     40  O   UNL     1      -4.056   0.517  -1.861  0.00  0.00    -0.495 OA
ENDBRANCH  33  40
ENDBRANCH  32  38
ENDBRANCH  31  32
ENDBRANCH  27  31
ENDBRANCH   1  28
TORSDOF 7
