REMARK  Name = ZINC14898083
REMARK  6 active torsions:
REMARK  status: ('A' for Active; 'I' for Inactive)
REMARK    1  A    between atoms: C_9  and  C_11
REMARK    2  A    between atoms: C_12  and  C_13
REMARK    3  A    between atoms: C_13  and  O_15
REMARK    4  A    between atoms: O_15  and  C_16
REMARK    5  A    between atoms: C_16  and  C_17
REMARK    6  A    between atoms: C_20  and  C_22
REMARK                            x       y       z     vdW  Elec       q    Type
REMARK                         _______ _______ _______ _____ _____    ______ ____
ROOT
ATOM      1  C   UNL     1       5.408  -3.514   1.453  0.00  0.00    +0.332 C 
ATOM      2  O   UNL     1       5.716  -4.178   0.481  0.00  0.00    -0.246 OA
ENDROOT
BRANCH   1   4
ATOM      3  C   UNL     1       6.227  -5.225   2.922  0.00  0.00    +0.017 C 
ATOM      4  C   UNL     1       5.652  -4.012   2.758  0.00  0.00    +0.092 C 
BRANCH   3  13
ATOM      5  C   UNL     1       6.373  -5.481   6.670  0.00  0.00    +0.001 A 
ATOM      6  C   UNL     1       6.949  -6.698   6.875  0.00  0.00    +0.010 A 
ATOM      7  C   UNL     1       7.323  -7.506   5.789  0.00  0.00    +0.001 A 
ATOM      8  C   UNL     1       7.921  -8.766   5.983  0.00  0.00    +0.011 A 
ATOM      9  C   UNL     1       8.259  -9.495   4.879  0.00  0.00    +0.020 A 
ATOM     10  C   UNL     1       8.010  -8.987   3.607  0.00  0.00    +0.111 A 
ATOM     11  N   UNL     1       7.453  -7.811   3.431  0.00  0.00    -0.254 NA
ATOM     12  C   UNL     1       7.100  -7.052   4.467  0.00  0.00    +0.078 A 
ATOM     13  C   UNL     1       6.479  -5.741   4.272  0.00  0.00    +0.001 A 
ATOM     14  C   UNL     1       6.137  -4.991   5.394  0.00  0.00    +0.010 A 
ENDBRANCH   3  13
ENDBRANCH   1   4
BRANCH   1  15
ATOM     15  O   UNL     1       4.835  -2.304   1.289  0.00  0.00    -0.452 OA
BRANCH  15  16
ATOM     16  C   UNL     1       4.619  -1.865  -0.053  0.00  0.00    +0.328 C 
BRANCH  16  17
ATOM     17  C   UNL     1       3.974  -0.502  -0.039  0.00  0.00    +0.234 A 
ATOM     18  N   UNL     1       4.611   0.635  -0.038  0.00  0.00    -0.218 NA
ATOM     19  C   UNL     1       3.715   1.634  -0.030  0.00  0.00    +0.161 A 
ATOM     20  C   UNL     1       2.478   1.074  -0.016  0.00  0.00    +0.155 A 
ATOM     21  O   UNL     1       2.655  -0.266  -0.025  0.00  0.00    -0.436 OA
BRANCH  20  22
ATOM     22  C   UNL     1       1.186   1.791   0.000  0.00  0.00    +0.019 A 
ATOM     23  C   UNL     1      -0.013   1.076   0.008  0.00  0.00    +0.014 A 
ATOM     24  C   UNL     1      -1.216   1.750   0.017  0.00  0.00    +0.039 A 
ATOM     25  C   UNL     1      -1.236   3.136   0.029  0.00  0.00    +0.123 A 
ATOM     26  C   UNL     1      -0.049   3.851   0.022  0.00  0.00    +0.039 A 
ATOM     27  C   UNL     1       1.160   3.187   0.008  0.00  0.00    +0.014 A 
ATOM     28  F   UNL     1      -2.417   3.792   0.043  0.00  0.00    -0.205 F 
ENDBRANCH  20  22
ENDBRANCH  16  17
ENDBRANCH  15  16
ENDBRANCH   1  15
TORSDOF 6
