REMARK  Name = ZINC01718688
REMARK  14 active torsions:
REMARK  status: ('A' for Active; 'I' for Inactive)
REMARK    1  A    between atoms: C_1  and  C_2
REMARK    2  A    between atoms: C_4  and  C_23
REMARK    3  A    between atoms: C_5  and  O_22
REMARK    4  A    between atoms: C_6  and  C_8
REMARK    5  A    between atoms: C_8  and  N_52
REMARK    6  A    between atoms: C_9  and  C_10
REMARK    7  A    between atoms: C_9  and  N_52
REMARK    8  A    between atoms: C_10  and  C_11
REMARK    9  A    between atoms: C_11  and  N_55
REMARK   10  A    between atoms: C_12  and  C_13
REMARK   11  A    between atoms: C_12  and  N_55
REMARK   12  A    between atoms: C_15  and  C_21
REMARK   13  A    between atoms: C_17  and  C_20
REMARK   14  A    between atoms: C_18  and  O_19
REMARK                            x       y       z     vdW  Elec       q    Type
REMARK                         _______ _______ _______ _____ _____    ______ ____
ROOT
ATOM      1  C   UNL     1       5.547   3.821   2.807  0.00  0.00    -0.038 C 
ENDROOT
BRANCH   1   2
ATOM      2  C   UNL     1       5.256   3.373   1.373  0.00  0.00    -0.084 C 
BRANCH   2   3
ATOM      3  N   UNL     1       3.989   2.618   1.351  0.00  0.00    +0.382 N 
ATOM      4  H   UNL     1       4.072   1.798   1.963  0.00  0.00    -0.085 HD
ATOM      5  H   UNL     1       3.229   3.221   1.689  0.00  0.00    -0.085 HD
BRANCH   3   6
ATOM      6  C   UNL     1       3.682   2.172  -0.021  0.00  0.00    -0.043 C 
BRANCH   6  12
ATOM      7  C   UNL     1       1.226  -2.187  -0.022  0.00  0.00    +0.044 C 
ATOM      8  C   UNL     1       1.208  -0.680  -0.014  0.00  0.00    -0.050 A 
ATOM      9  C   UNL     1       0.002  -0.004   0.002  0.00  0.00    +0.010 A 
ATOM     10  C   UNL     1      -0.017   1.377   0.010  0.00  0.00    -0.009 A 
ATOM     11  C   UNL     1       1.176   2.086   0.002  0.00  0.00    +0.121 A 
ATOM     12  C   UNL     1       2.385   1.405  -0.013  0.00  0.00    -0.022 A 
ATOM     13  C   UNL     1       2.398   0.024  -0.021  0.00  0.00    +0.008 A 
ATOM     14  C   UNL     1      -1.331   2.113   0.020  0.00  0.00    +0.047 C 
BRANCH  11  15
ATOM     15  O   UNL     1       1.160   3.445   0.009  0.00  0.00    -0.506 OA
ATOM     16  H   UNL     1       1.164   3.834   0.894  0.00  0.00    +0.292 HD
ENDBRANCH  11  15
ENDBRANCH   6  12
ENDBRANCH   3   6
ENDBRANCH   2   3
ENDBRANCH   1   2
BRANCH   1  17
ATOM     17  C   UNL     1       6.861   4.606   2.838  0.00  0.00    -0.084 C 
BRANCH  17  18
ATOM     18  N   UNL     1       7.134   5.034   4.223  0.00  0.00    +0.382 N 
ATOM     19  H   UNL     1       7.207   4.206   4.826  0.00  0.00    -0.085 HD
ATOM     20  H   UNL     1       6.365   5.630   4.552  0.00  0.00    -0.085 HD
BRANCH  18  21
ATOM     21  C   UNL     1       8.397   5.794   4.284  0.00  0.00    -0.043 C 
BRANCH  21  22
ATOM     22  C   UNL     1       8.650   6.218   5.708  0.00  0.00    -0.022 A 
ATOM     23  C   UNL     1       8.350   7.506   6.109  0.00  0.00    +0.008 A 
ATOM     24  C   UNL     1       8.582   7.895   7.415  0.00  0.00    -0.050 A 
ATOM     25  C   UNL     1       9.114   6.998   8.323  0.00  0.00    +0.010 A 
ATOM     26  C   UNL     1       9.416   5.710   7.926  0.00  0.00    -0.009 A 
ATOM     27  C   UNL     1       9.179   5.315   6.618  0.00  0.00    +0.121 A 
ATOM     28  C   UNL     1       9.997   4.733   8.916  0.00  0.00    +0.047 C 
ATOM     29  C   UNL     1       8.253   9.300   7.851  0.00  0.00    +0.044 C 
BRANCH  27  30
ATOM     30  O   UNL     1       9.469   4.046   6.227  0.00  0.00    -0.506 OA
ATOM     31  H   UNL     1      10.370   3.934   5.892  0.00  0.00    +0.292 HD
ENDBRANCH  27  30
ENDBRANCH  21  22
ENDBRANCH  18  21
ENDBRANCH  17  18
ENDBRANCH   1  17
TORSDOF 10
