REMARK  Name = ZINC35155077
REMARK  10 active torsions:
REMARK  status: ('A' for Active; 'I' for Inactive)
REMARK    1  A    between atoms: C_1  and  O_2
REMARK    2  A    between atoms: O_2  and  C_3
REMARK    3  A    between atoms: C_3  and  C_4
REMARK    4  A    between atoms: C_4  and  N_5
REMARK    5  A    between atoms: N_5  and  C_6
REMARK    6  A    between atoms: C_6  and  C_7
REMARK    7  A    between atoms: N_9  and  C_10
REMARK    8  A    between atoms: C_12  and  C_22
REMARK    9  A    between atoms: N_14  and  C_15
REMARK   10  A    between atoms: C_28  and  C_30
REMARK                            x       y       z     vdW  Elec       q    Type
REMARK                         _______ _______ _______ _____ _____    ______ ____
ROOT
ATOM      1  C   UNL     1       2.412  -4.843  -0.074  0.00  0.00    +0.236 C 
ATOM      2  O   UNL     1       1.305  -5.339  -0.069  0.00  0.00    -0.274 OA
ATOM      3  N   UNL     1       3.505  -5.632  -0.065  0.00  0.00    -0.269 N 
ATOM      4  H   UNL     1       4.390  -5.235  -0.069  0.00  0.00    +0.156 HD
ENDROOT
BRANCH   3   5
ATOM      5  C   UNL     1       3.363  -7.019  -0.051  0.00  0.00    +0.129 A 
ATOM      6  C   UNL     1       2.190  -7.705  -0.051  0.00  0.00    +0.074 A 
ATOM      7  C   UNL     1       2.495  -9.079  -0.035  0.00  0.00    +0.095 A 
ATOM      8  N   UNL     1       3.805  -9.209  -0.026  0.00  0.00    -0.165 NA
ATOM      9  N   UNL     1       4.375  -7.930  -0.041  0.00  0.00    -0.218 N 
BRANCH   9  10
ATOM     10  C   UNL     1       5.746  -7.639  -0.044  0.00  0.00    +0.068 A 
ATOM     11  C   UNL     1       6.220  -6.535  -0.740  0.00  0.00    +0.030 A 
ATOM     12  C   UNL     1       7.572  -6.249  -0.741  0.00  0.00    +0.040 A 
ATOM     13  C   UNL     1       8.453  -7.063  -0.048  0.00  0.00    +0.124 A 
ATOM     14  C   UNL     1       7.981  -8.164   0.647  0.00  0.00    +0.040 A 
ATOM     15  C   UNL     1       6.630  -8.450   0.654  0.00  0.00    +0.030 A 
ATOM     16  F   UNL     1       9.774  -6.782  -0.050  0.00  0.00    -0.205 F 
ENDBRANCH   9  10
BRANCH   7  17
ATOM     17  C   UNL     1       1.510 -10.189  -0.029  0.00  0.00    +0.002 A 
ATOM     18  C   UNL     1       0.144  -9.912  -0.045  0.00  0.00    +0.010 A 
ATOM     19  C   UNL     1      -0.767 -10.948  -0.040  0.00  0.00    +0.001 A 
ATOM     20  C   UNL     1      -0.328 -12.260  -0.018  0.00  0.00    +0.000 A 
ATOM     21  C   UNL     1       1.027 -12.540  -0.002  0.00  0.00    +0.001 A 
ATOM     22  C   UNL     1       1.947 -11.512  -0.012  0.00  0.00    +0.010 A 
ENDBRANCH   7  17
ENDBRANCH   3   5
BRANCH   1  23
ATOM     23  C   UNL     1       2.565  -3.343  -0.089  0.00  0.00    +0.203 C 
BRANCH  23  24
ATOM     24  N   UNL     1       1.241  -2.717  -0.096  0.00  0.00    -0.290 N 
ATOM     25  C   UNL     1       0.694  -2.311  -1.259  0.00  0.00    +0.222 C 
ATOM     26  O   UNL     1      -0.446  -1.897  -1.281  0.00  0.00    -0.275 OA
BRANCH  25  27
ATOM     27  C   UNL     1       1.498  -2.371  -2.532  0.00  0.00    +0.048 C 
ATOM     28  C   UNL     1       2.686  -1.411  -2.430  0.00  0.00    +0.019 C 
ATOM     29  C   UNL     1       3.502  -1.472  -3.723  0.00  0.00    -0.009 C 
ATOM     30  C   UNL     1       2.619  -1.067  -4.904  0.00  0.00    +0.007 C 
ATOM     31  C   UNL     1       1.431  -2.026  -5.005  0.00  0.00    -0.009 C 
ATOM     32  C   UNL     1       0.615  -1.966  -3.713  0.00  0.00    +0.019 C 
ATOM     33  C   UNL     1       1.945  -3.452  -5.218  0.00  0.00    +0.007 C 
ATOM     34  C   UNL     1       2.828  -3.857  -4.036  0.00  0.00    -0.009 C 
ATOM     35  C   UNL     1       4.016  -2.898  -3.935  0.00  0.00    +0.007 C 
ATOM     36  C   UNL     1       2.011  -3.796  -2.744  0.00  0.00    +0.019 C 
ENDBRANCH  25  27
BRANCH  24  37
ATOM     37  C   UNL     1       0.511  -2.533   1.161  0.00  0.00    +0.136 C 
BRANCH  37  38
ATOM     38  C   UNL     1       0.779  -1.128   1.705  0.00  0.00    +0.178 C 
BRANCH  38  40
ATOM     39  C   UNL     1       0.502   1.196   1.187  0.00  0.00    +0.194 C 
ATOM     40  O   UNL     1       0.300  -0.157   0.773  0.00  0.00    -0.381 OA
ENDBRANCH  38  40
ENDBRANCH  37  38
ENDBRANCH  24  37
ENDBRANCH  23  24
ENDBRANCH   1  23
TORSDOF 9
