REMARK  Name = ZINC15996126
REMARK  9 active torsions:
REMARK  status: ('A' for Active; 'I' for Inactive)
REMARK    1  A    between atoms: C_1  and  C_2
REMARK    2  A    between atoms: C_16  and  C_30
REMARK    3  A    between atoms: C_18  and  C_27
REMARK    4  A    between atoms: C_27  and  C_29
REMARK    5  A    between atoms: C_30  and  C_32
REMARK    6  A    between atoms: C_34  and  O_40
REMARK    7  A    between atoms: C_37  and  O_38
REMARK    8  A    between atoms: O_38  and  C_39
REMARK    9  A    between atoms: O_40  and  C_41
REMARK                            x       y       z     vdW  Elec       q    Type
REMARK                         _______ _______ _______ _____ _____    ______ ____
ROOT
ATOM      1  C   UNL     1      -2.966   5.992  -4.404  0.00  0.00    +0.044 C 
ATOM      2  C   UNL     1      -3.300   5.129  -3.215  0.00  0.00    -0.044 C 
ATOM      3  C   UNL     1      -2.436   4.981  -2.193  0.00  0.00    +0.000 C 
ATOM      4  C   UNL     1      -2.886   4.099  -1.070  0.00  0.00    +0.118 C 
ATOM      5  C   UNL     1      -2.181   4.312   0.259  0.00  0.00    +0.108 C 
ATOM      6  C   UNL     1      -1.006   3.412   0.441  0.00  0.00    -0.008 A 
ATOM      7  C   UNL     1      -0.887   2.039   0.419  0.00  0.00    +0.006 A 
ATOM      8  C   UNL     1       0.382   1.511   0.632  0.00  0.00    +0.000 A 
ATOM      9  C   UNL     1       1.473   2.329   0.845  0.00  0.00    +0.002 A 
ATOM     10  C   UNL     1       1.363   3.710   0.862  0.00  0.00    +0.023 A 
ATOM     11  C   UNL     1       0.094   4.253   0.654  0.00  0.00    +0.038 A 
ATOM     12  N   UNL     1      -0.300   5.580   0.618  0.00  0.00    -0.284 N 
ATOM     13  C   UNL     1      -1.626   5.708   0.389  0.00  0.00    +0.231 C 
ATOM     14  O   UNL     1      -2.248   6.745   0.303  0.00  0.00    -0.274 OA
ATOM     15  C   UNL     1      -3.262   4.055   1.330  0.00  0.00    +0.109 C 
ATOM     16  C   UNL     1      -4.554   3.757   0.519  0.00  0.00    +0.152 C 
ATOM     17  N   UNL     1      -4.310   4.417  -0.770  0.00  0.00    -0.311 N 
ATOM     18  C   UNL     1      -5.088   4.063  -1.848  0.00  0.00    +0.038 A 
ATOM     19  C   UNL     1      -4.593   4.409  -3.125  0.00  0.00    -0.001 A 
ATOM     20  C   UNL     1      -5.320   4.074  -4.259  0.00  0.00    +0.010 A 
ATOM     21  C   UNL     1      -6.524   3.409  -4.129  0.00  0.00    +0.001 A 
ATOM     22  C   UNL     1      -7.008   3.075  -2.876  0.00  0.00    +0.002 A 
ATOM     23  C   UNL     1      -6.294   3.401  -1.737  0.00  0.00    +0.024 A 
ATOM     24  H   UNL     1       0.304   6.328   0.742  0.00  0.00    +0.155 HD
ENDROOT
BRANCH  16  25
ATOM     25  C   UNL     1      -5.761   4.351   1.199  0.00  0.00    +0.151 C 
ATOM     26  O   UNL     1      -6.163   5.442   0.871  0.00  0.00    -0.296 OA
ATOM     27  C   UNL     1      -6.465   3.585   2.288  0.00  0.00    +0.088 C 
ENDBRANCH  16  25
BRANCH  15  28
ATOM     28  C   UNL     1      -2.888   2.867   2.179  0.00  0.00    +0.173 C 
ATOM     29  O   UNL     1      -3.299   1.762   1.891  0.00  0.00    -0.292 OA
BRANCH  28  30
ATOM     30  C   UNL     1      -2.027   3.046   3.354  0.00  0.00    +0.063 A 
ATOM     31  C   UNL     1      -1.642   4.331   3.756  0.00  0.00    +0.060 A 
ATOM     32  C   UNL     1      -0.832   4.491   4.863  0.00  0.00    +0.121 A 
ATOM     33  C   UNL     1      -0.400   3.381   5.580  0.00  0.00    +0.049 A 
ATOM     34  C   UNL     1      -0.774   2.110   5.193  0.00  0.00    +0.050 A 
ATOM     35  C   UNL     1      -1.591   1.931   4.087  0.00  0.00    +0.131 A 
BRANCH  35  36
ATOM     36  O   UNL     1      -1.962   0.681   3.710  0.00  0.00    -0.494 OA
ATOM     37  C   UNL     1      -1.480  -0.406   4.503  0.00  0.00    +0.277 C 
ENDBRANCH  35  36
BRANCH  32  38
ATOM     38  O   UNL     1      -0.457   5.738   5.254  0.00  0.00    -0.495 OA
ATOM     39  C   UNL     1       0.381   5.832   6.407  0.00  0.00    +0.277 C 
ENDBRANCH  32  38
ENDBRANCH  28  30
ENDBRANCH  15  28
TORSDOF 5
