REMARK  Name = ZINC16284099
REMARK  7 active torsions:
REMARK  status: ('A' for Active; 'I' for Inactive)
REMARK    1  A    between atoms: C_1  and  C_2
REMARK    2  A    between atoms: C_11  and  C_14
REMARK    3  A    between atoms: C_11  and  C_23
REMARK    4  A    between atoms: C_14  and  N_15
REMARK    5  A    between atoms: C_19  and  C_22
REMARK    6  A    between atoms: C_23  and  N_24
REMARK    7  A    between atoms: C_28  and  C_31
REMARK                            x       y       z     vdW  Elec       q    Type
REMARK                         _______ _______ _______ _____ _____    ______ ____
ROOT
ATOM      1  C   UNL     1       0.720   1.262  -0.571  0.00  0.00    +0.044 C 
ATOM      2  C   UNL     1       0.413  -0.207  -0.437  0.00  0.00    -0.049 A 
ATOM      3  C   UNL     1       0.502  -1.030  -1.540  0.00  0.00    +0.018 A 
ATOM      4  C   UNL     1       0.219  -2.391  -1.409  0.00  0.00    +0.061 A 
ATOM      5  C   UNL     1      -0.151  -2.920  -0.162  0.00  0.00    +0.144 A 
ATOM      6  C   UNL     1      -0.237  -2.072   0.934  0.00  0.00    +0.056 A 
ATOM      7  C   UNL     1       0.049  -0.728   0.794  0.00  0.00    +0.021 A 
ATOM      8  I   UNL     1      -0.796  -2.833   2.805  0.00  0.00    -0.040 I 
ATOM      9  O   UNL     1      -0.414  -4.240  -0.019  0.00  0.00    -0.489 OA
ATOM     10  C   UNL     1      -0.790  -4.993  -1.172  0.00  0.00    +0.243 C 
ATOM     11  C   UNL     1       0.252  -4.782  -2.280  0.00  0.00    +0.066 C 
ATOM     12  C   UNL     1       0.300  -3.292  -2.572  0.00  0.00    +0.175 C 
ATOM     13  O   UNL     1       0.399  -2.867  -3.703  0.00  0.00    -0.291 OA
ENDROOT
BRANCH  11  14
ATOM     14  C   UNL     1       1.624  -5.264  -1.804  0.00  0.00    -0.059 C 
BRANCH  14  15
ATOM     15  N   UNL     1       2.582  -5.188  -2.915  0.00  0.00    +0.381 N 
ATOM     16  C   UNL     1       3.062  -3.807  -3.051  0.00  0.00    -0.079 C 
ATOM     17  C   UNL     1       3.998  -3.706  -4.257  0.00  0.00    -0.018 C 
ATOM     18  C   UNL     1       5.191  -4.645  -4.052  0.00  0.00    -0.001 C 
ATOM     19  C   UNL     1       4.674  -6.070  -3.836  0.00  0.00    -0.031 C 
ATOM     20  C   UNL     1       3.713  -6.084  -2.646  0.00  0.00    -0.076 C 
ATOM     21  C   UNL     1       5.853  -7.004  -3.553  0.00  0.00    +0.005 C 
ATOM     22  H   UNL     1       2.127  -5.469  -3.770  0.00  0.00    -0.082 HD
ENDBRANCH  14  15
ENDBRANCH  11  14
BRANCH  11  23
ATOM     23  C   UNL     1      -0.163  -5.547  -3.538  0.00  0.00    +0.100 C 
BRANCH  23  24
ATOM     24  N   UNL     1      -1.619  -5.451  -3.712  0.00  0.00    -0.301 NA
ATOM     25  C   UNL     1      -2.105  -6.473  -4.647  0.00  0.00    +0.084 C 
ATOM     26  C   UNL     1      -3.635  -6.438  -4.692  0.00  0.00    +0.016 C 
ATOM     27  C   UNL     1      -4.096  -5.048  -5.140  0.00  0.00    +0.006 C 
ATOM     28  C   UNL     1      -3.536  -3.998  -4.176  0.00  0.00    +0.000 C 
ATOM     29  C   UNL     1      -2.009  -4.104  -4.146  0.00  0.00    +0.087 C 
ATOM     30  C   UNL     1      -3.943  -2.602  -4.649  0.00  0.00    +0.009 C 
ENDBRANCH  23  24
ENDBRANCH  11  23
TORSDOF 4
