REMARK  Name = ZINC19015023
REMARK  5 active torsions:
REMARK  status: ('A' for Active; 'I' for Inactive)
REMARK    1  A    between atoms: C_1  and  C_2
REMARK    2  A    between atoms: C_2  and  C_3
REMARK    3  A    between atoms: C_2  and  C_4
REMARK    4  A    between atoms: C_2  and  C_5
REMARK    5  A    between atoms: C_22  and  N_24
REMARK                            x       y       z     vdW  Elec       q    Type
REMARK                         _______ _______ _______ _____ _____    ______ ____
ROOT
ATOM      1  C   UNL     1       3.412  -2.291  -0.407  0.00  0.00    -0.001 C 
ATOM      2  C   UNL     1       2.252  -2.917   0.381  0.00  0.00    +0.010 C 
ATOM      3  C   UNL     1       0.969  -2.212  -0.053  0.00  0.00    +0.056 C 
ATOM      4  C   UNL     1       1.126  -0.713   0.023  0.00  0.00    +0.047 A 
ATOM      5  C   UNL     1       2.352  -0.091   0.121  0.00  0.00    -0.017 A 
ATOM      6  C   UNL     1       2.403   1.302   0.170  0.00  0.00    +0.008 A 
ATOM      7  C   UNL     1       3.633   2.087   0.378  0.00  0.00    +0.026 A 
ATOM      8  C   UNL     1       4.820   1.516   0.830  0.00  0.00    +0.012 A 
ATOM      9  C   UNL     1       5.960   2.282   0.970  0.00  0.00    +0.001 A 
ATOM     10  C   UNL     1       5.931   3.636   0.687  0.00  0.00    +0.004 A 
ATOM     11  C   UNL     1       4.753   4.231   0.291  0.00  0.00    +0.047 A 
ATOM     12  C   UNL     1       3.594   3.475   0.160  0.00  0.00    +0.140 A 
ATOM     13  O   UNL     1       2.445   4.101  -0.174  0.00  0.00    -0.422 OA
ATOM     14  C   UNL     1       1.260   3.468  -0.215  0.00  0.00    +0.348 A 
ATOM     15  O   UNL     1       0.258   4.117  -0.448  0.00  0.00    -0.244 OA
ATOM     16  C   UNL     1       1.192   2.023   0.002  0.00  0.00    +0.107 A 
ATOM     17  C   UNL     1      -0.016   1.317   0.009  0.00  0.00    +0.131 A 
ATOM     18  N   UNL     1       0.002  -0.004   0.002  0.00  0.00    -0.236 NA
ATOM     19  C   UNL     1       3.633  -0.882   0.145  0.00  0.00    +0.041 C 
ENDROOT
BRANCH   1  21
ATOM     20  C   UNL     1       4.433  -4.550  -0.715  0.00  0.00    +0.011 C 
ATOM     21  C   UNL     1       4.678  -3.127  -0.211  0.00  0.00    -0.035 C 
ATOM     22  C   UNL     1       5.830  -2.498  -0.998  0.00  0.00    +0.011 C 
ATOM     23  C   UNL     1       5.038  -3.167   1.276  0.00  0.00    +0.011 C 
ENDBRANCH   1  21
BRANCH  17  24
ATOM     24  N   UNL     1      -1.233   1.974   0.036  0.00  0.00    -0.342 N 
ATOM     25  H   UNL     1      -2.058   1.465   0.050  0.00  0.00    +0.144 HD
ATOM     26  H   UNL     1      -1.261   2.943   0.042  0.00  0.00    +0.144 HD
ENDBRANCH  17  24
TORSDOF 2
