REMARK  Name = ZINC08817644
REMARK  15 active torsions:
REMARK  status: ('A' for Active; 'I' for Inactive)
REMARK    1  A    between atoms: C_1  and  C_2
REMARK    2  A    between atoms: C_2  and  C_3
REMARK    3  A    between atoms: C_2  and  C_4
REMARK    4  A    between atoms: C_10  and  C_11
REMARK    5  A    between atoms: C_14  and  O_19
REMARK    6  A    between atoms: C_15  and  O_17
REMARK    7  A    between atoms: O_17  and  C_18
REMARK    8  A    between atoms: O_19  and  C_20
REMARK    9  A    between atoms: C_20  and  C_21
REMARK   10  A    between atoms: C_21  and  O_22
REMARK   11  A    between atoms: O_22  and  C_23
REMARK   12  A    between atoms: C_26  and  C_29
REMARK   13  A    between atoms: C_29  and  C_30
REMARK   14  A    between atoms: C_29  and  C_31
REMARK   15  A    between atoms: C_29  and  C_32
REMARK                            x       y       z     vdW  Elec       q    Type
REMARK                         _______ _______ _______ _____ _____    ______ ____
ROOT
ATOM      1  C   UNL     1       5.304  -4.244   5.198  0.00  0.00    -0.021 A 
ATOM      2  C   UNL     1       4.421  -4.208   6.287  0.00  0.00    +0.012 A 
ATOM      3  C   UNL     1       4.655  -4.998   7.389  0.00  0.00    +0.050 A 
ATOM      4  C   UNL     1       5.766  -5.832   7.427  0.00  0.00    +0.162 A 
ATOM      5  C   UNL     1       6.651  -5.874   6.349  0.00  0.00    +0.162 A 
ATOM      6  C   UNL     1       6.421  -5.090   5.237  0.00  0.00    +0.057 A 
ENDROOT
BRANCH   1  13
ATOM      7  C   UNL     1       1.183   0.871   2.728  0.00  0.00    +0.102 C 
ATOM      8  N   UNL     1       2.116   0.035   2.375  0.00  0.00    -0.169 NA
ATOM      9  N   UNL     1       2.997  -0.485   3.299  0.00  0.00    -0.152 N 
ATOM     10  C   UNL     1       4.095  -1.324   3.011  0.00  0.00    +0.152 C 
ATOM     11  N   UNL     1       4.667  -1.381   1.838  0.00  0.00    -0.283 NA
ATOM     12  C   UNL     1       4.537  -2.139   4.178  0.00  0.00    +0.081 C 
ATOM     13  C   UNL     1       5.058  -3.405   4.023  0.00  0.00    +0.024 C 
ATOM     14  C   UNL     1       4.387  -1.514   5.516  0.00  0.00    +0.273 C 
ATOM     15  O   UNL     1       5.093  -1.854   6.451  0.00  0.00    -0.268 OA
ATOM     16  N   UNL     1       3.448  -0.559   5.667  0.00  0.00    -0.152 NA
ATOM     17  C   UNL     1       2.797  -0.128   4.615  0.00  0.00    +0.181 C 
ATOM     18  S   UNL     1       1.454   1.023   4.488  0.00  0.00    -0.038 S 
ATOM     19  H   UNL     1       4.339  -0.828   1.111  0.00  0.00    +0.188 HD
BRANCH   7  21
ATOM     20  C   UNL     1       0.646   2.926   1.448  0.00  0.00    +0.014 C 
ATOM     21  C   UNL     1       0.142   1.545   1.870  0.00  0.00    +0.040 C 
ATOM     22  C   UNL     1      -0.120   0.695   0.625  0.00  0.00    +0.014 C 
ENDBRANCH   7  21
ENDBRANCH   1  13
BRANCH   5  23
ATOM     23  O   UNL     1       7.736  -6.692   6.392  0.00  0.00    -0.491 OA
ATOM     24  C   UNL     1       8.600  -6.684   5.253  0.00  0.00    +0.277 C 
ENDBRANCH   5  23
BRANCH   4  25
ATOM     25  O   UNL     1       5.992  -6.608   8.518  0.00  0.00    -0.485 OA
BRANCH  25  26
ATOM     26  C   UNL     1       5.048  -6.516   9.586  0.00  0.00    +0.270 C 
BRANCH  26  27
ATOM     27  C   UNL     1       5.466  -7.456  10.719  0.00  0.00    +0.270 C 
BRANCH  27  28
ATOM     28  O   UNL     1       6.707  -7.013  11.272  0.00  0.00    -0.489 OA
BRANCH  28  29
ATOM     29  C   UNL     1       7.222  -7.743  12.296  0.00  0.00    +0.121 A 
ATOM     30  C   UNL     1       6.549  -8.867  12.755  0.00  0.00    +0.046 A 
ATOM     31  C   UNL     1       7.075  -9.608  13.795  0.00  0.00    +0.008 A 
ATOM     32  C   UNL     1       8.270  -9.231  14.380  0.00  0.00    -0.042 A 
ATOM     33  C   UNL     1       8.942  -8.111  13.924  0.00  0.00    +0.008 A 
ATOM     34  C   UNL     1       8.423  -7.370  12.880  0.00  0.00    +0.046 A 
BRANCH  32  35
ATOM     35  C   UNL     1       8.841 -10.041  15.515  0.00  0.00    -0.013 C 
ATOM     36  C   UNL     1       9.096 -11.473  15.041  0.00  0.00    +0.015 C 
ATOM     37  C   UNL     1      10.158  -9.414  15.976  0.00  0.00    +0.015 C 
ATOM     38  C   UNL     1       7.848 -10.057  16.679  0.00  0.00    +0.015 C 
ENDBRANCH  32  35
ENDBRANCH  28  29
ENDBRANCH  27  28
ENDBRANCH  26  27
ENDBRANCH  25  26
ENDBRANCH   4  25
TORSDOF 9
