REMARK  Name = ZINC09815780
REMARK  9 active torsions:
REMARK  status: ('A' for Active; 'I' for Inactive)
REMARK    1  A    between atoms: C_1  and  C_2
REMARK    2  A    between atoms: N_8  and  S_9
REMARK    3  A    between atoms: S_9  and  C_12
REMARK    4  A    between atoms: C_15  and  C_18
REMARK    5  A    between atoms: C_24  and  C_26
REMARK    6  A    between atoms: C_29  and  S_32
REMARK    7  A    between atoms: S_32  and  C_33
REMARK    8  A    between atoms: C_33  and  C_34
REMARK    9  A    between atoms: C_33  and  C_35
REMARK                            x       y       z     vdW  Elec       q    Type
REMARK                         _______ _______ _______ _____ _____    ______ ____
ROOT
ATOM      1  C   UNL     1      -7.884  -3.341   0.297  0.00  0.00    +0.252 C 
ATOM      2  O   UNL     1      -8.191  -3.790   1.384  0.00  0.00    -0.270 OA
ATOM      3  N   UNL     1      -8.265  -3.979  -0.828  0.00  0.00    -0.234 N 
ATOM      4  C   UNL     1      -9.007  -5.146  -0.745  0.00  0.00    +0.315 A 
ATOM      5  N   UNL     1      -9.399  -5.738   0.357  0.00  0.00    -0.092 NA
ATOM      6  N   UNL     1     -10.071  -6.795   0.059  0.00  0.00    -0.106 NA
ATOM      7  C   UNL     1     -10.125  -6.923  -1.245  0.00  0.00    +0.250 A 
ATOM      8  O   UNL     1      -9.453  -5.881  -1.781  0.00  0.00    -0.405 OA
ATOM      9  H   UNL     1      -8.020  -3.621  -1.695  0.00  0.00    +0.160 HD
ENDROOT
BRANCH   1  13
ATOM     10  C   UNL     1      -5.609   0.236   0.042  0.00  0.00    +0.106 A 
ATOM     11  C   UNL     1      -6.003  -0.413  -1.114  0.00  0.00    +0.029 A 
ATOM     12  C   UNL     1      -6.738  -1.578  -1.039  0.00  0.00    +0.015 A 
ATOM     13  C   UNL     1      -7.092  -2.097   0.208  0.00  0.00    +0.037 A 
ATOM     14  C   UNL     1      -6.695  -1.434   1.371  0.00  0.00    +0.015 A 
ATOM     15  C   UNL     1      -5.956  -0.273   1.281  0.00  0.00    +0.029 A 
BRANCH  10  16
ATOM     16  S   UNL     1      -4.666   1.721  -0.063  0.00  0.00    +0.061 S 
ATOM     17  O   UNL     1      -4.892   2.432   1.146  0.00  0.00    -0.153 OA
ATOM     18  O   UNL     1      -4.935   2.283  -1.340  0.00  0.00    -0.153 OA
BRANCH  16  25
ATOM     19  C   UNL     1      -3.264   1.400   2.375  0.00  0.00    +0.026 C 
ATOM     20  C   UNL     1      -2.358   1.036   1.197  0.00  0.00    +0.077 C 
ATOM     21  C   UNL     1      -1.095   1.901   1.233  0.00  0.00    +0.020 C 
ATOM     22  C   UNL     1      -0.261   1.632  -0.021  0.00  0.00    +0.003 C 
ATOM     23  C   UNL     1      -1.069   2.009  -1.265  0.00  0.00    +0.017 C 
ATOM     24  C   UNL     1      -2.332   1.144  -1.329  0.00  0.00    +0.110 C 
ATOM     25  N   UNL     1      -3.067   1.286  -0.065  0.00  0.00    -0.174 NA
ENDBRANCH  16  25
ENDBRANCH  10  16
ENDBRANCH   1  13
BRANCH   7  26
ATOM     26  C   UNL     1     -10.797  -8.007  -1.990  0.00  0.00    +0.039 A 
ATOM     27  C   UNL     1     -10.778  -8.012  -3.387  0.00  0.00    +0.014 A 
ATOM     28  C   UNL     1     -11.401  -9.027  -4.079  0.00  0.00    +0.015 A 
ATOM     29  C   UNL     1     -12.059 -10.041  -3.388  0.00  0.00    +0.008 A 
ATOM     30  C   UNL     1     -12.084 -10.035  -1.997  0.00  0.00    +0.015 A 
ATOM     31  C   UNL     1     -11.458  -9.026  -1.299  0.00  0.00    +0.014 A 
BRANCH  29  32
ATOM     32  S   UNL     1     -12.861 -11.333  -4.277  0.00  0.00    -0.122 S 
BRANCH  32  33
ATOM     33  C   UNL     1     -12.401 -11.029  -6.005  0.00  0.00    +0.045 C 
ATOM     34  C   UNL     1     -10.916 -11.341  -6.200  0.00  0.00    +0.019 C 
ATOM     35  C   UNL     1     -13.235 -11.927  -6.921  0.00  0.00    +0.019 C 
ENDBRANCH  32  33
ENDBRANCH  29  32
ENDBRANCH   7  26
TORSDOF 6
