REMARK  Name = ZINC11840658
REMARK  12 active torsions:
REMARK  status: ('A' for Active; 'I' for Inactive)
REMARK    1  A    between atoms: C_1  and  C_2
REMARK    2  A    between atoms: C_2  and  N_3
REMARK    3  A    between atoms: N_3  and  C_4
REMARK    4  A    between atoms: C_4  and  C_6
REMARK    5  A    between atoms: C_4  and  C_13
REMARK    6  A    between atoms: C_6  and  C_7
REMARK    7  A    between atoms: C_18  and  C_19
REMARK    8  A    between atoms: C_18  and  N_77
REMARK    9  A    between atoms: C_24  and  O_25
REMARK   10  A    between atoms: O_25  and  C_26
REMARK   11  A    between atoms: C_26  and  C_27
REMARK   12  A    between atoms: C_28  and  C_30
REMARK                            x       y       z     vdW  Elec       q    Type
REMARK                         _______ _______ _______ _____ _____    ______ ____
ROOT
ATOM      1  C   UNL     1      -3.748   2.582  -4.593  0.00  0.00    +0.083 C 
ENDROOT
BRANCH   1   2
ATOM      2  C   UNL     1      -3.591   2.089  -3.153  0.00  0.00    +0.006 C 
ATOM      3  C   UNL     1      -4.426   0.822  -2.951  0.00  0.00    -0.013 C 
ATOM      4  C   UNL     1      -4.216   0.300  -1.528  0.00  0.00    -0.078 C 
ATOM      5  C   UNL     1      -1.976   1.221  -1.458  0.00  0.00    -0.078 C 
ATOM      6  C   UNL     1      -2.118   1.770  -2.879  0.00  0.00    -0.013 C 
ATOM      7  N   UNL     1      -2.784  -0.011  -1.337  0.00  0.00    +0.382 N 
ATOM      8  H   UNL     1      -2.488  -0.676  -2.061  0.00  0.00    -0.081 HD
BRANCH   7   9
ATOM      9  C   UNL     1      -2.574  -0.624  -0.009  0.00  0.00    -0.039 C 
BRANCH   9  10
ATOM     10  C   UNL     1      -1.156  -1.129   0.074  0.00  0.00    -0.022 A 
ATOM     11  C   UNL     1      -0.885  -2.466  -0.141  0.00  0.00    +0.005 A 
ATOM     12  C   UNL     1       0.415  -2.930  -0.066  0.00  0.00    +0.000 A 
ATOM     13  C   UNL     1       1.448  -2.057   0.224  0.00  0.00    +0.004 A 
ATOM     14  C   UNL     1       1.183  -0.717   0.433  0.00  0.00    +0.046 A 
ATOM     15  C   UNL     1      -0.122  -0.251   0.364  0.00  0.00    +0.122 A 
BRANCH  15  16
ATOM     16  O   UNL     1      -0.387   1.066   0.576  0.00  0.00    -0.492 OA
BRANCH  16  17
ATOM     17  C   UNL     1       0.727   1.912   0.870  0.00  0.00    +0.225 C 
ATOM     18  C   UNL     1       0.237   3.346   1.075  0.00  0.00    +0.048 C 
ENDBRANCH  16  17
ENDBRANCH  15  16
ENDBRANCH   9  10
ENDBRANCH   7   9
ENDBRANCH   1   2
BRANCH   1  19
ATOM     19  N   UNL     1      -3.052   3.861  -4.750  0.00  0.00    -0.298 N 
ATOM     20  C   UNL     1      -1.705   3.900  -4.752  0.00  0.00    +0.219 C 
ATOM     21  O   UNL     1      -1.069   2.869  -4.707  0.00  0.00    -0.275 OA
BRANCH  20  22
ATOM     22  C   UNL     1      -0.990   5.225  -4.811  0.00  0.00    +0.079 C 
ATOM     23  C   UNL     1      -0.907   5.699  -6.266  0.00  0.00    +0.041 C 
ATOM     24  C   UNL     1      -0.111   7.005  -6.325  0.00  0.00    +0.160 C 
ATOM     25  O   UNL     1       1.188   6.795  -5.765  0.00  0.00    -0.380 OA
ATOM     26  C   UNL     1       1.174   6.397  -4.393  0.00  0.00    +0.160 C 
ATOM     27  C   UNL     1       0.429   5.067  -4.256  0.00  0.00    +0.041 C 
ENDBRANCH  20  22
BRANCH  19  29
ATOM     28  C   UNL     1      -4.221   5.627  -3.526  0.00  0.00    +0.024 C 
ATOM     29  C   UNL     1      -3.821   5.099  -4.905  0.00  0.00    +0.105 C 
ENDBRANCH  19  29
ENDBRANCH   1  19
BRANCH   1  30
ATOM     30  C   UNL     1      -3.146   1.553  -5.552  0.00  0.00    +0.058 C 
BRANCH  30  31
ATOM     31  C   UNL     1      -3.457   1.949  -6.973  0.00  0.00    -0.046 A 
ATOM     32  C   UNL     1      -4.692   1.652  -7.519  0.00  0.00    +0.004 A 
ATOM     33  C   UNL     1      -4.979   2.020  -8.820  0.00  0.00    +0.000 A 
ATOM     34  C   UNL     1      -4.027   2.675  -9.579  0.00  0.00    +0.000 A 
ATOM     35  C   UNL     1      -2.791   2.967  -9.035  0.00  0.00    +0.000 A 
ATOM     36  C   UNL     1      -2.506   2.604  -7.732  0.00  0.00    +0.004 A 
ENDBRANCH  30  31
ENDBRANCH   1  30
TORSDOF 10
