REMARK  Name = ZINC38970854
REMARK  9 active torsions:
REMARK  status: ('A' for Active; 'I' for Inactive)
REMARK    1  A    between atoms: C_1  and  C_2
REMARK    2  A    between atoms: C_2  and  O_3
REMARK    3  A    between atoms: O_3  and  C_4
REMARK    4  A    between atoms: C_9  and  N_10
REMARK    5  A    between atoms: N_10  and  C_11
REMARK    6  A    between atoms: N_14  and  S_15
REMARK    7  A    between atoms: S_15  and  C_18
REMARK    8  A    between atoms: C_21  and  C_25
REMARK    9  A    between atoms: C_22  and  C_24
REMARK                            x       y       z     vdW  Elec       q    Type
REMARK                         _______ _______ _______ _____ _____    ______ ____
ROOT
ATOM      1  C   UNL     1       2.719  -2.012  -4.547  0.00  0.00    +0.237 C 
ATOM      2  C   UNL     1       2.263  -1.304  -5.803  0.00  0.00    +0.192 C 
ATOM      3  N   UNL     1       1.014  -1.337  -6.162  0.00  0.00    -0.110 NA
ATOM      4  N   UNL     1       3.167  -0.640  -6.541  0.00  0.00    -0.226 NA
ATOM      5  C   UNL     1       4.437  -0.592  -6.198  0.00  0.00    +0.089 A 
ATOM      6  C   UNL     1       5.364   0.119  -7.002  0.00  0.00    +0.030 A 
ATOM      7  C   UNL     1       6.669   0.172  -6.655  0.00  0.00    +0.002 A 
ATOM      8  C   UNL     1       7.176  -0.458  -5.506  0.00  0.00    +0.002 A 
ATOM      9  C   UNL     1       6.379  -1.161  -4.671  0.00  0.00    +0.027 A 
ATOM     10  C   UNL     1       4.945  -1.267  -4.978  0.00  0.00    +0.063 A 
ATOM     11  N   UNL     1       4.146  -1.935  -4.196  0.00  0.00    -0.359 N 
ATOM     12  H   UNL     1       4.484  -2.373  -3.399  0.00  0.00    +0.162 HD
ENDROOT
BRANCH   3  13
ATOM     13  S   UNL     1       0.528  -0.557  -7.540  0.00  0.00    +0.100 S 
ATOM     14  O   UNL     1       0.709   0.833  -7.305  0.00  0.00    -0.146 OA
ATOM     15  O   UNL     1       1.144  -1.233  -8.628  0.00  0.00    -0.146 OA
BRANCH  13  16
ATOM     16  C   UNL     1      -1.207  -0.819  -7.702  0.00  0.00    +0.113 A 
ATOM     17  C   UNL     1      -1.679  -1.917  -8.397  0.00  0.00    +0.029 A 
ATOM     18  C   UNL     1      -3.039  -2.123  -8.524  0.00  0.00    +0.005 A 
ATOM     19  C   UNL     1      -3.929  -1.230  -7.957  0.00  0.00    -0.047 A 
ATOM     20  C   UNL     1      -3.458  -0.132  -7.261  0.00  0.00    -0.046 A 
ATOM     21  C   UNL     1      -2.097   0.071  -7.130  0.00  0.00    +0.032 A 
ATOM     22  C   UNL     1      -4.428   0.841  -6.643  0.00  0.00    +0.044 C 
ATOM     23  C   UNL     1      -5.413  -1.453  -8.096  0.00  0.00    +0.044 C 
ENDBRANCH  13  16
ENDBRANCH   3  13
BRANCH   1  24
ATOM     24  N   UNL     1       1.952  -1.469  -3.424  0.00  0.00    -0.315 N 
ATOM     25  H   UNL     1       1.902  -0.509  -3.289  0.00  0.00    +0.149 HD
BRANCH  24  31
ATOM     26  C   UNL     1       0.457  -1.819  -1.554  0.00  0.00    +0.141 A 
ATOM     27  C   UNL     1      -0.200  -2.680  -0.690  0.00  0.00    +0.047 A 
ATOM     28  C   UNL     1      -0.022  -4.047  -0.808  0.00  0.00    +0.004 A 
ATOM     29  C   UNL     1       0.809  -4.558  -1.787  0.00  0.00    +0.002 A 
ATOM     30  C   UNL     1       1.468  -3.705  -2.653  0.00  0.00    +0.026 A 
ATOM     31  C   UNL     1       1.290  -2.334  -2.544  0.00  0.00    +0.071 A 
BRANCH  26  32
ATOM     32  O   UNL     1       0.283  -0.475  -1.439  0.00  0.00    -0.490 OA
BRANCH  32  34
ATOM     33  C   UNL     1      -0.655   1.509  -0.427  0.00  0.00    +0.048 C 
ATOM     34  C   UNL     1      -0.586  -0.020  -0.400  0.00  0.00    +0.226 C 
ENDBRANCH  32  34
ENDBRANCH  26  32
ENDBRANCH  24  31
ENDBRANCH   1  24
TORSDOF 6
