REMARK  Name = ZINC08951413
REMARK  7 active torsions:
REMARK  status: ('A' for Active; 'I' for Inactive)
REMARK    1  A    between atoms: C_1  and  C_2
REMARK    2  A    between atoms: C_2  and  C_29
REMARK    3  A    between atoms: C_3  and  N_16
REMARK    4  A    between atoms: N_5  and  N_9
REMARK    5  A    between atoms: C_10  and  C_11
REMARK    6  A    between atoms: N_16  and  O_28
REMARK    7  A    between atoms: N_19  and  C_20
REMARK                            x       y       z     vdW  Elec       q    Type
REMARK                         _______ _______ _______ _____ _____    ______ ____
ROOT
ATOM      1  C   UNL     1       2.630  -4.865  -2.061  0.00  0.00    +0.026 C 
ATOM      2  C   UNL     1       2.436  -4.949  -0.546  0.00  0.00    +0.056 C 
ATOM      3  C   UNL     1       1.364  -3.952  -0.061  0.00  0.00    +0.232 C 
ATOM      4  N   UNL     1       1.881  -2.956   0.849  0.00  0.00    -0.187 N 
ATOM      5  C   UNL     1       3.173  -2.956   1.207  0.00  0.00    +0.132 C 
ATOM      6  S   UNL     1       3.951  -1.863   2.270  0.00  0.00    -0.026 S 
ATOM      7  S   UNL     1       3.913  -4.329   0.345  0.00  0.00    -0.091 S 
ATOM      8  C   UNL     1       2.092  -6.377  -0.116  0.00  0.00    +0.026 C 
ENDROOT
BRANCH   3   9
ATOM      9  N   UNL     1       0.296  -4.694   0.613  0.00  0.00    -0.143 N 
ATOM     10  C   UNL     1      -0.994  -4.435   0.318  0.00  0.00    +0.331 C 
ATOM     11  O   UNL     1      -1.269  -3.655  -0.573  0.00  0.00    -0.250 OA
ATOM     12  N   UNL     1      -1.978  -5.041   1.012  0.00  0.00    -0.268 N 
ATOM     13  H   UNL     1      -1.762  -5.591   1.781  0.00  0.00    +0.156 HD
BRANCH  12  14
ATOM     14  C   UNL     1      -3.312  -4.875   0.622  0.00  0.00    +0.036 A 
ATOM     15  C   UNL     1      -4.316  -4.824   1.581  0.00  0.00    +0.025 A 
ATOM     16  C   UNL     1      -5.632  -4.661   1.195  0.00  0.00    +0.023 A 
ATOM     17  C   UNL     1      -5.952  -4.548  -0.146  0.00  0.00    +0.059 A 
ATOM     18  C   UNL     1      -4.954  -4.599  -1.105  0.00  0.00    +0.061 A 
ATOM     19  C   UNL     1      -3.635  -4.757  -0.723  0.00  0.00    +0.044 A 
ATOM     20 CL   UNL     1      -5.359  -4.458  -2.787  0.00  0.00    -0.082 Cl
ATOM     21 CL   UNL     1      -7.607  -4.344  -0.628  0.00  0.00    -0.082 Cl
ENDBRANCH  12  14
BRANCH   9  22
ATOM     22  O   UNL     1       0.618  -5.684   1.573  0.00  0.00    -0.289 OA
ATOM     23  H   UNL     1      -0.148  -6.171   1.908  0.00  0.00    +0.242 HD
ENDBRANCH   9  22
ENDBRANCH   3   9
BRANCH   4  24
ATOM     24  N   UNL     1       1.020  -1.981   1.369  0.00  0.00    -0.184 NA
ATOM     25  C   UNL     1       1.228  -0.724   1.108  0.00  0.00    +0.145 C 
BRANCH  25  26
ATOM     26  C   UNL     1       0.269   0.288   1.562  0.00  0.00    +0.032 A 
ATOM     27  C   UNL     1       0.302   1.661   1.391  0.00  0.00    +0.017 A 
ATOM     28  C   UNL     1      -0.727   2.410   1.913  0.00  0.00    +0.008 A 
ATOM     29  C   UNL     1      -1.735   1.785   2.576  0.00  0.00    +0.046 A 
ATOM     30  S   UNL     1      -1.248   0.070   2.478  0.00  0.00    -0.096 S 
ENDBRANCH  25  26
ENDBRANCH   4  24
TORSDOF 5
