REMARK  Name = ZINC23857912
REMARK  11 active torsions:
REMARK  status: ('A' for Active; 'I' for Inactive)
REMARK    1  A    between atoms: C_1  and  N_2
REMARK    2  A    between atoms: C_9  and  C_11
REMARK    3  A    between atoms: C_11  and  C_13
REMARK    4  A    between atoms: C_11  and  N_30
REMARK    5  A    between atoms: C_13  and  N_14
REMARK    6  A    between atoms: C_15  and  C_17
REMARK    7  A    between atoms: C_19  and  O_28
REMARK    8  A    between atoms: C_20  and  O_26
REMARK    9  A    between atoms: C_22  and  N_23
REMARK   10  A    between atoms: O_26  and  C_27
REMARK   11  A    between atoms: O_28  and  C_29
REMARK                            x       y       z     vdW  Elec       q    Type
REMARK                         _______ _______ _______ _____ _____    ______ ____
ROOT
ATOM      1  C   UNL     1      -2.139   5.974   0.433  0.00  0.00    -0.020 C 
ENDROOT
BRANCH   1  10
ATOM      2  C   UNL     1       3.034   4.007   3.784  0.00  0.00    +0.129 C 
ATOM      3  N   UNL     1       2.022   3.190   3.102  0.00  0.00    -0.332 N 
ATOM      4  C   UNL     1       2.620   2.432   1.981  0.00  0.00    +0.109 C 
ATOM      5  C   UNL     1       1.452   2.331   0.974  0.00  0.00    +0.056 C 
ATOM      6  C   UNL     1       0.600   3.535   1.324  0.00  0.00    -0.025 A 
ATOM      7  C   UNL     1       0.995   3.989   2.577  0.00  0.00    +0.033 A 
ATOM      8  C   UNL     1       0.361   5.103   3.125  0.00  0.00    +0.023 A 
ATOM      9  C   UNL     1      -0.646   5.739   2.430  0.00  0.00    +0.004 A 
ATOM     10  C   UNL     1      -1.035   5.277   1.187  0.00  0.00    -0.059 A 
ATOM     11  C   UNL     1      -0.409   4.173   0.635  0.00  0.00    +0.007 A 
ENDBRANCH   1  10
BRANCH   1  12
ATOM     12  N   UNL     1      -3.202   6.362   1.370  0.00  0.00    +0.385 N 
ATOM     13  C   UNL     1      -3.734   5.189   2.077  0.00  0.00    -0.078 C 
ATOM     14  C   UNL     1      -4.732   5.645   3.143  0.00  0.00    -0.019 C 
ATOM     15  C   UNL     1      -5.870   6.420   2.473  0.00  0.00    -0.004 C 
ATOM     16  C   UNL     1      -5.284   7.608   1.704  0.00  0.00    -0.019 C 
ATOM     17  C   UNL     1      -4.270   7.095   0.679  0.00  0.00    -0.078 C 
ATOM     18  H   UNL     1      -2.764   7.035   2.121  0.00  0.00    -0.081 HD
ENDBRANCH   1  12
BRANCH   1  19
ATOM     19  C   UNL     1      -1.580   7.224  -0.250  0.00  0.00    +0.094 C 
BRANCH  19  20
ATOM     20  N   UNL     1      -0.574   6.831  -1.240  0.00  0.00    -0.313 N 
ATOM     21  C   UNL     1       0.134   7.774  -1.892  0.00  0.00    +0.246 C 
ATOM     22  O   UNL     1      -0.063   8.951  -1.659  0.00  0.00    -0.270 OA
ATOM     23  H   UNL     1      -0.396   5.766  -1.450  0.00  0.00    +0.149 HD
BRANCH  21  24
ATOM     24  C   UNL     1       1.147   7.378  -2.890  0.00  0.00    +0.070 A 
ATOM     25  C   UNL     1       1.277   6.037  -3.262  0.00  0.00    +0.064 A 
ATOM     26  C   UNL     1       2.222   5.673  -4.201  0.00  0.00    +0.162 A 
ATOM     27  C   UNL     1       3.053   6.640  -4.766  0.00  0.00    +0.164 A 
ATOM     28  C   UNL     1       2.928   7.971  -4.391  0.00  0.00    +0.082 A 
ATOM     29  C   UNL     1       1.982   8.342  -3.459  0.00  0.00    +0.142 A 
BRANCH  29  30
ATOM     30  N   UNL     1       1.852   9.762  -3.063  0.00  0.00    +0.057 N 
ATOM     31  O   UNL     1       1.738  10.624  -3.915  0.00  0.00    -0.126 OA
ATOM     32  O   UNL     1       1.859  10.068  -1.884  0.00  0.00    -0.126 OA
ENDBRANCH  29  30
BRANCH  27  33
ATOM     33  O   UNL     1       3.985   6.279  -5.685  0.00  0.00    -0.491 OA
ATOM     34  C   UNL     1       4.802   7.321  -6.223  0.00  0.00    +0.277 C 
ENDBRANCH  27  33
BRANCH  26  35
ATOM     35  O   UNL     1       2.346   4.370  -4.571  0.00  0.00    -0.491 OA
ATOM     36  C   UNL     1       1.463   3.433  -3.952  0.00  0.00    +0.277 C 
ENDBRANCH  26  35
ENDBRANCH  21  24
ENDBRANCH  19  20
ENDBRANCH   1  19
TORSDOF 8
