REMARK  Name = ZINC43548520
REMARK  13 active torsions:
REMARK  status: ('A' for Active; 'I' for Inactive)
REMARK    1  A    between atoms: C_1  and  C_2
REMARK    2  A    between atoms: C_2  and  N_3
REMARK    3  A    between atoms: N_3  and  C_4
REMARK    4  A    between atoms: C_4  and  C_5
REMARK    5  A    between atoms: C_6  and  C_8
REMARK    6  A    between atoms: C_8  and  C_10
REMARK    7  A    between atoms: C_8  and  C_11
REMARK    8  A    between atoms: C_15  and  C_39
REMARK    9  A    between atoms: N_22  and  C_23
REMARK   10  A    between atoms: C_23  and  C_24
REMARK   11  A    between atoms: C_24  and  C_25
REMARK   12  A    between atoms: C_31  and  C_38
REMARK   13  A    between atoms: C_35  and  O_37
REMARK                            x       y       z     vdW  Elec       q    Type
REMARK                         _______ _______ _______ _____ _____    ______ ____
ROOT
ATOM      1  C   UNL     1      -3.004   0.211  -3.394  0.00  0.00    +0.029 C 
ATOM      2  C   UNL     1      -2.998  -0.996  -4.333  0.00  0.00    +0.007 C 
ATOM      3  C   UNL     1      -3.709  -0.639  -5.642  0.00  0.00    +0.008 C 
ATOM      4  C   UNL     1      -5.142  -0.212  -5.329  0.00  0.00    -0.022 C 
ATOM      5  C   UNL     1      -5.910   0.083  -6.619  0.00  0.00    +0.051 C 
ATOM      6  C   UNL     1      -5.452   1.392  -7.163  0.00  0.00    +0.013 A 
ATOM      7  C   UNL     1      -4.716   2.337  -6.527  0.00  0.00    +0.031 A 
ATOM      8  N   UNL     1      -4.449   3.420  -7.255  0.00  0.00    -0.340 N 
ATOM      9  C   UNL     1      -4.871   3.547  -8.493  0.00  0.00    +0.136 A 
ATOM     10  S   UNL     1      -5.711   2.111  -8.760  0.00  0.00    -0.059 S 
ATOM     11  N   UNL     1      -4.674   4.605  -9.367  0.00  0.00    -0.325 N 
ATOM     12  C   UNL     1      -4.254   2.126  -5.094  0.00  0.00    +0.039 C 
ATOM     13  C   UNL     1      -5.111   1.036  -4.440  0.00  0.00    +0.033 C 
ATOM     14  C   UNL     1      -4.444   0.644  -3.110  0.00  0.00    +0.123 C 
ATOM     15  C   UNL     1      -4.403   3.432  -4.312  0.00  0.00    +0.014 C 
ATOM     16  C   UNL     1      -5.854  -1.344  -4.584  0.00  0.00    +0.012 C 
ATOM     17  H   UNL     1      -4.166   5.381  -9.083  0.00  0.00    +0.148 HD
ATOM     18  H   UNL     1      -3.927   4.137  -6.859  0.00  0.00    +0.167 HD
ENDROOT
BRANCH   1  19
ATOM     19  C   UNL     1      -2.318  -0.166  -2.079  0.00  0.00    +0.078 C 
ATOM     20  C   UNL     1      -0.947  -0.777  -2.375  0.00  0.00    +0.017 C 
BRANCH  19  22
ATOM     21  N   UNL     1      -3.175  -1.183   0.007  0.00  0.00    -0.302 N 
ATOM     22  C   UNL     1      -3.166  -1.170  -1.341  0.00  0.00    +0.219 C 
ATOM     23  O   UNL     1      -3.840  -1.966  -1.959  0.00  0.00    -0.275 OA
BRANCH  21  25
ATOM     24  C   UNL     1      -5.454  -1.366   0.876  0.00  0.00    +0.024 C 
ATOM     25  C   UNL     1      -4.100  -2.063   0.725  0.00  0.00    +0.104 C 
ENDBRANCH  21  25
BRANCH  21  26
ATOM     26  C   UNL     1      -2.260  -0.316   0.754  0.00  0.00    +0.104 C 
ATOM     27  C   UNL     1      -1.011  -1.109   1.144  0.00  0.00    +0.024 C 
ENDBRANCH  21  26
ENDBRANCH  19  22
ENDBRANCH   1  19
BRANCH  14  28
ATOM     28  O   UNL     1      -4.442   1.767  -2.227  0.00  0.00    -0.391 OA
ATOM     29  H   UNL     1      -3.983   1.609  -1.391  0.00  0.00    +0.210 HD
ENDBRANCH  14  28
BRANCH  11  30
ATOM     30  C   UNL     1      -5.234   4.551 -10.720  0.00  0.00    +0.109 C 
BRANCH  30  31
ATOM     31  C   UNL     1      -4.874   5.835 -11.472  0.00  0.00    +0.074 C 
BRANCH  31  32
ATOM     32  C   UNL     1      -5.450   5.780 -12.863  0.00  0.00    +0.043 A 
ATOM     33  C   UNL     1      -6.268   6.802 -13.305  0.00  0.00    +0.023 A 
ATOM     34  C   UNL     1      -6.793   6.742 -14.587  0.00  0.00    +0.003 A 
ATOM     35  C   UNL     1      -6.473   5.651 -15.380  0.00  0.00    +0.020 A 
ATOM     36  C   UNL     1      -5.648   4.666 -14.870  0.00  0.00    +0.111 A 
ATOM     37  N   UNL     1      -5.162   4.759 -13.648  0.00  0.00    -0.260 NA
ENDBRANCH  31  32
ENDBRANCH  30  31
ENDBRANCH  11  30
TORSDOF 8
