REMARK  Name = ZINC38179924
REMARK  9 active torsions:
REMARK  status: ('A' for Active; 'I' for Inactive)
REMARK    1  A    between atoms: C_1  and  C_2
REMARK    2  A    between atoms: C_2  and  C_3
REMARK    3  A    between atoms: C_5  and  C_19
REMARK    4  A    between atoms: C_6  and  O_18
REMARK    5  A    between atoms: C_8  and  O_9
REMARK    6  A    between atoms: O_9  and  C_10
REMARK    7  A    between atoms: C_10  and  C_11
REMARK    8  A    between atoms: C_20  and  C_25
REMARK    9  A    between atoms: N_28  and  C_30
REMARK                            x       y       z     vdW  Elec       q    Type
REMARK                         _______ _______ _______ _____ _____    ______ ____
ROOT
ATOM      1  C   UNL     1       0.088  -0.034  -1.244  0.00  0.00    -0.005 A 
ATOM      2  C   UNL     1      -0.482  -0.541  -2.393  0.00  0.00    +0.021 A 
ATOM      3  C   UNL     1       0.325  -0.917  -3.464  0.00  0.00    +0.045 A 
ATOM      4  C   UNL     1       1.714  -0.778  -3.369  0.00  0.00    +0.130 A 
ATOM      5  C   UNL     1       2.278  -0.269  -2.213  0.00  0.00    +0.092 A 
ATOM      6  C   UNL     1       1.467   0.109  -1.153  0.00  0.00    +0.128 A 
ENDROOT
BRANCH   3   7
ATOM      7  C   UNL     1      -0.285  -1.463  -4.699  0.00  0.00    +0.104 A 
ATOM      8  C   UNL     1      -1.282  -2.467  -4.764  0.00  0.00    +0.030 A 
ATOM      9  C   UNL     1      -1.567  -2.679  -6.078  0.00  0.00    +0.114 A 
ATOM     10  N   UNL     1      -0.790  -1.850  -6.809  0.00  0.00    -0.284 N 
ATOM     11  H   UNL     1      -0.782  -1.786  -7.776  0.00  0.00    +0.188 HD
ATOM     12  N   UNL     1      -0.001  -1.097  -5.931  0.00  0.00    -0.173 NA
BRANCH   8  13
ATOM     13  C   UNL     1      -1.904  -3.163  -3.608  0.00  0.00    +0.024 A 
ATOM     14  C   UNL     1      -1.222  -3.860  -2.592  0.00  0.00    +0.143 A 
ATOM     15  N   UNL     1      -2.106  -4.333  -1.754  0.00  0.00    -0.174 NA
ATOM     16  N   UNL     1      -3.382  -3.962  -2.195  0.00  0.00    -0.239 N 
ATOM     17  C   UNL     1      -3.238  -3.237  -3.335  0.00  0.00    +0.123 A 
BRANCH  16  18
ATOM     18  C   UNL     1      -4.595  -4.277  -1.568  0.00  0.00    +0.065 A 
ATOM     19  C   UNL     1      -5.795  -3.849  -2.118  0.00  0.00    +0.028 A 
ATOM     20  C   UNL     1      -6.989  -4.162  -1.498  0.00  0.00    +0.002 A 
ATOM     21  C   UNL     1      -6.989  -4.901  -0.329  0.00  0.00    +0.000 A 
ATOM     22  C   UNL     1      -5.795  -5.329   0.222  0.00  0.00    +0.002 A 
ATOM     23  C   UNL     1      -4.599  -5.024  -0.397  0.00  0.00    +0.028 A 
ENDBRANCH  16  18
ENDBRANCH   8  13
ENDBRANCH   3   7
BRANCH   1  25
ATOM     24  C   UNL     1      -1.082   1.872  -0.172  0.00  0.00    +0.009 C 
ATOM     25  C   UNL     1      -0.787   0.373  -0.086  0.00  0.00    +0.035 C 
ENDBRANCH   1  25
BRANCH   4  26
ATOM     26  O   UNL     1       2.507  -1.144  -4.410  0.00  0.00    -0.506 OA
ATOM     27  H   UNL     1       2.741  -0.415  -5.001  0.00  0.00    +0.292 HD
ENDBRANCH   4  26
BRANCH   6  28
ATOM     28  O   UNL     1       2.022   0.614  -0.021  0.00  0.00    -0.487 OA
BRANCH  28  29
ATOM     29  C   UNL     1       3.446   0.734   0.006  0.00  0.00    +0.266 C 
BRANCH  29  30
ATOM     30  C   UNL     1       3.877   1.308   1.331  0.00  0.00    +0.008 A 
ATOM     31  C   UNL     1       2.932   1.622   2.289  0.00  0.00    +0.008 A 
ATOM     32  C   UNL     1       3.327   2.149   3.504  0.00  0.00    +0.000 A 
ATOM     33  C   UNL     1       4.669   2.363   3.761  0.00  0.00    +0.001 A 
ATOM     34  C   UNL     1       5.615   2.050   2.804  0.00  0.00    +0.020 A 
ATOM     35  C   UNL     1       5.220   1.517   1.590  0.00  0.00    +0.047 A 
ATOM     36 CL   UNL     1       6.409   1.117   0.390  0.00  0.00    -0.083 Cl
ENDBRANCH  29  30
ENDBRANCH  28  29
ENDBRANCH   6  28
TORSDOF 8
