REMARK  Name = ZINC13577113
REMARK  8 active torsions:
REMARK  status: ('A' for Active; 'I' for Inactive)
REMARK    1  A    between atoms: C_1  and  O_2
REMARK    2  A    between atoms: O_2  and  C_3
REMARK    3  A    between atoms: C_5  and  C_13
REMARK    4  A    between atoms: C_7  and  O_11
REMARK    5  A    between atoms: C_8  and  O_9
REMARK    6  A    between atoms: O_9  and  C_10
REMARK    7  A    between atoms: O_11  and  C_12
REMARK    8  A    between atoms: N_23  and  C_26
REMARK                            x       y       z     vdW  Elec       q    Type
REMARK                         _______ _______ _______ _____ _____    ______ ____
ROOT
ATOM      1  C   UNL     1       2.281   2.677  -4.495  0.00  0.00    +0.108 C 
ATOM      2  C   UNL     1       1.522   1.830  -5.545  0.00  0.00    +0.077 C 
ATOM      3  C   UNL     1       2.531   1.742  -6.676  0.00  0.00    +0.038 C 
ATOM      4  C   UNL     1       2.264   1.341  -7.977  0.00  0.00    +0.119 C 
ATOM      5  C   UNL     1       0.912   0.951  -8.398  0.00  0.00    +0.278 C 
ATOM      6  O   UNL     1      -0.116   0.972  -7.524  0.00  0.00    -0.268 OA
ATOM      7  N   UNL     1       0.725   0.578  -9.653  0.00  0.00    -0.123 NA
ATOM      8  C   UNL     1       1.719   0.548 -10.536  0.00  0.00    +0.340 C 
ATOM      9  O   UNL     1       1.468   0.193 -11.675  0.00  0.00    -0.250 OA
ATOM     10  N   UNL     1       2.983   0.887 -10.242  0.00  0.00    -0.188 N 
ATOM     11  C   UNL     1       3.324   1.293  -9.000  0.00  0.00    +0.265 C 
ATOM     12  O   UNL     1       4.470   1.605  -8.733  0.00  0.00    -0.269 OA
ATOM     13  N   UNL     1       3.727   2.122  -6.195  0.00  0.00    -0.283 N 
ATOM     14  N   UNL     1       3.694   2.432  -4.867  0.00  0.00    -0.235 NA
ATOM     15  H   UNL     1       4.530   2.172  -6.737  0.00  0.00    +0.166 HD
ATOM     16  H   UNL     1       4.266   3.239  -4.669  0.00  0.00    +0.145 HD
ENDROOT
BRANCH  10  17
ATOM     17  C   UNL     1       3.965   0.823 -11.240  0.00  0.00    +0.046 A 
ATOM     18  C   UNL     1       4.686  -0.347 -11.433  0.00  0.00    +0.025 A 
ATOM     19  C   UNL     1       5.652  -0.407 -12.417  0.00  0.00    +0.022 A 
ATOM     20  C   UNL     1       5.902   0.698 -13.212  0.00  0.00    +0.041 A 
ATOM     21  C   UNL     1       5.185   1.866 -13.022  0.00  0.00    +0.022 A 
ATOM     22  C   UNL     1       4.213   1.929 -12.042  0.00  0.00    +0.025 A 
ATOM     23 CL   UNL     1       7.119   0.620 -14.448  0.00  0.00    -0.084 Cl
ENDBRANCH  10  17
BRANCH   1  26
ATOM     24  C   UNL     1       0.857   2.427  -1.002  0.00  0.00    +0.165 A 
ATOM     25  C   UNL     1       1.120   2.877  -2.287  0.00  0.00    +0.055 A 
ATOM     26  C   UNL     1       1.999   2.184  -3.099  0.00  0.00    -0.021 A 
ATOM     27  C   UNL     1       2.619   1.040  -2.633  0.00  0.00    +0.055 A 
ATOM     28  C   UNL     1       2.362   0.582  -1.350  0.00  0.00    +0.165 A 
ATOM     29  C   UNL     1       1.483   1.280  -0.529  0.00  0.00    +0.204 A 
BRANCH  24  31
ATOM     30  C   UNL     1      -0.614   4.279  -0.758  0.00  0.00    +0.277 C 
ATOM     31  O   UNL     1      -0.007   3.109  -0.205  0.00  0.00    -0.491 OA
ENDBRANCH  24  31
BRANCH  29  32
ATOM     32  O   UNL     1       1.232   0.837   0.734  0.00  0.00    -0.488 OA
ATOM     33  C   UNL     1       0.149  -0.081   0.896  0.00  0.00    +0.277 C 
ENDBRANCH  29  32
BRANCH  28  34
ATOM     34  O   UNL     1       2.972  -0.544  -0.893  0.00  0.00    -0.491 OA
ATOM     35  C   UNL     1       3.866  -1.206  -1.789  0.00  0.00    +0.277 C 
ENDBRANCH  28  34
ENDBRANCH   1  26
TORSDOF 5
