REMARK  Name = ZINC38617811
REMARK  4 active torsions:
REMARK  status: ('A' for Active; 'I' for Inactive)
REMARK    1  A    between atoms: C_4  and  C_7
REMARK    2  A    between atoms: C_10  and  C_19
REMARK    3  A    between atoms: N_12  and  C_13
REMARK    4  A    between atoms: C_21  and  C_32
REMARK                            x       y       z     vdW  Elec       q    Type
REMARK                         _______ _______ _______ _____ _____    ______ ____
ROOT
ATOM      1  C   UNL     1       4.297  -3.719   2.142  0.00  0.00    +0.152 C 
ATOM      2  C   UNL     1       4.578  -5.107   1.597  0.00  0.00    -0.014 C 
ATOM      3  C   UNL     1       3.831  -6.161   2.131  0.00  0.00    +0.002 A 
ATOM      4  C   UNL     1       4.029  -7.484   1.683  0.00  0.00    +0.025 A 
ATOM      5  C   UNL     1       3.289  -8.492   2.219  0.00  0.00    +0.019 A 
ATOM      6  C   UNL     1       2.336  -8.244   3.206  0.00  0.00    +0.017 A 
ATOM      7  C   UNL     1       2.101  -6.989   3.679  0.00  0.00    +0.025 A 
ATOM      8  C   UNL     1       2.829  -5.899   3.170  0.00  0.00    +0.041 A 
ATOM      9  N   UNL     1       2.596  -4.667   3.635  0.00  0.00    -0.284 N 
ATOM     10  C   UNL     1       3.236  -3.596   3.211  0.00  0.00    +0.230 C 
ATOM     11  O   UNL     1       2.971  -2.505   3.682  0.00  0.00    -0.274 OA
ATOM     12 BR   UNL     1       3.558 -10.263   1.614  0.00  0.00    -0.050 Br
ATOM     13  H   UNL     1       1.920  -4.556   4.322  0.00  0.00    +0.155 HD
ENDROOT
BRANCH   2  14
ATOM     14  C   UNL     1       5.554  -5.324   0.593  0.00  0.00    -0.020 A 
ATOM     15  C   UNL     1       5.177  -5.837  -0.660  0.00  0.00    +0.008 A 
ATOM     16  C   UNL     1       6.133  -6.045  -1.629  0.00  0.00    +0.001 A 
ATOM     17  C   UNL     1       7.462  -5.750  -1.373  0.00  0.00    +0.000 A 
ATOM     18  C   UNL     1       7.844  -5.244  -0.141  0.00  0.00    +0.001 A 
ATOM     19  C   UNL     1       6.903  -5.023   0.840  0.00  0.00    +0.008 A 
ENDBRANCH   2  14
BRANCH   1  22
ATOM     20  C   UNL     1       3.300  -0.957  -0.383  0.00  0.00    +0.134 C 
ATOM     21  C   UNL     1       3.707  -1.343   1.053  0.00  0.00    +0.082 C 
ATOM     22  C   UNL     1       3.892  -2.842   0.985  0.00  0.00    +0.055 C 
ATOM     23  N   UNL     1       3.655  -3.251  -0.194  0.00  0.00    -0.187 NA
ATOM     24  N   UNL     1       3.298  -2.245  -1.096  0.00  0.00    -0.217 N 
BRANCH  20  28
ATOM     25  C   UNL     1      -0.597   0.792  -0.427  0.00  0.00    +0.000 A 
ATOM     26  C   UNL     1       0.522   1.597  -0.522  0.00  0.00    +0.000 A 
ATOM     27  C   UNL     1       1.784   1.031  -0.507  0.00  0.00    +0.005 A 
ATOM     28  C   UNL     1       1.925  -0.340  -0.398  0.00  0.00    -0.025 A 
ATOM     29  C   UNL     1       0.805  -1.144  -0.303  0.00  0.00    +0.005 A 
ATOM     30  C   UNL     1      -0.456  -0.578  -0.319  0.00  0.00    +0.000 A 
ENDBRANCH  20  28
BRANCH  24  31
ATOM     31  C   UNL     1       2.991  -2.428  -2.445  0.00  0.00    +0.052 A 
ATOM     32  C   UNL     1       2.655  -1.337  -3.237  0.00  0.00    +0.025 A 
ATOM     33  C   UNL     1       2.351  -1.522  -4.572  0.00  0.00    +0.002 A 
ATOM     34  C   UNL     1       2.382  -2.792  -5.120  0.00  0.00    +0.000 A 
ATOM     35  C   UNL     1       2.716  -3.880  -4.334  0.00  0.00    +0.002 A 
ATOM     36  C   UNL     1       3.026  -3.702  -3.001  0.00  0.00    +0.025 A 
ENDBRANCH  24  31
ENDBRANCH   1  22
TORSDOF 4
