REMARK  Name = ZINC39095138
REMARK  15 active torsions:
REMARK  status: ('A' for Active; 'I' for Inactive)
REMARK    1  A    between atoms: C_1  and  C_2
REMARK    2  A    between atoms: C_5  and  O_35
REMARK    3  A    between atoms: C_10  and  O_34
REMARK    4  A    between atoms: C_18  and  C_33
REMARK    5  A    between atoms: C_21  and  O_26
REMARK    6  A    between atoms: O_26  and  C_27
REMARK    7  A    between atoms: C_27  and  C_29
REMARK    8  A    between atoms: C_29  and  C_30
REMARK    9  A    between atoms: C_29  and  C_31
REMARK   10  A    between atoms: C_29  and  C_32
REMARK   11  A    between atoms: O_35  and  C_36
REMARK   12  A    between atoms: C_36  and  C_38
REMARK   13  A    between atoms: C_38  and  C_39
REMARK   14  A    between atoms: C_38  and  C_40
REMARK   15  A    between atoms: C_38  and  C_41
REMARK                            x       y       z     vdW  Elec       q    Type
REMARK                         _______ _______ _______ _____ _____    ______ ____
ROOT
ATOM      1  C   UNL     1      -0.019   1.526   0.010  0.00  0.00    +0.016 C 
ATOM      2  C   UNL     1       0.002  -0.004   0.002  0.00  0.00    -0.008 C 
ATOM      3  C   UNL     1      -1.446  -0.500   0.055  0.00  0.00    +0.015 C 
ATOM      4  C   UNL     1      -2.086  -0.056   1.372  0.00  0.00    +0.046 C 
ATOM      5  C   UNL     1      -1.348  -0.699   2.547  0.00  0.00    +0.180 C 
ATOM      6  C   UNL     1       0.098  -0.193   2.579  0.00  0.00    +0.075 C 
ATOM      7  C   UNL     1       0.733  -0.468   1.227  0.00  0.00    -0.061 C 
ATOM      8  C   UNL     1       1.873  -1.093   1.198  0.00  0.00    +0.004 C 
ATOM      9  C   UNL     1       2.588  -1.430  -0.078  0.00  0.00    +0.141 C 
ATOM     10  C   UNL     1       2.186  -0.424  -1.163  0.00  0.00    +0.033 C 
ATOM     11  C   UNL     1       0.648  -0.462  -1.295  0.00  0.00    +0.005 C 
ATOM     12  C   UNL     1       0.156   0.406  -2.450  0.00  0.00    +0.006 C 
ATOM     13  C   UNL     1       0.839   0.031  -3.775  0.00  0.00    +0.015 C 
ATOM     14  C   UNL     1       2.334   0.176  -3.563  0.00  0.00    +0.033 C 
ATOM     15  C   UNL     1       2.789  -0.844  -2.492  0.00  0.00    +0.049 C 
ATOM     16  C   UNL     1       4.319  -0.773  -2.578  0.00  0.00    +0.188 C 
ATOM     17  C   UNL     1       4.564  -0.635  -4.105  0.00  0.00    +0.119 C 
ATOM     18  C   UNL     1       3.216  -0.132  -4.737  0.00  0.00    +0.143 C 
ATOM     19  O   UNL     1       2.963   0.048  -5.904  0.00  0.00    -0.297 OA
ATOM     20  C   UNL     1       2.647   1.577  -3.035  0.00  0.00    +0.019 C 
ENDROOT
BRANCH   9  21
ATOM     21  O   UNL     1       2.229  -2.749  -0.493  0.00  0.00    -0.387 OA
ATOM     22  H   UNL     1       2.452  -3.437   0.149  0.00  0.00    +0.210 HD
ENDBRANCH   9  21
BRANCH  16  23
ATOM     23  O   UNL     1       4.814   0.368  -1.875  0.00  0.00    -0.460 OA
BRANCH  23  24
ATOM     24  C   UNL     1       6.037   0.265  -1.331  0.00  0.00    +0.313 C 
ATOM     25  O   UNL     1       6.666  -0.760  -1.449  0.00  0.00    -0.250 OA
BRANCH  24  26
ATOM     26  C   UNL     1       6.626   1.428  -0.575  0.00  0.00    +0.059 C 
ATOM     27  C   UNL     1       8.018   1.051  -0.063  0.00  0.00    +0.022 C 
ATOM     28  C   UNL     1       6.735   2.638  -1.505  0.00  0.00    +0.022 C 
ATOM     29  C   UNL     1       5.723   1.775   0.610  0.00  0.00    +0.022 C 
ENDBRANCH  24  26
ENDBRANCH  23  24
ENDBRANCH  16  23
BRANCH   5  30
ATOM     30  O   UNL     1      -2.002  -0.351   3.768  0.00  0.00    -0.461 OA
BRANCH  30  31
ATOM     31  C   UNL     1      -2.974  -1.172   4.195  0.00  0.00    +0.313 C 
ATOM     32  O   UNL     1      -3.260  -2.155   3.552  0.00  0.00    -0.250 OA
BRANCH  31  33
ATOM     33  C   UNL     1      -3.709  -0.870   5.475  0.00  0.00    +0.059 C 
ATOM     34  C   UNL     1      -4.758  -1.954   5.730  0.00  0.00    +0.022 C 
ATOM     35  C   UNL     1      -2.715  -0.838   6.638  0.00  0.00    +0.022 C 
ATOM     36  C   UNL     1      -4.400   0.490   5.357  0.00  0.00    +0.022 C 
ENDBRANCH  31  33
ENDBRANCH  30  31
ENDBRANCH   5  30
TORSDOF 7
