REMARK  Name = ZINC60199646
REMARK  10 active torsions:
REMARK  status: ('A' for Active; 'I' for Inactive)
REMARK    1  A    between atoms: C_1  and  C_2
REMARK    2  A    between atoms: C_2  and  C_4
REMARK    3  A    between atoms: C_2  and  N_16
REMARK    4  A    between atoms: C_8  and  C_10
REMARK    5  A    between atoms: C_17  and  C_19
REMARK    6  A    between atoms: C_19  and  C_21
REMARK    7  A    between atoms: C_19  and  N_24
REMARK    8  A    between atoms: C_21  and  C_22
REMARK    9  A    between atoms: C_21  and  C_23
REMARK   10  A    between atoms: C_25  and  C_27
REMARK                            x       y       z     vdW  Elec       q    Type
REMARK                         _______ _______ _______ _____ _____    ______ ____
ROOT
ATOM      1  N   UNL     1       0.370  -0.406   1.269  0.00  0.00    -0.304 N 
ATOM      2  C   UNL     1      -0.116  -0.655   2.501  0.00  0.00    +0.234 C 
ATOM      3  O   UNL     1      -1.270  -0.391   2.763  0.00  0.00    -0.274 OA
ATOM      4  H   UNL     1       1.310  -0.549   1.081  0.00  0.00    +0.149 HD
ENDROOT
BRANCH   1   6
ATOM      5  C   UNL     1      -0.648   1.601   0.312  0.00  0.00    +0.036 C 
ATOM      6  C   UNL     1      -0.523   0.079   0.214  0.00  0.00    +0.134 C 
BRANCH   6   7
ATOM      7  C   UNL     1       0.041  -0.293  -1.133  0.00  0.00    +0.105 A 
ATOM      8  N   UNL     1       1.354  -0.435  -1.421  0.00  0.00    -0.348 N 
ATOM      9  H   UNL     1       2.093  -0.318  -0.804  0.00  0.00    +0.167 HD
ATOM     10  C   UNL     1       1.448  -0.775  -2.742  0.00  0.00    +0.110 A 
ATOM     11  C   UNL     1       0.178  -0.831  -3.222  0.00  0.00    +0.064 A 
ATOM     12  N   UNL     1      -0.658  -0.534  -2.206  0.00  0.00    -0.342 N 
ATOM     13  H   UNL     1      -1.625  -0.504  -2.265  0.00  0.00    +0.167 HD
BRANCH  11  14
ATOM     14  C   UNL     1      -0.218  -1.163  -4.613  0.00  0.00    -0.000 A 
ATOM     15  C   UNL     1      -1.564  -1.177  -4.972  0.00  0.00    +0.010 A 
ATOM     16  C   UNL     1      -1.927  -1.487  -6.267  0.00  0.00    +0.001 A 
ATOM     17  C   UNL     1      -0.957  -1.784  -7.207  0.00  0.00    +0.000 A 
ATOM     18  C   UNL     1       0.381  -1.772  -6.856  0.00  0.00    +0.001 A 
ATOM     19  C   UNL     1       0.756  -1.457  -5.566  0.00  0.00    +0.010 A 
ENDBRANCH  11  14
ENDBRANCH   6   7
ENDBRANCH   1   6
BRANCH   2  20
ATOM     20  C   UNL     1       0.775  -1.262   3.554  0.00  0.00    +0.162 C 
BRANCH  20  21
ATOM     21  N   UNL     1      -0.041  -2.014   4.511  0.00  0.00    -0.300 N 
ATOM     22  C   UNL     1       0.506  -3.025   5.214  0.00  0.00    +0.250 C 
ATOM     23  O   UNL     1       1.677  -3.313   5.055  0.00  0.00    -0.270 OA
ATOM     24  H   UNL     1      -0.974  -1.784   4.638  0.00  0.00    +0.150 HD
BRANCH  22  25
ATOM     25  C   UNL     1      -0.316  -3.782   6.178  0.00  0.00    +0.107 A 
ATOM     26  C   UNL     1      -1.012  -4.923   5.764  0.00  0.00    +0.138 A 
ATOM     27  C   UNL     1      -1.780  -5.626   6.673  0.00  0.00    +0.039 A 
ATOM     28  C   UNL     1      -1.860  -5.206   7.988  0.00  0.00    +0.006 A 
ATOM     29  C   UNL     1      -1.174  -4.080   8.406  0.00  0.00    +0.039 A 
ATOM     30  C   UNL     1      -0.398  -3.367   7.511  0.00  0.00    +0.138 A 
ATOM     31  F   UNL     1       0.276  -2.271   7.922  0.00  0.00    -0.205 F 
ATOM     32  F   UNL     1      -0.936  -5.334   4.479  0.00  0.00    -0.205 F 
ENDBRANCH  22  25
ENDBRANCH  20  21
BRANCH  20  33
ATOM     33  C   UNL     1       1.527  -0.149   4.289  0.00  0.00    +0.012 C 
ATOM     34  C   UNL     1       2.476   0.553   3.316  0.00  0.00    +0.009 C 
ATOM     35  C   UNL     1       0.523   0.864   4.843  0.00  0.00    +0.009 C 
ENDBRANCH  20  33
ENDBRANCH   2  20
TORSDOF 7
