REMARK  Name = ZINC56902203
REMARK  10 active torsions:
REMARK  status: ('A' for Active; 'I' for Inactive)
REMARK    1  A    between atoms: C_1  and  N_2
REMARK    2  A    between atoms: N_2  and  C_3
REMARK    3  A    between atoms: N_2  and  C_4
REMARK    4  A    between atoms: C_4  and  C_5
REMARK    5  A    between atoms: C_5  and  N_6
REMARK    6  A    between atoms: C_12  and  O_16
REMARK    7  A    between atoms: O_16  and  C_17
REMARK    8  A    between atoms: C_21  and  C_23
REMARK    9  A    between atoms: N_28  and  S_30
REMARK   10  A    between atoms: S_30  and  C_33
REMARK                            x       y       z     vdW  Elec       q    Type
REMARK                         _______ _______ _______ _____ _____    ______ ____
ROOT
ATOM      1  N   UNL     1      -2.631  -2.884  -0.075  0.00  0.00    -0.252 N 
ATOM      2  C   UNL     1      -3.263  -3.271  -1.246  0.00  0.00    +0.168 A 
ATOM      3  N   UNL     1      -2.762  -3.381  -2.454  0.00  0.00    -0.224 NA
ATOM      4  C   UNL     1      -3.503  -3.775  -3.514  0.00  0.00    +0.081 A 
ATOM      5  C   UNL     1      -3.088  -3.932  -4.857  0.00  0.00    +0.032 A 
ATOM      6  C   UNL     1      -3.971  -4.342  -5.821  0.00  0.00    +0.048 A 
ATOM      7  C   UNL     1      -5.301  -4.617  -5.517  0.00  0.00    +0.131 A 
ATOM      8  C   UNL     1      -5.740  -4.474  -4.209  0.00  0.00    +0.063 A 
ATOM      9  C   UNL     1      -4.859  -4.063  -3.240  0.00  0.00    +0.044 A 
ATOM     10  S   UNL     1      -4.965  -3.756  -1.494  0.00  0.00    -0.052 S 
ATOM     11  C   UNL     1      -3.287  -2.955   1.100  0.00  0.00    +0.226 C 
ATOM     12  O   UNL     1      -2.773  -2.521   2.109  0.00  0.00    -0.275 OA
ENDROOT
BRANCH  11  13
ATOM     13  C   UNL     1      -4.660  -3.575   1.160  0.00  0.00    +0.091 C 
ATOM     14  C   UNL     1      -5.709  -2.530   0.773  0.00  0.00    +0.015 C 
ATOM     15  C   UNL     1      -7.100  -3.167   0.802  0.00  0.00    +0.018 C 
ATOM     16  C   UNL     1      -7.405  -3.655   2.222  0.00  0.00    +0.109 C 
ATOM     17  N   UNL     1      -6.323  -4.548   2.658  0.00  0.00    -0.181 NA
ATOM     18  C   UNL     1      -4.936  -4.067   2.584  0.00  0.00    +0.121 C 
BRANCH  17  19
ATOM     19  S   UNL     1      -6.659  -6.069   3.221  0.00  0.00    +0.029 S 
ATOM     20  O   UNL     1      -5.573  -6.385   4.081  0.00  0.00    -0.158 OA
ATOM     21  O   UNL     1      -7.984  -5.983   3.727  0.00  0.00    -0.158 OA
ATOM     22  C   UNL     1      -6.620  -7.130   1.750  0.00  0.00    +0.215 C 
ENDBRANCH  17  19
ENDBRANCH  11  13
BRANCH   1  23
ATOM     23  C   UNL     1      -1.250  -2.397  -0.115  0.00  0.00    +0.097 C 
BRANCH  23  24
ATOM     24  C   UNL     1      -1.250  -0.870  -0.207  0.00  0.00    -0.060 C 
BRANCH  24  26
ATOM     25  C   UNL     1       0.136   1.073  -0.455  0.00  0.00    -0.097 C 
ATOM     26  N   UNL     1       0.135  -0.382  -0.246  0.00  0.00    +0.377 N 
ATOM     27  C   UNL     1       0.801  -0.694   1.025  0.00  0.00    -0.097 C 
ATOM     28  H   UNL     1       0.628  -0.830  -1.004  0.00  0.00    -0.083 HD
ENDBRANCH  24  26
ENDBRANCH  23  24
ENDBRANCH   1  23
BRANCH   7  29
ATOM     29  O   UNL     1      -6.159  -5.022  -6.491  0.00  0.00    -0.406 OA
BRANCH  29  30
ATOM     30  C   UNL     1      -5.630  -5.146  -7.812  0.00  0.00    +0.575 C 
ATOM     31  F   UNL     1      -4.591  -6.083  -7.813  0.00  0.00    -0.133 F 
ATOM     32  F   UNL     1      -6.641  -5.569  -8.682  0.00  0.00    -0.133 F 
ATOM     33  F   UNL     1      -5.139  -3.906  -8.236  0.00  0.00    -0.133 F 
ENDBRANCH  29  30
ENDBRANCH   7  29
TORSDOF 7
