REMARK  Name = ZINC35073185
REMARK  17 active torsions:
REMARK  status: ('A' for Active; 'I' for Inactive)
REMARK    1  A    between atoms: C_1  and  C_2
REMARK    2  A    between atoms: C_2  and  C_3
REMARK    3  A    between atoms: C_3  and  C_4
REMARK    4  A    between atoms: C_4  and  C_5
REMARK    5  A    between atoms: C_5  and  C_7
REMARK    6  A    between atoms: C_5  and  C_9
REMARK    7  A    between atoms: C_7  and  C_8
REMARK    8  A    between atoms: N_11  and  C_12
REMARK    9  A    between atoms: N_11  and  C_17
REMARK   10  A    between atoms: C_12  and  C_13
REMARK   11  A    between atoms: C_13  and  N_14
REMARK   12  A    between atoms: N_14  and  C_15
REMARK   13  A    between atoms: N_14  and  C_16
REMARK   14  A    between atoms: C_17  and  C_19
REMARK   15  A    between atoms: C_17  and  C_21
REMARK   16  A    between atoms: C_19  and  C_20
REMARK   17  A    between atoms: N_31  and  C_32
REMARK                            x       y       z     vdW  Elec       q    Type
REMARK                         _______ _______ _______ _____ _____    ______ ____
ROOT
ATOM      1  C   UNL     1      -4.463  -5.416   0.782  0.00  0.00    +0.142 C 
ENDROOT
BRANCH   1   2
ATOM      2  C   UNL     1      -5.614  -5.961  -0.024  0.00  0.00    +0.138 A 
ATOM      3  N   UNL     1      -6.014  -5.289  -1.060  0.00  0.00    -0.231 NA
ATOM      4  C   UNL     1      -7.043  -5.718  -1.833  0.00  0.00    +0.078 A 
ATOM      5  C   UNL     1      -7.472  -4.995  -2.948  0.00  0.00    +0.028 A 
ATOM      6  C   UNL     1      -8.521  -5.469  -3.704  0.00  0.00    +0.002 A 
ATOM      7  C   UNL     1      -9.158  -6.657  -3.373  0.00  0.00    +0.001 A 
ATOM      8  C   UNL     1      -8.753  -7.388  -2.277  0.00  0.00    +0.015 A 
ATOM      9  C   UNL     1      -7.694  -6.926  -1.498  0.00  0.00    +0.065 A 
ATOM     10  C   UNL     1      -7.217  -7.664  -0.319  0.00  0.00    +0.266 A 
ATOM     11  O   UNL     1      -7.734  -8.711   0.023  0.00  0.00    -0.267 OA
ATOM     12  N   UNL     1      -6.178  -7.135   0.368  0.00  0.00    -0.263 N 
BRANCH  12  13
ATOM     13  C   UNL     1      -5.682  -7.801   1.497  0.00  0.00    +0.053 A 
ATOM     14  C   UNL     1      -6.485  -7.960   2.619  0.00  0.00    +0.029 A 
ATOM     15  C   UNL     1      -5.995  -8.616   3.731  0.00  0.00    +0.042 A 
ATOM     16  C   UNL     1      -4.704  -9.117   3.728  0.00  0.00    +0.142 A 
ATOM     17  C   UNL     1      -3.901  -8.959   2.610  0.00  0.00    +0.078 A 
ATOM     18  C   UNL     1      -4.389  -8.307   1.493  0.00  0.00    +0.049 A 
ATOM     19 CL   UNL     1      -2.282  -9.587   2.608  0.00  0.00    -0.081 Cl
ATOM     20  F   UNL     1      -4.226  -9.758   4.817  0.00  0.00    -0.204 F 
ENDBRANCH  12  13
ENDBRANCH   1   2
BRANCH   1  23
ATOM     21  C   UNL     1      -2.805  -3.945  -0.230  0.00  0.00    +0.219 C 
ATOM     22  O   UNL     1      -2.498  -2.904  -0.771  0.00  0.00    -0.275 OA
ATOM     23  N   UNL     1      -4.057  -4.118   0.237  0.00  0.00    -0.293 N 
BRANCH  21  24
ATOM     24  C   UNL     1      -1.786  -5.045  -0.081  0.00  0.00    +0.075 C 
BRANCH  24  25
ATOM     25  C   UNL     1      -0.397  -4.432   0.108  0.00  0.00    +0.009 C 
ATOM     26  C   UNL     1      -0.358  -3.653   1.424  0.00  0.00    +0.004 C 
ENDBRANCH  24  25
BRANCH  24  27
ATOM     27  C   UNL     1      -1.792  -5.920  -1.336  0.00  0.00    +0.013 C 
BRANCH  27  28
ATOM     28  C   UNL     1      -0.849  -7.108  -1.135  0.00  0.00    +0.000 C 
BRANCH  28  30
ATOM     29  C   UNL     1       0.088  -9.170  -2.189  0.00  0.00    +0.004 C 
ATOM     30  C   UNL     1      -0.855  -7.982  -2.391  0.00  0.00    -0.003 C 
ENDBRANCH  28  30
ENDBRANCH  27  28
ENDBRANCH  24  27
ENDBRANCH  21  24
BRANCH  23  31
ATOM     31  C   UNL     1      -5.013  -3.008   0.201  0.00  0.00    +0.090 C 
BRANCH  31  32
ATOM     32  C   UNL     1      -4.811  -2.120   1.430  0.00  0.00    -0.060 C 
BRANCH  32  33
ATOM     33  N   UNL     1      -5.830  -1.062   1.443  0.00  0.00    +0.377 N 
ATOM     34  C   UNL     1      -5.714  -0.286   2.685  0.00  0.00    -0.097 C 
ATOM     35  C   UNL     1      -5.628  -0.174   0.290  0.00  0.00    -0.097 C 
ATOM     36  H   UNL     1      -6.747  -1.478   1.391  0.00  0.00    -0.083 HD
ENDBRANCH  32  33
ENDBRANCH  31  32
ENDBRANCH  23  31
ENDBRANCH   1  23
BRANCH   1  37
ATOM     37  C   UNL     1      -4.897  -5.245   2.239  0.00  0.00    +0.027 C 
ATOM     38  C   UNL     1      -3.703  -4.779   3.075  0.00  0.00    +0.006 C 
ENDBRANCH   1  37
TORSDOF 12
