REMARK  Name = ZINC16708927
REMARK  16 active torsions:
REMARK  status: ('A' for Active; 'I' for Inactive)
REMARK    1  A    between atoms: C_1  and  C_2
REMARK    2  A    between atoms: C_2  and  C_3
REMARK    3  A    between atoms: C_3  and  C_4
REMARK    4  A    between atoms: C_4  and  N_5
REMARK    5  A    between atoms: C_6  and  N_36
REMARK    6  A    between atoms: C_7  and  N_14
REMARK    7  A    between atoms: N_14  and  C_15
REMARK    8  A    between atoms: C_15  and  C_16
REMARK    9  A    between atoms: C_16  and  C_17
REMARK   10  A    between atoms: C_17  and  C_18
REMARK   11  A    between atoms: C_17  and  C_19
REMARK   12  A    between atoms: C_20  and  C_22
REMARK   13  A    between atoms: C_26  and  O_28
REMARK   14  A    between atoms: O_28  and  C_29
REMARK   15  A    between atoms: C_29  and  C_30
REMARK   16  A    between atoms: C_33  and  C_35
REMARK                            x       y       z     vdW  Elec       q    Type
REMARK                         _______ _______ _______ _____ _____    ______ ____
ROOT
ATOM      1  N   UNL     1       2.264  -2.690   0.108  0.00  0.00    -0.260 N 
ATOM      2  C   UNL     1       1.072  -2.063   0.128  0.00  0.00    +0.251 C 
ATOM      3  O   UNL     1       1.022  -0.855   0.264  0.00  0.00    -0.270 OA
ENDROOT
BRANCH   1   6
ATOM      4  N   UNL     1       1.935  -5.998  -1.456  0.00  0.00    -0.280 N 
ATOM      5  C   UNL     1       1.857  -4.637  -1.278  0.00  0.00    +0.127 A 
ATOM      6  C   UNL     1       2.324  -4.083  -0.103  0.00  0.00    +0.140 A 
ATOM      7  C   UNL     1       2.857  -4.934   0.885  0.00  0.00    +0.277 A 
ATOM      8  O   UNL     1       3.272  -4.472   1.934  0.00  0.00    -0.266 OA
ATOM      9  N   UNL     1       2.904  -6.262   0.662  0.00  0.00    -0.273 N 
ATOM     10  H   UNL     1       3.283  -6.867   1.362  0.00  0.00    +0.173 HD
ATOM     11  C   UNL     1       2.449  -6.783  -0.491  0.00  0.00    +0.331 A 
ATOM     12  O   UNL     1       2.504  -7.985  -0.666  0.00  0.00    -0.246 OA
BRANCH   5  13
ATOM     13  N   UNL     1       1.326  -3.836  -2.260  0.00  0.00    -0.343 N 
ATOM     14  H   UNL     1       1.351  -2.871  -2.166  0.00  0.00    +0.144 HD
ATOM     15  H   UNL     1       0.927  -4.236  -3.049  0.00  0.00    +0.144 HD
ENDBRANCH   5  13
BRANCH   4  16
ATOM     16  C   UNL     1       1.448  -6.599  -2.700  0.00  0.00    +0.128 C 
BRANCH  16  17
ATOM     17  C   UNL     1      -0.033  -6.952  -2.551  0.00  0.00    +0.021 C 
BRANCH  17  19
ATOM     18  C   UNL     1      -2.023  -7.931  -3.701  0.00  0.00    +0.004 C 
ATOM     19  C   UNL     1      -0.542  -7.579  -3.851  0.00  0.00    -0.002 C 
ENDBRANCH  17  19
ENDBRANCH  16  17
ENDBRANCH   4  16
ENDBRANCH   1   6
BRANCH   2  20
ATOM     20  C   UNL     1      -0.176  -2.842  -0.016  0.00  0.00    +0.041 A 
ATOM     21  C   UNL     1      -0.203  -4.193   0.335  0.00  0.00    +0.013 A 
ATOM     22  C   UNL     1      -1.369  -4.918   0.201  0.00  0.00    +0.004 A 
ATOM     23  C   UNL     1      -2.514  -4.310  -0.281  0.00  0.00    +0.046 A 
ATOM     24  C   UNL     1      -2.498  -2.967  -0.632  0.00  0.00    +0.122 A 
ATOM     25  C   UNL     1      -1.332  -2.230  -0.501  0.00  0.00    +0.058 A 
BRANCH  24  26
ATOM     26  O   UNL     1      -3.627  -2.373  -1.100  0.00  0.00    -0.486 OA
BRANCH  26  27
ATOM     27  C   UNL     1      -4.793  -3.192  -1.209  0.00  0.00    +0.285 C 
BRANCH  27  28
ATOM     28  C   UNL     1      -5.938  -2.369  -1.741  0.00  0.00    +0.086 A 
ATOM     29  C   UNL     1      -5.771  -1.054  -2.032  0.00  0.00    +0.073 A 
ATOM     30  S   UNL     1      -7.412  -0.633  -2.601  0.00  0.00    -0.080 S 
ATOM     31  C   UNL     1      -8.131  -2.201  -2.391  0.00  0.00    +0.076 A 
ATOM     32  N   UNL     1      -7.125  -2.906  -1.929  0.00  0.00    -0.246 NA
ATOM     33  C   UNL     1      -9.546  -2.638  -2.670  0.00  0.00    +0.073 C 
ENDBRANCH  27  28
ENDBRANCH  26  27
ENDBRANCH  24  26
ENDBRANCH   2  20
BRANCH   1  34
ATOM     34  C   UNL     1       3.498  -1.925   0.304  0.00  0.00    +0.114 C 
BRANCH  34  35
ATOM     35  C   UNL     1       3.741  -1.726   1.802  0.00  0.00    +0.022 C 
BRANCH  35  36
ATOM     36  C   UNL     1       4.949  -0.810   2.005  0.00  0.00    -0.016 C 
ATOM     37  C   UNL     1       4.641   0.575   1.430  0.00  0.00    +0.007 C 
ATOM     38  C   UNL     1       5.250  -0.686   3.500  0.00  0.00    +0.007 C 
ENDBRANCH  35  36
ENDBRANCH  34  35
ENDBRANCH   1  34
TORSDOF 12
