REMARK  Name = ZINC30883770
REMARK  14 active torsions:
REMARK  status: ('A' for Active; 'I' for Inactive)
REMARK    1  A    between atoms: C_1  and  C_2
REMARK    2  A    between atoms: C_4  and  N_30
REMARK    3  A    between atoms: C_8  and  C_29
REMARK    4  A    between atoms: C_11  and  O_28
REMARK    5  A    between atoms: C_13  and  C_17
REMARK    6  A    between atoms: C_17  and  C_19
REMARK    7  A    between atoms: C_17  and  C_20
REMARK    8  A    between atoms: N_22  and  C_23
REMARK    9  A    between atoms: N_22  and  C_24
REMARK   10  A    between atoms: C_24  and  C_25
REMARK   11  A    between atoms: C_25  and  C_26
REMARK   12  A    between atoms: C_31  and  C_33
REMARK   13  A    between atoms: C_33  and  O_34
REMARK   14  A    between atoms: O_34  and  C_35
REMARK                            x       y       z     vdW  Elec       q    Type
REMARK                         _______ _______ _______ _____ _____    ______ ____
ROOT
ATOM      1  C   UNL     1       2.723   3.267  -3.020  0.00  0.00    +0.010 C 
ATOM      2  C   UNL     1       1.610   3.526  -2.002  0.00  0.00    +0.012 C 
ATOM      3  C   UNL     1       0.255   3.514  -2.713  0.00  0.00    +0.076 C 
ATOM      4  C   UNL     1      -0.857   3.773  -1.696  0.00  0.00    +0.023 C 
ATOM      5  C   UNL     1      -0.639   5.137  -1.038  0.00  0.00    +0.009 C 
ATOM      6  C   UNL     1       0.716   5.149  -0.327  0.00  0.00    -0.027 C 
ATOM      7  C   UNL     1       1.828   4.890  -1.344  0.00  0.00    +0.028 C 
ATOM      8  C   UNL     1       3.183   4.902  -0.633  0.00  0.00    +0.122 C 
ATOM      9  C   UNL     1       3.401   6.266   0.025  0.00  0.00    +0.029 C 
ATOM     10  C   UNL     1       2.288   6.526   1.043  0.00  0.00    +0.007 C 
ATOM     11  C   UNL     1       0.934   6.513   0.331  0.00  0.00    +0.007 C 
ATOM     12  C   UNL     1       0.739   4.057   0.745  0.00  0.00    +0.011 C 
ENDROOT
BRANCH   3  13
ATOM     13  N   UNL     1       0.046   2.208  -3.343  0.00  0.00    -0.310 N 
ATOM     14  C   UNL     1      -0.775   2.096  -4.406  0.00  0.00    +0.239 C 
ATOM     15  O   UNL     1      -1.341   3.076  -4.841  0.00  0.00    -0.273 OA
ATOM     16  H   UNL     1       0.560   1.318  -2.949  0.00  0.00    +0.149 HD
BRANCH  14  17
ATOM     17  C   UNL     1      -0.990   0.752  -5.054  0.00  0.00    +0.255 C 
BRANCH  17  18
ATOM     18  O   UNL     1      -1.895   0.892  -6.151  0.00  0.00    -0.374 OA
ATOM     19  C   UNL     1      -2.168  -0.331  -6.838  0.00  0.00    +0.194 C 
ENDBRANCH  17  18
ENDBRANCH  14  17
ENDBRANCH   3  13
BRANCH   9  20
ATOM     20  C   UNL     1       4.756   6.279   0.736  0.00  0.00    +0.078 C 
ATOM     21  C   UNL     1       4.752   5.239   1.859  0.00  0.00    +0.017 C 
BRANCH  20  22
ATOM     22  C   UNL     1       5.005   7.646   1.319  0.00  0.00    +0.219 C 
ATOM     23  O   UNL     1       4.759   7.862   2.486  0.00  0.00    -0.275 OA
ATOM     24  N   UNL     1       5.501   8.629   0.541  0.00  0.00    -0.303 N 
ATOM     25  C   UNL     1       5.698   8.401  -0.892  0.00  0.00    +0.132 C 
BRANCH  24  26
ATOM     26  C   UNL     1       5.842   9.927   1.130  0.00  0.00    +0.122 C 
BRANCH  26  27
ATOM     27  C   UNL     1       7.300   9.908   1.595  0.00  0.00    +0.137 C 
BRANCH  27  28
ATOM     28  C   UNL     1       7.643  11.211   2.186  0.00  0.00    +0.064 C 
ATOM     29  N   UNL     1       7.908  12.217   2.643  0.00  0.00    -0.197 NA
ENDBRANCH  27  28
ENDBRANCH  26  27
ENDBRANCH  24  26
ENDBRANCH  20  22
ENDBRANCH   9  20
BRANCH   8  30
ATOM     30  O   UNL     1       4.222   4.660  -1.583  0.00  0.00    -0.391 OA
ATOM     31  H   UNL     1       5.272   4.632  -1.255  0.00  0.00    +0.210 HD
ENDBRANCH   8  30
TORSDOF 9
