REMARK  Name = ZINC20756432
REMARK  4 active torsions:
REMARK  status: ('A' for Active; 'I' for Inactive)
REMARK    1  A    between atoms: N_9  and  S_10
REMARK    2  A    between atoms: S_10  and  C_13
REMARK    3  A    between atoms: C_26  and  C_29
REMARK    4  A    between atoms: C_32  and  N_35
REMARK                            x       y       z     vdW  Elec       q    Type
REMARK                         _______ _______ _______ _____ _____    ______ ____
ROOT
ATOM      1  C   UNL     1      -3.906   4.495   0.386  0.00  0.00    +0.109 A 
ATOM      2  C   UNL     1      -4.053   4.621   1.756  0.00  0.00    +0.030 A 
ATOM      3  C   UNL     1      -3.147   4.024   2.607  0.00  0.00    +0.025 A 
ATOM      4  C   UNL     1      -2.080   3.292   2.097  0.00  0.00    +0.031 A 
ATOM      5  C   UNL     1      -1.932   3.179   0.711  0.00  0.00    -0.018 A 
ATOM      6  C   UNL     1      -2.846   3.775  -0.132  0.00  0.00    +0.034 A 
ATOM      7  C   UNL     1      -0.774   2.409   0.208  0.00  0.00    +0.049 C 
ATOM      8  C   UNL     1      -0.793   1.735  -1.115  0.00  0.00    -0.023 C 
ATOM      9  C   UNL     1      -0.034   0.648  -1.048  0.00  0.00    -0.030 C 
ATOM     10  C   UNL     1       0.535   0.493   0.363  0.00  0.00    +0.033 C 
ATOM     11  C   UNL     1      -0.512   1.238   1.202  0.00  0.00    +0.029 C 
ATOM     12  C   UNL     1      -0.034   1.894   2.485  0.00  0.00    +0.105 C 
ATOM     13  N   UNL     1      -1.185   2.679   2.982  0.00  0.00    -0.336 N 
ATOM     14  H   UNL     1      -1.349   2.789   4.064  0.00  0.00    +0.147 HD
ENDROOT
BRANCH  12  15
ATOM     15  C   UNL     1       1.133   2.804   2.200  0.00  0.00    -0.027 A 
ATOM     16  C   UNL     1       2.423   2.308   2.247  0.00  0.00    +0.008 A 
ATOM     17  C   UNL     1       3.493   3.142   1.983  0.00  0.00    +0.033 A 
ATOM     18  C   UNL     1       3.275   4.472   1.679  0.00  0.00    +0.126 A 
ATOM     19  C   UNL     1       1.985   4.969   1.638  0.00  0.00    +0.033 A 
ATOM     20  C   UNL     1       0.914   4.135   1.898  0.00  0.00    +0.008 A 
BRANCH  18  21
ATOM     21  N   UNL     1       4.421   5.366   1.400  0.00  0.00    +0.056 N 
ATOM     22  O   UNL     1       4.229   6.538   1.133  0.00  0.00    -0.126 OA
ATOM     23  O   UNL     1       5.557   4.928   1.437  0.00  0.00    -0.126 OA
ENDBRANCH  18  21
ENDBRANCH  12  15
BRANCH   1  24
ATOM     24  S   UNL     1      -5.070   5.254  -0.698  0.00  0.00    +0.075 S 
ATOM     25  O   UNL     1      -5.017   4.531  -1.920  0.00  0.00    -0.150 OA
ATOM     26  O   UNL     1      -6.272   5.411   0.043  0.00  0.00    -0.150 OA
BRANCH  24  35
ATOM     27  C   UNL     1      -5.187  10.398   0.919  0.00  0.00    +0.000 A 
ATOM     28  C   UNL     1      -5.804   9.277   1.444  0.00  0.00    +0.002 A 
ATOM     29  C   UNL     1      -5.626   8.046   0.852  0.00  0.00    +0.025 A 
ATOM     30  C   UNL     1      -4.825   7.920  -0.285  0.00  0.00    +0.054 A 
ATOM     31  C   UNL     1      -4.207   9.048  -0.800  0.00  0.00    -0.023 A 
ATOM     32  C   UNL     1      -4.389  10.281  -0.203  0.00  0.00    +0.005 A 
ATOM     33  C   UNL     1      -3.401   8.643  -2.014  0.00  0.00    +0.058 C 
ATOM     34  C   UNL     1      -3.625   7.127  -2.138  0.00  0.00    +0.136 C 
ATOM     35  N   UNL     1      -4.513   6.778  -1.025  0.00  0.00    -0.202 N 
ENDBRANCH  24  35
ENDBRANCH   1  24
TORSDOF 4
