REMARK  Name = ZINC33417739
REMARK  11 active torsions:
REMARK  status: ('A' for Active; 'I' for Inactive)
REMARK    1  A    between atoms: C_1  and  C_2
REMARK    2  A    between atoms: C_3  and  C_30
REMARK    3  A    between atoms: C_4  and  C_22
REMARK    4  A    between atoms: C_10  and  C_11
REMARK    5  A    between atoms: C_16  and  O_17
REMARK    6  A    between atoms: C_25  and  O_28
REMARK    7  A    between atoms: O_28  and  C_29
REMARK    8  A    between atoms: C_30  and  O_32
REMARK    9  A    between atoms: O_32  and  C_33
REMARK   10  A    between atoms: C_33  and  C_34
REMARK   11  A    between atoms: C_33  and  C_35
REMARK                            x       y       z     vdW  Elec       q    Type
REMARK                         _______ _______ _______ _____ _____    ______ ____
ROOT
ATOM      1  C   UNL     1       0.024   1.298  -1.824  0.00  0.00    +0.066 C 
ATOM      2  C   UNL     1       0.053  -0.190  -1.586  0.00  0.00    +0.053 C 
ATOM      3  C   UNL     1      -1.076  -0.931  -1.792  0.00  0.00    +0.085 C 
ATOM      4  C   UNL     1      -1.005  -2.420  -1.542  0.00  0.00    +0.162 C 
ATOM      5  N   UNL     1       0.302  -2.971  -1.087  0.00  0.00    -0.275 N 
ATOM      6  C   UNL     1       0.562  -4.257  -0.815  0.00  0.00    +0.268 A 
ATOM      7  O   UNL     1      -0.300  -5.108  -0.928  0.00  0.00    -0.266 OA
ATOM      8  C   UNL     1       1.920  -4.609  -0.377  0.00  0.00    +0.081 A 
ATOM      9  C   UNL     1       2.433  -5.822  -0.045  0.00  0.00    +0.032 C 
ATOM     10  S   UNL     1       2.713  -3.009  -0.399  0.00  0.00    -0.046 S 
ATOM     11  C   UNL     1       1.313  -2.049  -0.943  0.00  0.00    +0.178 A 
ATOM     12  N   UNL     1       1.177  -0.769  -1.184  0.00  0.00    -0.228 NA
ENDROOT
BRANCH   9  13
ATOM     13  C   UNL     1       1.548  -6.988   0.062  0.00  0.00    +0.019 A 
ATOM     14  C   UNL     1       0.297  -6.869   0.680  0.00  0.00    +0.031 A 
ATOM     15  C   UNL     1      -0.527  -7.969   0.777  0.00  0.00    +0.042 A 
ATOM     16  C   UNL     1      -0.124  -9.193   0.267  0.00  0.00    +0.023 A 
ATOM     17  C   UNL     1       1.108  -9.325  -0.345  0.00  0.00    +0.047 A 
ATOM     18  C   UNL     1       1.949  -8.230  -0.458  0.00  0.00    +0.124 A 
ATOM     19 CL   UNL     1      -2.079  -7.821   1.543  0.00  0.00    -0.084 Cl
BRANCH  18  20
ATOM     20  O   UNL     1       3.157  -8.357  -1.065  0.00  0.00    -0.506 OA
ATOM     21  H   UNL     1       3.874  -8.601  -0.464  0.00  0.00    +0.292 HD
ENDBRANCH  18  20
ENDBRANCH   9  13
BRANCH   4  22
ATOM     22  C   UNL     1      -1.384  -3.123  -2.820  0.00  0.00    -0.020 A 
ATOM     23  C   UNL     1      -0.451  -3.268  -3.830  0.00  0.00    +0.009 A 
ATOM     24  C   UNL     1      -0.796  -3.912  -5.003  0.00  0.00    +0.046 A 
ATOM     25  C   UNL     1      -2.079  -4.413  -5.166  0.00  0.00    +0.120 A 
ATOM     26  C   UNL     1      -3.013  -4.267  -4.150  0.00  0.00    +0.046 A 
ATOM     27  C   UNL     1      -2.662  -3.627  -2.977  0.00  0.00    +0.009 A 
BRANCH  25  28
ATOM     28  O   UNL     1      -2.421  -5.047  -6.319  0.00  0.00    -0.495 OA
ATOM     29  C   UNL     1      -3.760  -5.538  -6.417  0.00  0.00    +0.277 C 
ENDBRANCH  25  28
ENDBRANCH   4  22
BRANCH   3  30
ATOM     30  C   UNL     1      -2.269  -0.327  -2.222  0.00  0.00    +0.339 C 
ATOM     31  O   UNL     1      -2.307   0.875  -2.418  0.00  0.00    -0.245 OA
BRANCH  30  32
ATOM     32  O   UNL     1      -3.374  -1.079  -2.419  0.00  0.00    -0.459 OA
BRANCH  32  33
ATOM     33  C   UNL     1      -4.552  -0.398  -2.857  0.00  0.00    +0.171 C 
ATOM     34  C   UNL     1      -5.400  -1.344  -3.709  0.00  0.00    +0.052 C 
ATOM     35  C   UNL     1      -5.361   0.056  -1.640  0.00  0.00    +0.052 C 
ENDBRANCH  32  33
ENDBRANCH  30  32
ENDBRANCH   3  30
TORSDOF 7
