REMARK  Name = ZINC35240625
REMARK  13 active torsions:
REMARK  status: ('A' for Active; 'I' for Inactive)
REMARK    1  A    between atoms: C_1  and  C_2
REMARK    2  A    between atoms: C_2  and  C_4
REMARK    3  A    between atoms: C_11  and  C_32
REMARK    4  A    between atoms: C_21  and  C_31
REMARK    5  A    between atoms: C_24  and  O_27
REMARK    6  A    between atoms: O_27  and  C_28
REMARK    7  A    between atoms: C_28  and  C_30
REMARK    8  A    between atoms: C_33  and  C_40
REMARK    9  A    between atoms: C_34  and  C_36
REMARK   10  A    between atoms: C_36  and  O_38
REMARK   11  A    between atoms: O_38  and  C_39
REMARK   12  A    between atoms: C_40  and  O_42
REMARK   13  A    between atoms: O_42  and  C_43
REMARK                            x       y       z     vdW  Elec       q    Type
REMARK                         _______ _______ _______ _____ _____    ______ ____
ROOT
ATOM      1  C   UNL     1       0.165  -0.821  -1.311  0.00  0.00    -0.000 C 
ATOM      2  C   UNL     1       0.026  -2.139  -1.254  0.00  0.00    -0.049 C 
ATOM      3  C   UNL     1      -0.036  -3.044  -2.479  0.00  0.00    +0.054 C 
ATOM      4  C   UNL     1      -0.836  -4.286  -2.051  0.00  0.00    +0.017 C 
ATOM      5  C   UNL     1      -1.204  -4.061  -0.556  0.00  0.00    +0.004 C 
ATOM      6  C   UNL     1      -0.123  -3.071  -0.086  0.00  0.00    -0.007 C 
ATOM      7  C   UNL     1      -0.483  -2.374   1.204  0.00  0.00    +0.011 C 
ATOM      8  C   UNL     1      -1.850  -1.702   1.100  0.00  0.00    +0.005 C 
ATOM      9  C   UNL     1      -2.907  -2.775   0.802  0.00  0.00    +0.003 C 
ATOM     10  C   UNL     1      -2.605  -3.438  -0.549  0.00  0.00    +0.001 C 
ATOM     11  C   UNL     1      -3.618  -4.564  -0.806  0.00  0.00    +0.031 C 
ATOM     12  C   UNL     1      -5.014  -4.041  -0.657  0.00  0.00    -0.027 C 
ATOM     13  C   UNL     1      -5.311  -2.978   0.021  0.00  0.00    -0.064 C 
ATOM     14  C   UNL     1      -4.270  -2.092   0.751  0.00  0.00    -0.008 C 
ATOM     15  C   UNL     1      -4.165  -0.715   0.102  0.00  0.00    +0.015 C 
ATOM     16  C   UNL     1      -5.494  -0.343  -0.555  0.00  0.00    +0.046 C 
ATOM     17  C   UNL     1      -6.675  -0.894   0.241  0.00  0.00    +0.180 C 
ATOM     18  C   UNL     1      -6.756  -2.511   0.092  0.00  0.00    +0.075 C 
ATOM     19  C   UNL     1      -4.759  -1.893   2.187  0.00  0.00    +0.016 C 
ATOM     20  C   UNL     1       1.191  -3.827   0.121  0.00  0.00    +0.016 C 
ATOM     21  C   UNL     1      -0.742  -2.278  -3.568  0.00  0.00    +0.054 C 
ATOM     22  C   UNL     1      -0.583  -0.947  -3.652  0.00  0.00    +0.051 C 
ATOM     23  C   UNL     1       0.243  -0.187  -2.684  0.00  0.00    +0.081 C 
ENDROOT
BRANCH   1  25
ATOM     24  C   UNL     1      -0.851   0.991   0.205  0.00  0.00    +0.091 C 
ATOM     25  C   UNL     1       0.234  -0.010  -0.095  0.00  0.00    +0.156 C 
ATOM     26  O   UNL     1       1.165  -0.145   0.671  0.00  0.00    -0.293 OA
ENDBRANCH   1  25
BRANCH  22  27
ATOM     27  C   UNL     1      -1.280  -0.205  -4.720  0.00  0.00    +0.336 C 
ATOM     28  O   UNL     1      -1.892  -0.808  -5.579  0.00  0.00    -0.245 OA
BRANCH  27  29
ATOM     29  O   UNL     1      -1.238   1.142  -4.743  0.00  0.00    -0.465 OA
ATOM     30  C   UNL     1      -1.936   1.794  -5.806  0.00  0.00    +0.280 C 
ENDBRANCH  27  29
ENDBRANCH  22  27
BRANCH  21  31
ATOM     31  C   UNL     1      -1.601  -2.986  -4.537  0.00  0.00    +0.336 C 
ATOM     32  O   UNL     1      -1.101  -3.590  -5.464  0.00  0.00    -0.245 OA
BRANCH  31  33
ATOM     33  O   UNL     1      -2.941  -2.962  -4.392  0.00  0.00    -0.465 OA
ATOM     34  C   UNL     1      -3.711  -3.669  -5.366  0.00  0.00    +0.280 C 
ENDBRANCH  31  33
ENDBRANCH  21  31
BRANCH  17  35
ATOM     35  O   UNL     1      -6.514  -0.563   1.622  0.00  0.00    -0.461 OA
BRANCH  35  36
ATOM     36  C   UNL     1      -7.634  -0.392   2.342  0.00  0.00    +0.304 C 
ATOM     37  O   UNL     1      -8.715  -0.520   1.817  0.00  0.00    -0.251 OA
ATOM     38  C   UNL     1      -7.543  -0.041   3.804  0.00  0.00    +0.136 C 
ENDBRANCH  35  36
ENDBRANCH  17  35
TORSDOF 7
