REMARK  Name = ZINC21539751
REMARK  6 active torsions:
REMARK  status: ('A' for Active; 'I' for Inactive)
REMARK    1  A    between atoms: C_1  and  C_2
REMARK    2  A    between atoms: C_2  and  O_3
REMARK    3  A    between atoms: O_3  and  C_4
REMARK    4  A    between atoms: C_8  and  C_10
REMARK    5  A    between atoms: N_30  and  C_31
REMARK    6  A    between atoms: C_35  and  C_37
REMARK                            x       y       z     vdW  Elec       q    Type
REMARK                         _______ _______ _______ _____ _____    ______ ____
ROOT
ATOM      1  C   UNL     1      -6.077   3.089  -0.248  0.00  0.00    +0.155 C 
ATOM      2  C   UNL     1      -6.952   4.049   0.508  0.00  0.00    +0.049 A 
ATOM      3  C   UNL     1      -7.647   3.860   1.639  0.00  0.00    +0.025 A 
ATOM      4  C   UNL     1      -8.379   5.042   1.887  0.00  0.00    +0.020 A 
ATOM      5  C   UNL     1      -8.090   5.916   0.897  0.00  0.00    +0.092 A 
ATOM      6  N   UNL     1      -7.199   5.328   0.066  0.00  0.00    -0.312 N 
ATOM      7  C   UNL     1      -6.535   5.802  -1.059  0.00  0.00    +0.090 A 
ATOM      8  C   UNL     1      -5.207   5.625  -1.292  0.00  0.00    +0.005 A 
ATOM      9  C   UNL     1      -4.702   6.130  -2.508  0.00  0.00    -0.030 A 
ATOM     10  C   UNL     1      -5.568   6.775  -3.332  0.00  0.00    -0.005 A 
ATOM     11  S   UNL     1      -7.118   6.689  -2.471  0.00  0.00    -0.075 S 
ATOM     12  C   UNL     1      -5.274   7.403  -4.655  0.00  0.00    +0.043 C 
ATOM     13  C   UNL     1      -3.749   7.530  -4.799  0.00  0.00    +0.005 C 
ATOM     14  C   UNL     1      -3.107   6.195  -4.411  0.00  0.00    +0.005 C 
ATOM     15  C   UNL     1      -3.237   5.970  -2.904  0.00  0.00    +0.036 C 
ATOM     16  C   UNL     1      -4.343   4.915  -0.273  0.00  0.00    +0.148 C 
ATOM     17  N   UNL     1      -4.648   3.477  -0.172  0.00  0.00    -0.268 N 
ATOM     18  C   UNL     1      -3.674   2.557  -0.022  0.00  0.00    +0.308 C 
ATOM     19  O   UNL     1      -3.958   1.378   0.058  0.00  0.00    -0.252 OA
ATOM     20  N   UNL     1      -2.385   2.945   0.038  0.00  0.00    -0.269 N 
ATOM     21  H   UNL     1      -2.132   4.016   0.049  0.00  0.00    +0.156 HD
ENDROOT
BRANCH  20  22
ATOM     22  C   UNL     1      -1.367   1.986   0.086  0.00  0.00    +0.035 A 
ATOM     23  C   UNL     1      -1.526   0.768  -0.563  0.00  0.00    +0.023 A 
ATOM     24  C   UNL     1      -0.522  -0.178  -0.509  0.00  0.00    +0.002 A 
ATOM     25  C   UNL     1       0.646   0.089   0.182  0.00  0.00    +0.003 A 
ATOM     26  C   UNL     1       0.810   1.302   0.824  0.00  0.00    -0.049 A 
ATOM     27  C   UNL     1      -0.193   2.251   0.779  0.00  0.00    +0.026 A 
ATOM     28  C   UNL     1       2.084   1.590   1.575  0.00  0.00    +0.044 C 
ENDBRANCH  20  22
BRANCH   1  33
ATOM     29  C   UNL     1      -8.221   3.231  -3.357  0.00  0.00    +0.121 A 
ATOM     30  C   UNL     1      -7.277   3.017  -4.351  0.00  0.00    +0.045 A 
ATOM     31  C   UNL     1      -5.951   2.828  -4.014  0.00  0.00    +0.004 A 
ATOM     32  C   UNL     1      -5.564   2.852  -2.686  0.00  0.00    +0.006 A 
ATOM     33  C   UNL     1      -6.502   3.065  -1.694  0.00  0.00    -0.018 A 
ATOM     34  C   UNL     1      -7.831   3.249  -2.026  0.00  0.00    +0.051 A 
BRANCH  29  35
ATOM     35  O   UNL     1      -9.526   3.416  -3.687  0.00  0.00    -0.492 OA
BRANCH  35  37
ATOM     36  C   UNL     1     -11.359   3.605  -5.250  0.00  0.00    +0.048 C 
ATOM     37  C   UNL     1      -9.856   3.378  -5.076  0.00  0.00    +0.225 C 
ENDBRANCH  35  37
ENDBRANCH  29  35
ENDBRANCH   1  33
TORSDOF 4
