REMARK  Name = ZINC28308189
REMARK  6 active torsions:
REMARK  status: ('A' for Active; 'I' for Inactive)
REMARK    1  A    between atoms: C_4  and  C_7
REMARK    2  A    between atoms: N_9  and  C_10
REMARK    3  A    between atoms: C_10  and  C_19
REMARK    4  A    between atoms: C_11  and  C_12
REMARK    5  A    between atoms: C_15  and  O_18
REMARK    6  A    between atoms: N_21  and  C_22
REMARK                            x       y       z     vdW  Elec       q    Type
REMARK                         _______ _______ _______ _____ _____    ______ ____
ROOT
ATOM      1  C   UNL     1      -5.030   3.576  -0.128  0.00  0.00    +0.097 C 
ATOM      2  C   UNL     1      -5.170   4.923  -0.112  0.00  0.00    +0.036 C 
ENDROOT
BRANCH   2   3
ATOM      3  C   UNL     1      -3.986   5.786  -0.229  0.00  0.00    -0.023 A 
ATOM      4  C   UNL     1      -2.745   5.344   0.243  0.00  0.00    +0.011 A 
ATOM      5  C   UNL     1      -1.638   6.154   0.125  0.00  0.00    +0.046 A 
ATOM      6  C   UNL     1      -1.754   7.414  -0.451  0.00  0.00    +0.117 A 
ATOM      7  C   UNL     1      -2.985   7.860  -0.916  0.00  0.00    +0.046 A 
ATOM      8  C   UNL     1      -4.098   7.056  -0.809  0.00  0.00    +0.011 A 
BRANCH   6   9
ATOM      9  O   UNL     1      -0.661   8.212  -0.559  0.00  0.00    -0.507 OA
ATOM     10  H   UNL     1      -0.750   9.209  -1.014  0.00  0.00    +0.292 HD
ENDBRANCH   6   9
ENDBRANCH   2   3
BRANCH   1  13
ATOM     11  C   UNL     1      -6.021   1.418   0.016  0.00  0.00    +0.248 C 
ATOM     12  O   UNL     1      -4.945   0.919  -0.249  0.00  0.00    -0.270 OA
ATOM     13  N   UNL     1      -6.130   2.755   0.144  0.00  0.00    -0.277 N 
ATOM     14  H   UNL     1      -7.084   3.201   0.463  0.00  0.00    +0.155 HD
BRANCH  11  18
ATOM     15  C   UNL     1      -9.438  -1.051   0.539  0.00  0.00    +0.000 A 
ATOM     16  C   UNL     1      -8.214  -1.623   0.238  0.00  0.00    +0.001 A 
ATOM     17  C   UNL     1      -7.101  -0.826   0.066  0.00  0.00    +0.013 A 
ATOM     18  C   UNL     1      -7.210   0.559   0.198  0.00  0.00    +0.037 A 
ATOM     19  C   UNL     1      -8.446   1.129   0.508  0.00  0.00    +0.013 A 
ATOM     20  C   UNL     1      -9.553   0.322   0.672  0.00  0.00    +0.001 A 
ENDBRANCH  11  18
ENDBRANCH   1  13
BRANCH   1  21
ATOM     21  C   UNL     1      -3.725   2.977  -0.431  0.00  0.00    +0.262 C 
ATOM     22  O   UNL     1      -3.061   2.482   0.461  0.00  0.00    -0.268 OA
ATOM     23  N   UNL     1      -3.261   2.976  -1.696  0.00  0.00    -0.280 N 
ATOM     24  H   UNL     1      -3.845   3.456  -2.496  0.00  0.00    +0.155 HD
BRANCH  23  25
ATOM     25  C   UNL     1      -2.042   2.367  -1.992  0.00  0.00    +0.041 A 
ATOM     26  C   UNL     1      -1.109   2.159  -0.998  0.00  0.00    +0.024 A 
ATOM     27  C   UNL     1       0.112   1.557  -1.284  0.00  0.00    +0.002 A 
ATOM     28  C   UNL     1       0.416   1.147  -2.546  0.00  0.00    +0.008 A 
ATOM     29  C   UNL     1      -0.510   1.334  -3.587  0.00  0.00    -0.016 A 
ATOM     30  C   UNL     1      -1.755   1.951  -3.310  0.00  0.00    +0.003 A 
ATOM     31  C   UNL     1      -2.678   2.137  -4.350  0.00  0.00    +0.010 A 
ATOM     32  C   UNL     1      -2.368   1.724  -5.609  0.00  0.00    +0.001 A 
ATOM     33  C   UNL     1      -1.143   1.117  -5.883  0.00  0.00    +0.001 A 
ATOM     34  C   UNL     1      -0.224   0.920  -4.899  0.00  0.00    +0.008 A 
ENDBRANCH  23  25
ENDBRANCH   1  21
TORSDOF 6
