REMARK  Name = ZINC09144794
REMARK  7 active torsions:
REMARK  status: ('A' for Active; 'I' for Inactive)
REMARK    1  A    between atoms: C_1  and  C_2
REMARK    2  A    between atoms: C_2  and  C_34
REMARK    3  A    between atoms: N_11  and  C_24
REMARK    4  A    between atoms: N_14  and  N_15
REMARK    5  A    between atoms: C_16  and  C_17
REMARK    6  A    between atoms: C_27  and  O_30
REMARK    7  A    between atoms: O_30  and  C_31
REMARK                            x       y       z     vdW  Elec       q    Type
REMARK                         _______ _______ _______ _____ _____    ______ ____
ROOT
ATOM      1  C   UNL     1       7.403   4.551   3.326  0.00  0.00    +0.041 C 
ATOM      2  C   UNL     1       6.354   4.843   2.252  0.00  0.00    +0.068 C 
ATOM      3  C   UNL     1       5.380   3.664   2.159  0.00  0.00    +0.071 C 
ATOM      4  C   UNL     1       4.219   4.079   1.259  0.00  0.00    -0.018 A 
ATOM      5  C   UNL     1       4.008   5.389   1.006  0.00  0.00    +0.021 A 
ATOM      6  S   UNL     1       2.594   5.429  -0.059  0.00  0.00    -0.071 S 
ATOM      7  C   UNL     1       2.288   3.683  -0.160  0.00  0.00    +0.118 A 
ATOM      8  C   UNL     1       3.301   3.125   0.641  0.00  0.00    +0.076 A 
ATOM      9  C   UNL     1       3.298   1.698   0.744  0.00  0.00    +0.268 A 
ATOM     10  O   UNL     1       4.139   1.125   1.416  0.00  0.00    -0.266 OA
ATOM     11  N   UNL     1       2.355   0.996   0.088  0.00  0.00    -0.247 N 
ATOM     12  C   UNL     1       1.406   1.621  -0.670  0.00  0.00    +0.224 A 
ATOM     13  N   UNL     1       1.390   2.933  -0.786  0.00  0.00    -0.207 NA
ATOM     14  N   UNL     1       0.459   0.871  -1.325  0.00  0.00    -0.206 N 
ATOM     15  C   UNL     1       4.817   6.535   1.530  0.00  0.00    +0.203 C 
ATOM     16  O   UNL     1       5.647   6.039   2.592  0.00  0.00    -0.368 OA
ATOM     17  C   UNL     1       7.048   5.031   0.902  0.00  0.00    +0.041 C 
ATOM     18  H   UNL     1       0.475  -0.097  -1.257  0.00  0.00    +0.177 HD
ENDROOT
BRANCH  11  19
ATOM     19  C   UNL     1       2.347  -0.403   0.186  0.00  0.00    +0.053 A 
ATOM     20  C   UNL     1       1.624  -1.025   1.194  0.00  0.00    +0.030 A 
ATOM     21  C   UNL     1       1.613  -2.402   1.287  0.00  0.00    +0.047 A 
ATOM     22  C   UNL     1       2.333  -3.165   0.378  0.00  0.00    +0.120 A 
ATOM     23  C   UNL     1       3.059  -2.543  -0.627  0.00  0.00    +0.047 A 
ATOM     24  C   UNL     1       3.067  -1.166  -0.724  0.00  0.00    +0.030 A 
BRANCH  22  25
ATOM     25  O   UNL     1       2.326  -4.521   0.473  0.00  0.00    -0.495 OA
ATOM     26  C   UNL     1       1.557  -5.093   1.532  0.00  0.00    +0.277 C 
ENDBRANCH  22  25
ENDBRANCH  11  19
BRANCH  14  27
ATOM     27  N   UNL     1      -0.525   1.503  -2.095  0.00  0.00    -0.188 NA
ATOM     28  C   UNL     1      -1.417   0.793  -2.718  0.00  0.00    +0.138 C 
BRANCH  28  29
ATOM     29  C   UNL     1      -2.453   1.459  -3.529  0.00  0.00    -0.005 A 
ATOM     30  C   UNL     1      -2.482   2.852  -3.624  0.00  0.00    +0.011 A 
ATOM     31  C   UNL     1      -3.451   3.468  -4.388  0.00  0.00    +0.020 A 
ATOM     32  C   UNL     1      -4.401   2.708  -5.051  0.00  0.00    +0.041 A 
ATOM     33  C   UNL     1      -4.380   1.327  -4.957  0.00  0.00    +0.020 A 
ATOM     34  C   UNL     1      -3.414   0.698  -4.200  0.00  0.00    +0.011 A 
ATOM     35 CL   UNL     1      -5.621   3.491  -6.006  0.00  0.00    -0.084 Cl
ENDBRANCH  28  29
ENDBRANCH  14  27
TORSDOF 4
