REMARK  Name = ZINC36801915
REMARK  8 active torsions:
REMARK  status: ('A' for Active; 'I' for Inactive)
REMARK    1  A    between atoms: C_3  and  O_31
REMARK    2  A    between atoms: C_6  and  C_7
REMARK    3  A    between atoms: C_10  and  S_13
REMARK    4  A    between atoms: N_11  and  N_12
REMARK    5  A    between atoms: S_13  and  C_14
REMARK    6  A    between atoms: C_14  and  C_15
REMARK    7  A    between atoms: N_20  and  C_21
REMARK    8  A    between atoms: O_31  and  C_32
REMARK                            x       y       z     vdW  Elec       q    Type
REMARK                         _______ _______ _______ _____ _____    ______ ____
ROOT
ATOM      1  S   UNL     1      -3.559  -3.902  -0.385  0.00  0.00    -0.075 S 
ENDROOT
BRANCH   1   5
ATOM      2  C   UNL     1      -1.267  -0.762   0.011  0.00  0.00    +0.182 A 
ATOM      3  N   UNL     1      -2.458  -0.288   0.293  0.00  0.00    -0.127 NA
ATOM      4  N   UNL     1      -3.335  -1.222   0.203  0.00  0.00    -0.121 NA
ATOM      5  C   UNL     1      -2.759  -2.351  -0.142  0.00  0.00    +0.209 A 
ATOM      6  N   UNL     1      -1.423  -2.098  -0.281  0.00  0.00    -0.224 N 
BRANCH   2  12
ATOM      7  C   UNL     1      -0.017   1.392   0.010  0.00  0.00    +0.015 A 
ATOM      8  C   UNL     1       1.169   2.095   0.002  0.00  0.00    +0.046 A 
ATOM      9  C   UNL     1       2.380   1.417  -0.013  0.00  0.00    +0.127 A 
ATOM     10  C   UNL     1       2.404   0.029  -0.021  0.00  0.00    +0.046 A 
ATOM     11  C   UNL     1       1.222  -0.682  -0.014  0.00  0.00    +0.015 A 
ATOM     12  C   UNL     1       0.002  -0.004   0.002  0.00  0.00    +0.021 A 
BRANCH   9  13
ATOM     13  O   UNL     1       3.547   2.115  -0.022  0.00  0.00    -0.434 OA
BRANCH  13  14
ATOM     14  C   UNL     1       4.757   1.355  -0.038  0.00  0.00    +0.541 C 
ATOM     15  F   UNL     1       4.812   0.542   1.100  0.00  0.00    -0.166 F 
ATOM     16  F   UNL     1       4.789   0.554  -1.185  0.00  0.00    -0.166 F 
ENDBRANCH  13  14
ENDBRANCH   9  13
ENDBRANCH   2  12
BRANCH   6  17
ATOM     17  N   UNL     1      -0.447  -2.985  -0.635  0.00  0.00    -0.295 N 
ATOM     18  H   UNL     1      -0.055  -3.434   0.179  0.00  0.00    +0.163 HD
ATOM     19  H   UNL     1      -0.798  -3.667  -1.290  0.00  0.00    +0.163 HD
ENDBRANCH   6  17
ENDBRANCH   1   5
BRANCH   1  20
ATOM     20  C   UNL     1      -5.307  -3.551  -0.051  0.00  0.00    +0.173 C 
BRANCH  20  21
ATOM     21  C   UNL     1      -6.115  -4.811  -0.226  0.00  0.00    +0.231 C 
ATOM     22  O   UNL     1      -5.566  -5.844  -0.544  0.00  0.00    -0.274 OA
ATOM     23  N   UNL     1      -7.448  -4.790  -0.028  0.00  0.00    -0.239 N 
ATOM     24  C   UNL     1      -8.170  -5.917  -0.184  0.00  0.00    +0.306 C 
ATOM     25  O   UNL     1      -7.620  -6.952  -0.503  0.00  0.00    -0.252 OA
ATOM     26  N   UNL     1      -9.503  -5.896   0.013  0.00  0.00    -0.294 N 
ATOM     27  H   UNL     1      -7.887  -3.963   0.226  0.00  0.00    +0.159 HD
ATOM     28  H   UNL     1      -9.943  -5.069   0.268  0.00  0.00    +0.151 HD
BRANCH  26  29
ATOM     29  C   UNL     1     -10.289  -7.120  -0.157  0.00  0.00    +0.037 C 
ATOM     30  C   UNL     1     -10.136  -7.630  -1.591  0.00  0.00    +0.029 C 
ATOM     31  C   UNL     1     -10.956  -8.909  -1.768  0.00  0.00    -0.008 C 
ATOM     32  C   UNL     1     -12.430  -8.613  -1.487  0.00  0.00    +0.007 C 
ATOM     33  C   UNL     1     -12.583  -8.104  -0.052  0.00  0.00    -0.008 C 
ATOM     34  C   UNL     1     -11.763  -6.824   0.125  0.00  0.00    +0.029 C 
ATOM     35  C   UNL     1     -12.082  -9.170   0.923  0.00  0.00    +0.007 C 
ATOM     36  C   UNL     1     -10.607  -9.466   0.642  0.00  0.00    -0.008 C 
ATOM     37  C   UNL     1     -10.454  -9.976  -0.793  0.00  0.00    +0.007 C 
ATOM     38  C   UNL     1      -9.787  -8.187   0.819  0.00  0.00    +0.029 C 
ENDBRANCH  26  29
ENDBRANCH  20  21
ENDBRANCH   1  20
TORSDOF 8
