REMARK  Name = ZINC10751907
REMARK  6 active torsions:
REMARK  status: ('A' for Active; 'I' for Inactive)
REMARK    1  A    between atoms: C_1  and  N_54
REMARK    2  A    between atoms: C_7  and  N_12
REMARK    3  A    between atoms: C_8  and  C_9
REMARK    4  A    between atoms: C_13  and  C_15
REMARK    5  A    between atoms: N_20  and  S_22
REMARK    6  A    between atoms: S_22  and  C_25
REMARK                            x       y       z     vdW  Elec       q    Type
REMARK                         _______ _______ _______ _____ _____    ______ ____
ROOT
ATOM      1  N   UNL     1      -0.862   3.337   1.472  0.00  0.00    -0.279 N 
ATOM      2  C   UNL     1      -0.723   2.014   1.251  0.00  0.00    +0.222 C 
ATOM      3  O   UNL     1      -1.165   1.216   2.050  0.00  0.00    -0.275 OA
ATOM      4  H   UNL     1      -0.508   3.975   0.833  0.00  0.00    +0.155 HD
ENDROOT
BRANCH   1  11
ATOM      5  C   UNL     1      -4.341   5.437   8.059  0.00  0.00    -0.096 C 
ATOM      6  C   UNL     1      -3.899   6.452   5.904  0.00  0.00    -0.074 C 
ATOM      7  C   UNL     1      -2.805   6.653   4.853  0.00  0.00    +0.018 C 
ATOM      8  C   UNL     1      -2.456   5.292   4.263  0.00  0.00    -0.027 A 
ATOM      9  C   UNL     1      -2.809   4.160   4.913  0.00  0.00    -0.021 A 
ATOM     10  S   UNL     1      -2.217   2.847   3.887  0.00  0.00    -0.079 S 
ATOM     11  C   UNL     1      -1.510   3.784   2.613  0.00  0.00    +0.084 A 
ATOM     12  C   UNL     1      -1.743   5.093   3.015  0.00  0.00    +0.068 A 
ATOM     13  C   UNL     1      -3.541   4.076   6.216  0.00  0.00    -0.036 C 
ATOM     14  N   UNL     1      -3.473   5.410   6.861  0.00  0.00    +0.381 N 
ATOM     15  H   UNL     1      -2.505   5.594   7.147  0.00  0.00    -0.082 HD
BRANCH  12  16
ATOM     16  C   UNL     1      -1.291   6.230   2.207  0.00  0.00    +0.244 C 
ATOM     17  O   UNL     1      -2.021   6.698   1.353  0.00  0.00    -0.270 OA
ATOM     18  N   UNL     1      -0.067   6.757   2.410  0.00  0.00    -0.325 N 
ATOM     19  H   UNL     1       0.514   6.384   3.091  0.00  0.00    +0.145 HD
ATOM     20  H   UNL     1       0.232   7.509   1.876  0.00  0.00    +0.145 HD
ENDBRANCH  12  16
ENDBRANCH   1  11
BRANCH   2  21
ATOM     21  C   UNL     1      -0.019   1.528   0.010  0.00  0.00    +0.091 C 
ATOM     22  C   UNL     1       1.419   2.053  -0.001  0.00  0.00    +0.015 C 
ATOM     23  C   UNL     1       2.124   1.587  -1.276  0.00  0.00    +0.018 C 
ATOM     24  C   UNL     1       2.170   0.056  -1.299  0.00  0.00    +0.109 C 
ATOM     25  N   UNL     1       0.803  -0.460  -1.143  0.00  0.00    -0.175 NA
ATOM     26  C   UNL     1       0.002  -0.004   0.002  0.00  0.00    +0.122 C 
BRANCH  25  27
ATOM     27  S   UNL     1       0.176  -1.534  -2.236  0.00  0.00    +0.067 S 
ATOM     28  O   UNL     1       1.282  -2.187  -2.843  0.00  0.00    -0.152 OA
ATOM     29  O   UNL     1      -0.853  -2.246  -1.562  0.00  0.00    -0.152 OA
BRANCH  27  30
ATOM     30  C   UNL     1      -0.609  -0.592  -3.501  0.00  0.00    +0.144 A 
ATOM     31  C   UNL     1      -0.085  -0.106  -4.652  0.00  0.00    +0.038 A 
ATOM     32  C   UNL     1      -0.898   0.612  -5.510  0.00  0.00    +0.030 A 
ATOM     33  C   UNL     1      -2.195   0.818  -5.166  0.00  0.00    +0.080 A 
ATOM     34  S   UNL     1      -2.298  -0.022  -3.595  0.00  0.00    -0.057 S 
ATOM     35 CL   UNL     1      -3.432   1.676  -6.031  0.00  0.00    -0.076 Cl
ENDBRANCH  27  30
ENDBRANCH  25  27
ENDBRANCH   2  21
TORSDOF 5
