REMARK  Name = ZINC49403873
REMARK  10 active torsions:
REMARK  status: ('A' for Active; 'I' for Inactive)
REMARK    1  A    between atoms: C_1  and  C_2
REMARK    2  A    between atoms: C_2  and  O_3
REMARK    3  A    between atoms: O_3  and  C_4
REMARK    4  A    between atoms: C_9  and  N_10
REMARK    5  A    between atoms: C_11  and  C_13
REMARK    6  A    between atoms: C_13  and  N_14
REMARK    7  A    between atoms: N_17  and  C_20
REMARK    8  A    between atoms: C_23  and  C_26
REMARK    9  A    between atoms: C_26  and  C_27
REMARK   10  A    between atoms: C_26  and  C_28
REMARK                            x       y       z     vdW  Elec       q    Type
REMARK                         _______ _______ _______ _____ _____    ______ ____
ROOT
ATOM      1  N   UNL     1       4.027  -1.821  -6.454  0.00  0.00    -0.275 N 
ATOM      2  C   UNL     1       5.422  -2.281  -6.372  0.00  0.00    +0.129 C 
ATOM      3  C   UNL     1       5.639  -3.040  -7.695  0.00  0.00    +0.134 C 
ATOM      4  N   UNL     1       4.343  -2.928  -8.382  0.00  0.00    -0.254 N 
ATOM      5  C   UNL     1       3.495  -2.234  -7.612  0.00  0.00    +0.310 C 
ATOM      6  O   UNL     1       2.348  -1.996  -7.937  0.00  0.00    -0.252 OA
ENDROOT
BRANCH   4   7
ATOM      7  C   UNL     1       4.042  -3.467  -9.638  0.00  0.00    +0.038 A 
ATOM      8  C   UNL     1       2.818  -3.198 -10.236  0.00  0.00    +0.024 A 
ATOM      9  C   UNL     1       2.524  -3.731 -11.476  0.00  0.00    +0.006 A 
ATOM     10  C   UNL     1       3.448  -4.532 -12.122  0.00  0.00    -0.045 A 
ATOM     11  C   UNL     1       4.668  -4.802 -11.530  0.00  0.00    +0.006 A 
ATOM     12  C   UNL     1       4.970  -4.268 -10.292  0.00  0.00    +0.024 A 
BRANCH  10  13
ATOM     13  C   UNL     1       3.124  -5.112 -13.474  0.00  0.00    +0.013 C 
ATOM     14  C   UNL     1       4.149  -4.622 -14.499  0.00  0.00    +0.012 C 
ATOM     15  C   UNL     1       3.169  -6.639 -13.398  0.00  0.00    +0.012 C 
ENDBRANCH  10  13
ENDBRANCH   4   7
BRANCH   1  16
ATOM     16  C   UNL     1       3.328  -1.042  -5.429  0.00  0.00    +0.205 C 
BRANCH  16  18
ATOM     17  N   UNL     1       1.956  -1.481  -3.419  0.00  0.00    -0.281 N 
ATOM     18  C   UNL     1       2.662  -1.978  -4.454  0.00  0.00    +0.235 C 
ATOM     19  O   UNL     1       2.761  -3.178  -4.601  0.00  0.00    -0.274 OA
ATOM     20  H   UNL     1       1.808  -0.525  -3.346  0.00  0.00    +0.155 HD
BRANCH  17  26
ATOM     21  C   UNL     1       0.326  -1.965  -1.695  0.00  0.00    +0.142 A 
ATOM     22  C   UNL     1      -0.188  -2.827  -0.740  0.00  0.00    +0.047 A 
ATOM     23  C   UNL     1       0.403  -4.059  -0.530  0.00  0.00    +0.004 A 
ATOM     24  C   UNL     1       1.507  -4.436  -1.272  0.00  0.00    +0.002 A 
ATOM     25  C   UNL     1       2.025  -3.582  -2.228  0.00  0.00    +0.027 A 
ATOM     26  C   UNL     1       1.435  -2.346  -2.447  0.00  0.00    +0.076 A 
BRANCH  21  27
ATOM     27  O   UNL     1      -0.254  -0.753  -1.903  0.00  0.00    -0.490 OA
BRANCH  27  29
ATOM     28  C   UNL     1      -1.900   0.963  -1.469  0.00  0.00    +0.048 C 
ATOM     29  C   UNL     1      -1.388  -0.429  -1.095  0.00  0.00    +0.226 C 
ENDBRANCH  27  29
ENDBRANCH  21  27
ENDBRANCH  17  26
ENDBRANCH  16  18
ENDBRANCH   1  16
TORSDOF 7
