REMARK  Name = ZINC36660373
REMARK  12 active torsions:
REMARK  status: ('A' for Active; 'I' for Inactive)
REMARK    1  A    between atoms: C_1  and  C_2
REMARK    2  A    between atoms: C_2  and  N_3
REMARK    3  A    between atoms: N_3  and  C_4
REMARK    4  A    between atoms: N_3  and  C_6
REMARK    5  A    between atoms: C_4  and  C_5
REMARK    6  A    between atoms: C_6  and  C_7
REMARK    7  A    between atoms: C_7  and  N_8
REMARK    8  A    between atoms: C_12  and  C_19
REMARK    9  A    between atoms: C_15  and  C_18
REMARK   10  A    between atoms: C_20  and  C_22
REMARK   11  A    between atoms: N_27  and  S_28
REMARK   12  A    between atoms: S_28  and  C_31
REMARK                            x       y       z     vdW  Elec       q    Type
REMARK                         _______ _______ _______ _____ _____    ______ ____
ROOT
ATOM      1  N   UNL     1      -0.650  -3.681  -1.952  0.00  0.00    -0.251 N 
ATOM      2  C   UNL     1      -0.391  -4.435  -0.819  0.00  0.00    +0.168 A 
ATOM      3  N   UNL     1      -0.308  -4.040   0.431  0.00  0.00    -0.224 NA
ATOM      4  C   UNL     1      -0.047  -4.893   1.445  0.00  0.00    +0.083 A 
ATOM      5  C   UNL     1       0.068  -4.600   2.824  0.00  0.00    -0.024 A 
ATOM      6  C   UNL     1       0.340  -5.592   3.730  0.00  0.00    +0.006 A 
ATOM      7  C   UNL     1       0.511  -6.910   3.332  0.00  0.00    +0.005 A 
ATOM      8  C   UNL     1       0.405  -7.232   1.992  0.00  0.00    -0.035 A 
ATOM      9  C   UNL     1       0.133  -6.246   1.077  0.00  0.00    +0.044 A 
ATOM     10  S   UNL     1      -0.092  -6.192  -0.684  0.00  0.00    -0.052 S 
ATOM     11  C   UNL     1       0.588  -8.658   1.538  0.00  0.00    +0.045 C 
ATOM     12  C   UNL     1      -0.109  -3.182   3.302  0.00  0.00    +0.046 C 
ATOM     13  C   UNL     1      -0.809  -4.290  -3.144  0.00  0.00    +0.240 C 
ATOM     14  O   UNL     1      -0.943  -3.627  -4.151  0.00  0.00    -0.273 OA
ENDROOT
BRANCH  13  15
ATOM     15  C   UNL     1      -0.821  -5.795  -3.226  0.00  0.00    +0.166 C 
ATOM     16  C   UNL     1      -2.118  -6.345  -2.596  0.00  0.00    +0.031 C 
ATOM     17  C   UNL     1      -3.035  -6.568  -3.827  0.00  0.00    +0.019 C 
ATOM     18  C   UNL     1      -2.013  -7.023  -4.898  0.00  0.00    +0.110 C 
ATOM     19  N   UNL     1      -0.802  -6.219  -4.633  0.00  0.00    -0.165 NA
BRANCH  19  20
ATOM     20  S   UNL     1       0.379  -5.854  -5.736  0.00  0.00    +0.062 S 
ATOM     21  O   UNL     1      -0.222  -5.947  -7.020  0.00  0.00    -0.153 OA
ATOM     22  O   UNL     1       1.012  -4.668  -5.275  0.00  0.00    -0.153 OA
BRANCH  20  23
ATOM     23  C   UNL     1       1.586  -7.135  -5.650  0.00  0.00    +0.106 A 
ATOM     24  C   UNL     1       2.649  -7.025  -4.773  0.00  0.00    +0.031 A 
ATOM     25  C   UNL     1       3.596  -8.029  -4.705  0.00  0.00    +0.040 A 
ATOM     26  C   UNL     1       3.479  -9.146  -5.515  0.00  0.00    +0.124 A 
ATOM     27  C   UNL     1       2.414  -9.255  -6.393  0.00  0.00    +0.040 A 
ATOM     28  C   UNL     1       1.466  -8.252  -6.456  0.00  0.00    +0.031 A 
ATOM     29  F   UNL     1       4.405 -10.128  -5.450  0.00  0.00    -0.205 F 
ENDBRANCH  20  23
ENDBRANCH  19  20
ENDBRANCH  13  15
BRANCH   1  30
ATOM     30  C   UNL     1      -0.750  -2.223  -1.855  0.00  0.00    +0.097 C 
BRANCH  30  31
ATOM     31  C   UNL     1       0.631  -1.601  -2.069  0.00  0.00    -0.059 C 
BRANCH  31  32
ATOM     32  N   UNL     1       0.530  -0.139  -1.972  0.00  0.00    +0.380 N 
ATOM     33  H   UNL     1      -0.166   0.194  -2.622  0.00  0.00    -0.082 HD
BRANCH  32  35
ATOM     34  C   UNL     1      -0.101   1.744  -0.540  0.00  0.00    -0.017 C 
ATOM     35  C   UNL     1       0.143   0.235  -0.606  0.00  0.00    -0.082 C 
ENDBRANCH  32  35
BRANCH  32  36
ATOM     36  C   UNL     1       1.830   0.464  -2.295  0.00  0.00    -0.082 C 
ATOM     37  C   UNL     1       2.166   0.196  -3.764  0.00  0.00    -0.017 C 
ENDBRANCH  32  36
ENDBRANCH  31  32
ENDBRANCH  30  31
ENDBRANCH   1  30
TORSDOF 8
