REMARK  Name = ZINC12148888
REMARK  10 active torsions:
REMARK  status: ('A' for Active; 'I' for Inactive)
REMARK    1  A    between atoms: C_1  and  N_70
REMARK    2  A    between atoms: C_2  and  C_3
REMARK    3  A    between atoms: C_2  and  N_70
REMARK    4  A    between atoms: C_6  and  O_9
REMARK    5  A    between atoms: O_9  and  C_10
REMARK    6  A    between atoms: C_10  and  C_11
REMARK    7  A    between atoms: C_18  and  C_20
REMARK    8  A    between atoms: C_20  and  C_21
REMARK    9  A    between atoms: C_26  and  C_27
REMARK   10  A    between atoms: C_26  and  N_70
REMARK                            x       y       z     vdW  Elec       q    Type
REMARK                         _______ _______ _______ _____ _____    ______ ____
ROOT
ATOM      1  C   UNL     1      -4.315  -4.044  -9.471  0.00  0.00    -0.064 A 
ATOM      2  C   UNL     1      -3.024  -3.816  -9.030  0.00  0.00    +0.005 A 
ATOM      3  C   UNL     1      -2.764  -3.717  -7.676  0.00  0.00    +0.046 A 
ATOM      4  C   UNL     1      -3.798  -3.847  -6.761  0.00  0.00    +0.121 A 
ATOM      5  C   UNL     1      -5.090  -4.081  -7.206  0.00  0.00    +0.046 A 
ATOM      6  C   UNL     1      -5.347  -4.173  -8.561  0.00  0.00    +0.005 A 
ENDROOT
BRANCH   1   7
ATOM      7  C   UNL     1      -4.596  -4.151 -10.948  0.00  0.00    -0.043 C 
BRANCH   7   9
ATOM      8  C   UNL     1      -5.506  -6.386 -10.755  0.00  0.00    -0.095 C 
ATOM      9  N   UNL     1      -4.440  -5.561 -11.362  0.00  0.00    +0.383 N 
ATOM     10  H   UNL     1      -3.528  -5.905 -11.039  0.00  0.00    -0.081 HD
BRANCH   9  11
ATOM     11  C   UNL     1      -4.498  -5.665 -12.835  0.00  0.00    -0.042 C 
BRANCH  11  12
ATOM     12  C   UNL     1      -3.982  -7.019 -13.246  0.00  0.00    -0.056 A 
ATOM     13  C   UNL     1      -4.847  -7.985 -13.660  0.00  0.00    +0.002 A 
ATOM     14  C   UNL     1      -4.387  -9.241 -14.050  0.00  0.00    +0.001 A 
ATOM     15  C   UNL     1      -3.060  -9.543 -14.016  0.00  0.00    +0.008 A 
ATOM     16  C   UNL     1      -2.137  -8.574 -13.588  0.00  0.00    -0.018 A 
ATOM     17  C   UNL     1      -2.604  -7.294 -13.198  0.00  0.00    -0.017 A 
ATOM     18  C   UNL     1      -1.681  -6.325 -12.769  0.00  0.00    +0.009 A 
ATOM     19  C   UNL     1      -0.355  -6.628 -12.734  0.00  0.00    +0.001 A 
ATOM     20  C   UNL     1       0.104  -7.887 -13.118  0.00  0.00    +0.001 A 
ATOM     21  C   UNL     1      -0.760  -8.850 -13.539  0.00  0.00    +0.008 A 
ENDBRANCH  11  12
ENDBRANCH   9  11
ENDBRANCH   7   9
ENDBRANCH   1   7
BRANCH   4  22
ATOM     22  O   UNL     1      -3.544  -3.750  -5.429  0.00  0.00    -0.492 OA
BRANCH  22  23
ATOM     23  C   UNL     1      -4.657  -3.894  -4.544  0.00  0.00    +0.234 C 
BRANCH  23  24
ATOM     24  C   UNL     1      -4.179  -3.756  -3.097  0.00  0.00    +0.044 C 
ATOM     25  C   UNL     1      -5.345  -4.033  -2.146  0.00  0.00    +0.010 C 
ATOM     26  C   UNL     1      -4.861  -3.928  -0.698  0.00  0.00    +0.019 C 
ATOM     27  C   UNL     1      -4.350  -2.507  -0.437  0.00  0.00    +0.108 C 
ATOM     28  N   UNL     1      -3.329  -2.179  -1.440  0.00  0.00    -0.301 N 
ATOM     29  C   UNL     1      -3.663  -2.328  -2.864  0.00  0.00    +0.114 C 
ATOM     30  C   UNL     1      -2.110  -1.745  -1.063  0.00  0.00    +0.220 C 
ATOM     31  O   UNL     1      -1.275  -1.478  -1.901  0.00  0.00    -0.275 OA
BRANCH  30  32
ATOM     32  C   UNL     1      -1.784  -1.592   0.400  0.00  0.00    +0.131 C 
BRANCH  32  33
ATOM     33  C   UNL     1      -0.369  -1.095   0.551  0.00  0.00    -0.032 A 
ATOM     34  C   UNL     1      -0.102   0.260   0.590  0.00  0.00    +0.011 A 
ATOM     35  C   UNL     1       1.182   0.673   0.727  0.00  0.00    +0.045 A 
ATOM     36  S   UNL     1       2.062  -0.878   0.805  0.00  0.00    -0.105 S 
ATOM     37  C   UNL     1       0.660  -1.972   0.650  0.00  0.00    +0.049 A 
ENDBRANCH  32  33
ENDBRANCH  30  32
ENDBRANCH  23  24
ENDBRANCH  22  23
ENDBRANCH   4  22
TORSDOF 9
