REMARK  Name = ZINC19791744
REMARK  6 active torsions:
REMARK  status: ('A' for Active; 'I' for Inactive)
REMARK    1  A    between atoms: C_1  and  C_2
REMARK    2  A    between atoms: C_3  and  C_21
REMARK    3  A    between atoms: N_7  and  N_8
REMARK    4  A    between atoms: C_9  and  C_10
REMARK    5  A    between atoms: C_19  and  O_20
REMARK    6  A    between atoms: C_21  and  C_23
REMARK                            x       y       z     vdW  Elec       q    Type
REMARK                         _______ _______ _______ _____ _____    ______ ____
ROOT
ATOM      1  N   UNL     1      -1.242   1.649   0.097  0.00  0.00    -0.188 NA
ATOM      2  C   UNL     1      -2.349   0.989  -0.080  0.00  0.00    +0.142 C 
ENDROOT
BRANCH   2   3
ATOM      3  C   UNL     1      -2.334  -0.481  -0.088  0.00  0.00    +0.044 A 
ATOM      4  C   UNL     1      -2.868  -1.227  -1.226  0.00  0.00    -0.006 A 
ATOM      5  C   UNL     1      -3.398  -0.572  -2.344  0.00  0.00    +0.009 A 
ATOM      6  C   UNL     1      -3.882  -1.305  -3.387  0.00  0.00    +0.001 A 
ATOM      7  C   UNL     1      -3.851  -2.697  -3.358  0.00  0.00    +0.001 A 
ATOM      8  C   UNL     1      -3.337  -3.365  -2.289  0.00  0.00    +0.008 A 
ATOM      9  C   UNL     1      -2.830  -2.642  -1.196  0.00  0.00    -0.017 A 
ATOM     10  C   UNL     1      -2.292  -3.297  -0.074  0.00  0.00    +0.012 A 
ATOM     11  C   UNL     1      -1.804  -2.588   0.978  0.00  0.00    +0.046 A 
ATOM     12  C   UNL     1      -1.815  -1.194   0.992  0.00  0.00    +0.126 A 
BRANCH  12  13
ATOM     13  O   UNL     1      -1.317  -0.527   2.065  0.00  0.00    -0.506 OA
ATOM     14  H   UNL     1      -0.907  -1.086   2.919  0.00  0.00    +0.292 HD
ENDBRANCH  12  13
ENDBRANCH   2   3
BRANCH   1  21
ATOM     15  C   UNL     1       2.718   5.005   0.427  0.00  0.00    +0.067 C 
ATOM     16  C   UNL     1       2.527   3.512   0.367  0.00  0.00    +0.058 A 
ATOM     17  C   UNL     1       3.618   2.644   0.398  0.00  0.00    +0.078 A 
ATOM     18  S   UNL     1       2.784   1.066   0.301  0.00  0.00    -0.048 S 
ATOM     19  C   UNL     1       1.158   1.672   0.233  0.00  0.00    +0.179 A 
ATOM     20  N   UNL     1       1.337   2.986   0.281  0.00  0.00    -0.228 NA
ATOM     21  N   UNL     1      -0.020   0.967   0.146  0.00  0.00    -0.215 N 
ATOM     22  H   UNL     1      -0.002  -0.133   0.115  0.00  0.00    +0.176 HD
BRANCH  17  23
ATOM     23  C   UNL     1       4.993   2.930   0.481  0.00  0.00    +0.168 C 
ATOM     24  O   UNL     1       5.371   4.084   0.539  0.00  0.00    -0.292 OA
ATOM     25  C   UNL     1       5.997   1.806   0.499  0.00  0.00    +0.092 C 
ENDBRANCH  17  23
ENDBRANCH   1  21
TORSDOF 4
