REMARK  Name = ZINC11614727
REMARK  16 active torsions:
REMARK  status: ('A' for Active; 'I' for Inactive)
REMARK    1  A    between atoms: C_1  and  C_2
REMARK    2  A    between atoms: C_2  and  C_3
REMARK    3  A    between atoms: C_3  and  O_4
REMARK    4  A    between atoms: O_4  and  C_5
REMARK    5  A    between atoms: C_8  and  C_13
REMARK    6  A    between atoms: C_10  and  O_11
REMARK    7  A    between atoms: O_11  and  C_12
REMARK    8  A    between atoms: C_20  and  C_36
REMARK    9  A    between atoms: N_28  and  C_29
REMARK   10  A    between atoms: C_29  and  C_30
REMARK   11  A    between atoms: C_30  and  C_31
REMARK   12  A    between atoms: C_31  and  N_72
REMARK   13  A    between atoms: C_32  and  C_33
REMARK   14  A    between atoms: C_32  and  N_72
REMARK   15  A    between atoms: C_34  and  C_35
REMARK   16  A    between atoms: C_34  and  N_72
REMARK                            x       y       z     vdW  Elec       q    Type
REMARK                         _______ _______ _______ _____ _____    ______ ____
ROOT
ATOM      1  C   UNL     1      -0.749   5.099  -0.164  0.00  0.00    +0.145 C 
ATOM      2  C   UNL     1       0.406   4.164  -0.409  0.00  0.00    +0.072 A 
ATOM      3  C   UNL     1       0.530   2.704  -0.360  0.00  0.00    +0.199 A 
ATOM      4  O   UNL     1      -0.417   1.991  -0.077  0.00  0.00    -0.287 OA
ATOM      5  C   UNL     1       1.858   2.141  -0.674  0.00  0.00    +0.065 A 
ATOM      6  C   UNL     1       2.087   0.766  -0.662  0.00  0.00    +0.018 A 
ATOM      7  C   UNL     1       3.333   0.286  -0.953  0.00  0.00    -0.050 A 
ATOM      8  C   UNL     1       4.367   1.159  -1.262  0.00  0.00    +0.007 A 
ATOM      9  C   UNL     1       4.159   2.521  -1.279  0.00  0.00    +0.047 A 
ATOM     10  C   UNL     1       2.898   3.034  -0.985  0.00  0.00    +0.139 A 
ATOM     11  O   UNL     1       2.678   4.361  -0.998  0.00  0.00    -0.450 OA
ATOM     12  C   UNL     1       1.485   4.923  -0.723  0.00  0.00    +0.199 A 
ATOM     13  C   UNL     1       1.077   6.349  -0.693  0.00  0.00    +0.283 C 
ATOM     14  O   UNL     1       1.812   7.288  -0.928  0.00  0.00    -0.267 OA
ATOM     15  N   UNL     1      -0.223   6.454  -0.367  0.00  0.00    -0.284 N 
ATOM     16  C   UNL     1       3.586  -1.200  -0.941  0.00  0.00    +0.044 C 
ENDROOT
BRANCH   1  20
ATOM     17  C   UNL     1      -3.897   4.311  -2.950  0.00  0.00    +0.162 A 
ATOM     18  C   UNL     1      -2.768   5.005  -3.354  0.00  0.00    +0.050 A 
ATOM     19  C   UNL     1      -1.752   5.259  -2.451  0.00  0.00    +0.009 A 
ATOM     20  C   UNL     1      -1.860   4.821  -1.144  0.00  0.00    -0.019 A 
ATOM     21  C   UNL     1      -2.981   4.123  -0.736  0.00  0.00    +0.055 A 
ATOM     22  C   UNL     1      -4.005   3.871  -1.634  0.00  0.00    +0.162 A 
BRANCH  22  23
ATOM     23  O   UNL     1      -5.112   3.189  -1.233  0.00  0.00    -0.491 OA
ATOM     24  C   UNL     1      -5.154   2.768   0.132  0.00  0.00    +0.277 C 
ENDBRANCH  22  23
BRANCH  17  25
ATOM     25  O   UNL     1      -4.897   4.061  -3.837  0.00  0.00    -0.488 OA
BRANCH  25  26
ATOM     26  C   UNL     1      -4.717   4.542  -5.170  0.00  0.00    +0.229 C 
BRANCH  26  28
ATOM     27  C   UNL     1      -5.742   4.684  -7.444  0.00  0.00    +0.007 C 
ATOM     28  C   UNL     1      -5.935   4.168  -6.016  0.00  0.00    +0.038 C 
ENDBRANCH  26  28
ENDBRANCH  25  26
ENDBRANCH  17  25
ENDBRANCH   1  20
BRANCH  15  29
ATOM     29  C   UNL     1      -0.981   7.701  -0.239  0.00  0.00    +0.107 C 
BRANCH  29  30
ATOM     30  C   UNL     1      -1.600   8.064  -1.590  0.00  0.00    +0.000 C 
BRANCH  30  31
ATOM     31  C   UNL     1      -2.392   9.366  -1.456  0.00  0.00    -0.077 C 
BRANCH  31  32
ATOM     32  N   UNL     1      -2.965   9.714  -2.773  0.00  0.00    +0.379 N 
ATOM     33  H   UNL     1      -2.217   9.698  -3.477  0.00  0.00    -0.082 HD
BRANCH  32  34
ATOM     34  C   UNL     1      -3.999   8.728  -3.150  0.00  0.00    -0.082 C 
ATOM     35  C   UNL     1      -5.121   8.704  -2.110  0.00  0.00    -0.017 C 
ENDBRANCH  32  34
BRANCH  32  36
ATOM     36  C   UNL     1      -3.551  11.070  -2.727  0.00  0.00    -0.082 C 
ATOM     37  C   UNL     1      -3.801  11.546  -4.159  0.00  0.00    -0.017 C 
ENDBRANCH  32  36
ENDBRANCH  31  32
ENDBRANCH  30  31
ENDBRANCH  29  30
ENDBRANCH  15  29
TORSDOF 11
