REMARK  Name = ZINC23451073
REMARK  10 active torsions:
REMARK  status: ('A' for Active; 'I' for Inactive)
REMARK    1  A    between atoms: C_1  and  C_2
REMARK    2  A    between atoms: C_7  and  C_8
REMARK    3  A    between atoms: N_13  and  C_16
REMARK    4  A    between atoms: C_16  and  C_17
REMARK    5  A    between atoms: C_17  and  C_19
REMARK    6  A    between atoms: C_17  and  O_30
REMARK    7  A    between atoms: C_23  and  N_25
REMARK    8  A    between atoms: O_30  and  C_31
REMARK    9  A    between atoms: C_31  and  C_32
REMARK   10  A    between atoms: C_35  and  C_38
REMARK                            x       y       z     vdW  Elec       q    Type
REMARK                         _______ _______ _______ _____ _____    ______ ____
ROOT
ATOM      1  C   UNL     1      -2.392   4.890   3.522  0.00  0.00    +0.132 C 
ENDROOT
BRANCH   1   2
ATOM      2  C   UNL     1      -2.656   3.414   3.666  0.00  0.00    -0.019 A 
ATOM      3  C   UNL     1      -3.305   2.935   4.789  0.00  0.00    +0.006 A 
ATOM      4  C   UNL     1      -3.549   1.581   4.926  0.00  0.00    +0.002 A 
ATOM      5  C   UNL     1      -3.144   0.702   3.941  0.00  0.00    +0.023 A 
ATOM      6  C   UNL     1      -2.492   1.179   2.811  0.00  0.00    +0.030 A 
ATOM      7  C   UNL     1      -2.244   2.540   2.679  0.00  0.00    +0.029 A 
BRANCH   6   8
ATOM      8  N   UNL     1      -2.081   0.293   1.813  0.00  0.00    -0.330 N 
ATOM      9  C   UNL     1      -2.799   0.555   0.540  0.00  0.00    +0.105 C 
ATOM     10  C   UNL     1      -1.887  -0.105  -0.524  0.00  0.00    +0.020 C 
ATOM     11  C   UNL     1      -0.465   0.198   0.003  0.00  0.00    +0.020 C 
ATOM     12  C   UNL     1      -0.644   0.467   1.509  0.00  0.00    +0.105 C 
ENDBRANCH   6   8
ENDBRANCH   1   2
BRANCH   1  13
ATOM     13  C   UNL     1      -3.663   5.591   3.039  0.00  0.00    -0.042 C 
BRANCH  13  19
ATOM     14  C   UNL     1      -3.661  10.623   1.010  0.00  0.00    +0.247 C 
ATOM     15  O   UNL     1      -2.824  10.934   0.185  0.00  0.00    -0.270 OA
ATOM     16  N   UNL     1      -3.417   9.614   1.870  0.00  0.00    -0.301 N 
ATOM     17  C   UNL     1      -2.189   8.811   1.763  0.00  0.00    +0.089 C 
ATOM     18  C   UNL     1      -2.577   7.329   1.750  0.00  0.00    -0.059 C 
ATOM     19  N   UNL     1      -3.413   7.034   2.921  0.00  0.00    +0.384 N 
ATOM     20  C   UNL     1      -4.674   7.785   2.879  0.00  0.00    -0.059 C 
ATOM     21  C   UNL     1      -4.372   9.287   2.939  0.00  0.00    +0.089 C 
ATOM     22  H   UNL     1      -2.861   7.357   3.816  0.00  0.00    -0.082 HD
BRANCH  14  29
ATOM     23  C   UNL     1      -5.295  10.838  -1.367  0.00  0.00    +0.044 C 
ATOM     24  C   UNL     1      -5.743  11.461  -0.070  0.00  0.00    -0.038 A 
ATOM     25  C   UNL     1      -6.942  12.142  -0.009  0.00  0.00    +0.007 A 
ATOM     26  C   UNL     1      -7.355  12.716   1.180  0.00  0.00    +0.038 A 
ATOM     27  C   UNL     1      -6.569  12.612   2.317  0.00  0.00    +0.124 A 
ATOM     28  C   UNL     1      -5.369  11.928   2.269  0.00  0.00    +0.051 A 
ATOM     29  C   UNL     1      -4.946  11.352   1.070  0.00  0.00    +0.043 A 
ATOM     30  F   UNL     1      -6.978  13.175   3.474  0.00  0.00    -0.205 F 
ENDBRANCH  14  29
ENDBRANCH  13  19
ENDBRANCH   1  13
BRANCH   1  31
ATOM     31  O   UNL     1      -2.001   5.430   4.786  0.00  0.00    -0.369 OA
BRANCH  31  32
ATOM     32  C   UNL     1      -0.592   5.399   5.021  0.00  0.00    +0.195 C 
BRANCH  32  33
ATOM     33  C   UNL     1      -0.295   5.989   6.375  0.00  0.00    -0.022 A 
ATOM     34  C   UNL     1      -0.046   7.345   6.496  0.00  0.00    +0.007 A 
ATOM     35  C   UNL     1       0.221   7.893   7.733  0.00  0.00    +0.019 A 
ATOM     36  C   UNL     1       0.252   7.074   8.864  0.00  0.00    +0.052 A 
ATOM     37  C   UNL     1       0.005   5.706   8.734  0.00  0.00    +0.019 A 
ATOM     38  C   UNL     1      -0.266   5.172   7.491  0.00  0.00    +0.007 A 
BRANCH  36  39
ATOM     39  C   UNL     1       0.534   7.635  10.151  0.00  0.00    +0.099 C 
ATOM     40  N   UNL     1       0.758   8.080  11.172  0.00  0.00    -0.191 NA
ENDBRANCH  36  39
ENDBRANCH  32  33
ENDBRANCH  31  32
ENDBRANCH   1  31
TORSDOF 9
