REMARK  Name = ZINC29130414
REMARK  11 active torsions:
REMARK  status: ('A' for Active; 'I' for Inactive)
REMARK    1  A    between atoms: C_1  and  O_2
REMARK    2  A    between atoms: O_2  and  C_3
REMARK    3  A    between atoms: C_6  and  C_9
REMARK    4  A    between atoms: C_9  and  C_11
REMARK    5  A    between atoms: C_9  and  C_35
REMARK    6  A    between atoms: C_14  and  O_17
REMARK    7  A    between atoms: O_17  and  C_18
REMARK    8  A    between atoms: C_18  and  C_19
REMARK    9  A    between atoms: C_19  and  C_21
REMARK   10  A    between atoms: C_19  and  O_34
REMARK   11  A    between atoms: C_21  and  N_22
REMARK                            x       y       z     vdW  Elec       q    Type
REMARK                         _______ _______ _______ _____ _____    ______ ____
ROOT
ATOM      1  C   UNL     1      -0.389  15.776  -4.284  0.00  0.00    -0.035 A 
ATOM      2  C   UNL     1      -1.173  14.983  -5.101  0.00  0.00    +0.008 A 
ATOM      3  C   UNL     1      -1.281  13.628  -4.853  0.00  0.00    +0.046 A 
ATOM      4  C   UNL     1      -0.602  13.064  -3.784  0.00  0.00    +0.121 A 
ATOM      5  C   UNL     1       0.180  13.863  -2.962  0.00  0.00    +0.046 A 
ATOM      6  C   UNL     1       0.289  15.216  -3.217  0.00  0.00    +0.008 A 
ENDROOT
BRANCH   1   7
ATOM      7  C   UNL     1      -0.273  17.254  -4.556  0.00  0.00    +0.086 C 
BRANCH   7  11
ATOM      8  C   UNL     1       3.729  18.175  -5.739  0.00  0.00    +0.120 A 
ATOM      9  C   UNL     1       2.688  18.313  -6.645  0.00  0.00    +0.046 A 
ATOM     10  C   UNL     1       1.395  18.014  -6.260  0.00  0.00    +0.008 A 
ATOM     11  C   UNL     1       1.138  17.578  -4.973  0.00  0.00    -0.035 A 
ATOM     12  C   UNL     1       2.174  17.446  -4.066  0.00  0.00    +0.008 A 
ATOM     13  C   UNL     1       3.469  17.737  -4.448  0.00  0.00    +0.046 A 
BRANCH   8  15
ATOM     14  C   UNL     1       6.024  18.303  -5.129  0.00  0.00    +0.277 C 
ATOM     15  O   UNL     1       5.002  18.468  -6.114  0.00  0.00    -0.495 OA
ENDBRANCH   8  15
ENDBRANCH   7  11
BRANCH   7  16
ATOM     16  C   UNL     1      -0.617  18.023  -3.307  0.00  0.00    +0.001 A 
ATOM     17  C   UNL     1      -1.599  18.938  -3.112  0.00  0.00    +0.012 A 
ATOM     18  C   UNL     1      -1.733  19.521  -1.865  0.00  0.00    +0.008 A 
ATOM     19  C   UNL     1      -0.872  19.169  -0.879  0.00  0.00    +0.045 A 
ATOM     20  S   UNL     1       0.166  17.974  -1.704  0.00  0.00    -0.101 S 
ENDBRANCH   7  16
ENDBRANCH   1   7
BRANCH   4  21
ATOM     21  O   UNL     1      -0.706  11.731  -3.538  0.00  0.00    -0.489 OA
BRANCH  21  22
ATOM     22  C   UNL     1       0.021  11.219  -2.420  0.00  0.00    +0.261 C 
BRANCH  22  23
ATOM     23  C   UNL     1      -0.218   9.712  -2.303  0.00  0.00    +0.166 C 
BRANCH  23  24
ATOM     24  O   UNL     1      -1.594   9.470  -2.002  0.00  0.00    -0.387 OA
ATOM     25  H   UNL     1      -1.957   8.439  -1.880  0.00  0.00    +0.210 HD
ENDBRANCH  23  24
BRANCH  23  26
ATOM     26  C   UNL     1       0.657   9.142  -1.184  0.00  0.00    +0.119 C 
BRANCH  26  27
ATOM     27  N   UNL     1       0.537   7.678  -1.167  0.00  0.00    -0.297 NA
ATOM     28  C   UNL     1      -0.739   7.261  -0.569  0.00  0.00    +0.103 C 
ATOM     29  C   UNL     1      -0.790   5.733  -0.497  0.00  0.00    +0.122 C 
ATOM     30  N   UNL     1      -0.638   5.176  -1.849  0.00  0.00    -0.314 N 
ATOM     31  C   UNL     1       0.638   5.593  -2.447  0.00  0.00    +0.122 C 
ATOM     32  C   UNL     1       0.689   7.121  -2.519  0.00  0.00    +0.103 C 
ATOM     33  C   UNL     1      -0.751   3.791  -1.832  0.00  0.00    +0.099 A 
ATOM     34  C   UNL     1      -0.636   3.076  -3.020  0.00  0.00    +0.042 A 
ATOM     35  C   UNL     1      -0.746   1.697  -2.989  0.00  0.00    +0.005 A 
ATOM     36  C   UNL     1      -0.978   1.079  -1.768  0.00  0.00    +0.018 A 
ATOM     37  C   UNL     1      -1.081   1.850  -0.628  0.00  0.00    +0.084 A 
ATOM     38  N   UNL     1      -0.968   3.163  -0.687  0.00  0.00    -0.350 N 
ATOM     39  H   UNL     1      -1.057   3.739   0.247  0.00  0.00    +0.166 HD
ENDBRANCH  26  27
ENDBRANCH  23  26
ENDBRANCH  22  23
ENDBRANCH  21  22
ENDBRANCH   4  21
TORSDOF 10
