REMARK  Name = ZINC04787387
REMARK  17 active torsions:
REMARK  status: ('A' for Active; 'I' for Inactive)
REMARK    1  A    between atoms: C_1  and  C_2
REMARK    2  A    between atoms: C_7  and  C_19
REMARK    3  A    between atoms: C_9  and  C_13
REMARK    4  A    between atoms: C_10  and  C_12
REMARK    5  A    between atoms: C_13  and  O_15
REMARK    6  A    between atoms: O_15  and  C_16
REMARK    7  A    between atoms: C_16  and  C_17
REMARK    8  A    between atoms: C_16  and  C_18
REMARK    9  A    between atoms: C_22  and  O_29
REMARK   10  A    between atoms: C_23  and  O_27
REMARK   11  A    between atoms: C_24  and  O_25
REMARK   12  A    between atoms: O_25  and  C_26
REMARK   13  A    between atoms: O_27  and  C_28
REMARK   14  A    between atoms: O_29  and  C_30
REMARK   15  A    between atoms: C_33  and  C_35
REMARK   16  A    between atoms: C_35  and  O_37
REMARK   17  A    between atoms: O_37  and  C_38
REMARK                            x       y       z     vdW  Elec       q    Type
REMARK                         _______ _______ _______ _____ _____    ______ ____
ROOT
ATOM      1  C   UNL     1      -0.137   1.055  -0.082  0.00  0.00    +0.009 C 
ATOM      2  C   UNL     1       0.058  -0.441   0.174  0.00  0.00    +0.013 C 
ATOM      3  C   UNL     1      -1.291  -1.087   0.497  0.00  0.00    +0.055 C 
ATOM      4  C   UNL     1      -1.862  -0.468   1.748  0.00  0.00    +0.016 C 
ATOM      5  C   UNL     1      -1.055  -0.001   2.724  0.00  0.00    +0.025 C 
ATOM      6  C   UNL     1      -1.634   0.605   3.978  0.00  0.00    +0.096 C 
ATOM      7  C   UNL     1      -3.070   0.989   3.777  0.00  0.00    +0.065 C 
ATOM      8  C   UNL     1      -3.790   0.488   2.758  0.00  0.00    +0.016 C 
ATOM      9  N   UNL     1      -3.223  -0.386   1.873  0.00  0.00    -0.321 N 
ATOM     10  C   UNL     1      -5.233   0.891   2.592  0.00  0.00    +0.061 C 
ATOM     11  C   UNL     1       0.344  -0.064   2.600  0.00  0.00    +0.176 C 
ATOM     12  O   UNL     1       1.042   0.356   3.502  0.00  0.00    -0.291 OA
ATOM     13  C   UNL     1       0.997  -0.641   1.369  0.00  0.00    +0.171 C 
ATOM     14  H   UNL     1      -3.791  -0.953   1.328  0.00  0.00    +0.152 HD
ENDROOT
BRANCH   6  15
ATOM     15  C   UNL     1      -1.543  -0.397   5.100  0.00  0.00    +0.010 A 
ATOM     16  C   UNL     1      -2.257  -1.579   5.029  0.00  0.00    +0.012 A 
ATOM     17  C   UNL     1      -2.178  -2.501   6.055  0.00  0.00    +0.050 A 
ATOM     18  C   UNL     1      -1.380  -2.245   7.160  0.00  0.00    +0.165 A 
ATOM     19  C   UNL     1      -0.660  -1.058   7.235  0.00  0.00    +0.204 A 
ATOM     20  C   UNL     1      -0.739  -0.136   6.199  0.00  0.00    +0.169 A 
BRANCH  20  21
ATOM     21  O   UNL     1      -0.033   1.025   6.265  0.00  0.00    -0.491 OA
ATOM     22  C   UNL     1      -0.656   2.127   6.926  0.00  0.00    +0.277 C 
ENDBRANCH  20  21
BRANCH  19  23
ATOM     23  O   UNL     1       0.123  -0.803   8.318  0.00  0.00    -0.488 OA
ATOM     24  C   UNL     1       1.481  -1.242   8.254  0.00  0.00    +0.277 C 
ENDBRANCH  19  23
BRANCH  18  25
ATOM     25  O   UNL     1      -1.303  -3.153   8.170  0.00  0.00    -0.491 OA
ATOM     26  C   UNL     1      -2.070  -4.349   8.026  0.00  0.00    +0.277 C 
ENDBRANCH  18  25
ENDBRANCH   6  15
BRANCH   7  27
ATOM     27  C   UNL     1      -3.678   1.897   4.675  0.00  0.00    +0.338 C 
ATOM     28  O   UNL     1      -4.023   1.520   5.780  0.00  0.00    -0.245 OA
BRANCH  27  29
ATOM     29  O   UNL     1      -3.875   3.180   4.308  0.00  0.00    -0.459 OA
BRANCH  29  30
ATOM     30  C   UNL     1      -4.389   4.068   5.303  0.00  0.00    +0.171 C 
ATOM     31  C   UNL     1      -3.961   5.501   4.978  0.00  0.00    +0.052 C 
ATOM     32  C   UNL     1      -5.917   3.984   5.321  0.00  0.00    +0.052 C 
ENDBRANCH  29  30
ENDBRANCH  27  29
ENDBRANCH   7  27
BRANCH  13  33
ATOM     33  C   UNL     1       2.304   0.062   1.106  0.00  0.00    +0.318 C 
ATOM     34  O   UNL     1       2.471   1.193   1.498  0.00  0.00    -0.250 OA
BRANCH  33  35
ATOM     35  O   UNL     1       3.282  -0.568   0.438  0.00  0.00    -0.467 OA
ATOM     36  C   UNL     1       4.495   0.158   0.225  0.00  0.00    +0.280 C 
ENDBRANCH  33  35
ENDBRANCH  13  33
TORSDOF 9
