REMARK  Name = ZINC15674236
REMARK  9 active torsions:
REMARK  status: ('A' for Active; 'I' for Inactive)
REMARK    1  A    between atoms: C_3  and  O_31
REMARK    2  A    between atoms: C_6  and  C_7
REMARK    3  A    between atoms: C_7  and  N_51
REMARK    4  A    between atoms: C_9  and  O_30
REMARK    5  A    between atoms: C_12  and  C_14
REMARK    6  A    between atoms: C_16  and  C_19
REMARK    7  A    between atoms: C_22  and  O_25
REMARK    8  A    between atoms: O_25  and  C_26
REMARK    9  A    between atoms: O_31  and  C_32
REMARK                            x       y       z     vdW  Elec       q    Type
REMARK                         _______ _______ _______ _____ _____    ______ ____
ROOT
ATOM      1  C   UNL     1      -1.984   0.816  -1.396  0.00  0.00    -0.046 C 
ATOM      2  C   UNL     1      -2.319   1.032  -2.887  0.00  0.00    +0.097 C 
ATOM      3  C   UNL     1      -0.970   1.364  -3.557  0.00  0.00    +0.023 C 
ATOM      4  C   UNL     1       0.067   1.320  -2.414  0.00  0.00    +0.025 C 
ATOM      5  N   UNL     1      -0.732   1.561  -1.216  0.00  0.00    +0.392 N 
ATOM      6  H   UNL     1      -0.931   2.564  -1.122  0.00  0.00    -0.080 HD
ENDROOT
BRANCH   4   7
ATOM      7  C   UNL     1       1.104   2.398  -2.604  0.00  0.00    +0.214 A 
ATOM      8  N   UNL     1       2.361   2.220  -2.925  0.00  0.00    -0.193 NA
ATOM      9  C   UNL     1       2.899   3.459  -2.985  0.00  0.00    +0.202 A 
ATOM     10  N   UNL     1       1.949   4.307  -2.690  0.00  0.00    -0.056 NA
ATOM     11  O   UNL     1       0.914   3.714  -2.469  0.00  0.00    -0.339 OA
BRANCH   9  12
ATOM     12  C   UNL     1       4.306   3.793  -3.317  0.00  0.00    +0.023 A 
ATOM     13  C   UNL     1       5.215   2.776  -3.607  0.00  0.00    +0.015 A 
ATOM     14  C   UNL     1       6.521   3.090  -3.919  0.00  0.00    +0.046 A 
ATOM     15  C   UNL     1       6.933   4.416  -3.935  0.00  0.00    +0.130 A 
ATOM     16  C   UNL     1       6.031   5.430  -3.641  0.00  0.00    +0.046 A 
ATOM     17  C   UNL     1       4.723   5.123  -3.333  0.00  0.00    +0.015 A 
BRANCH  15  18
ATOM     18  O   UNL     1       8.222   4.722  -4.238  0.00  0.00    -0.406 OA
BRANCH  18  19
ATOM     19  C   UNL     1       9.096   3.630  -4.530  0.00  0.00    +0.575 C 
ATOM     20  F   UNL     1       8.607   2.924  -5.635  0.00  0.00    -0.133 F 
ATOM     21  F   UNL     1      10.374   4.120  -4.819  0.00  0.00    -0.133 F 
ATOM     22  F   UNL     1       9.163   2.777  -3.424  0.00  0.00    -0.133 F 
ENDBRANCH  18  19
ENDBRANCH  15  18
ENDBRANCH   9  12
ENDBRANCH   4   7
BRANCH   2  23
ATOM     23  O   UNL     1      -2.872  -0.160  -3.449  0.00  0.00    -0.394 OA
ATOM     24  H   UNL     1      -3.722  -0.417  -3.066  0.00  0.00    +0.210 HD
ENDBRANCH   2  23
BRANCH   5  25
ATOM     25  C   UNL     1      -0.013   1.086   0.008  0.00  0.00    -0.042 C 
BRANCH  25  31
ATOM     26  C   UNL     1      -0.359   2.779   1.818  0.00  0.00    +0.005 A 
ATOM     27  C   UNL     1      -1.008   3.230   2.951  0.00  0.00    +0.046 A 
ATOM     28  C   UNL     1      -2.013   2.464   3.524  0.00  0.00    +0.130 A 
ATOM     29  C   UNL     1      -2.368   1.250   2.953  0.00  0.00    +0.046 A 
ATOM     30  C   UNL     1      -1.720   0.807   1.817  0.00  0.00    +0.005 A 
ATOM     31  C   UNL     1      -0.718   1.572   1.248  0.00  0.00    -0.064 A 
BRANCH  28  32
ATOM     32  O   UNL     1      -2.649   2.902   4.642  0.00  0.00    -0.406 OA
BRANCH  32  33
ATOM     33  C   UNL     1      -2.232   4.161   5.174  0.00  0.00    +0.575 C 
ATOM     34  F   UNL     1      -2.426   5.161   4.215  0.00  0.00    -0.133 F 
ATOM     35  F   UNL     1      -2.985   4.457   6.316  0.00  0.00    -0.133 F 
ATOM     36  F   UNL     1      -0.876   4.098   5.514  0.00  0.00    -0.133 F 
ENDBRANCH  32  33
ENDBRANCH  28  32
ENDBRANCH  25  31
ENDBRANCH   5  25
TORSDOF 9
