REMARK  Name = ZINC39500068
REMARK  7 active torsions:
REMARK  status: ('A' for Active; 'I' for Inactive)
REMARK    1  A    between atoms: C_1  and  N_2
REMARK    2  A    between atoms: N_2  and  C_3
REMARK    3  A    between atoms: N_2  and  C_10
REMARK    4  A    between atoms: C_3  and  C_4
REMARK    5  A    between atoms: C_10  and  C_11
REMARK    6  A    between atoms: N_13  and  C_24
REMARK    7  A    between atoms: C_15  and  C_17
REMARK                            x       y       z     vdW  Elec       q    Type
REMARK                         _______ _______ _______ _____ _____    ______ ____
ROOT
ATOM      1  C   UNL     1      -2.043  -0.130   1.309  0.00  0.00    -0.048 C 
ATOM      2  C   UNL     1      -2.807   0.923   1.518  0.00  0.00    +0.093 C 
ATOM      3  N   UNL     1      -3.258   0.976   2.823  0.00  0.00    -0.242 N 
ATOM      4  N   UNL     1      -2.789  -0.082   3.548  0.00  0.00    -0.225 NA
ATOM      5  C   UNL     1      -1.969  -0.885   2.619  0.00  0.00    +0.130 C 
ATOM      6  H   UNL     1      -3.549  -0.631   3.920  0.00  0.00    +0.146 HD
ENDROOT
BRANCH   5   7
ATOM      7  C   UNL     1      -0.544  -0.957   3.105  0.00  0.00    -0.007 A 
ATOM      8  C   UNL     1      -0.105  -0.091   4.090  0.00  0.00    +0.007 A 
ATOM      9  C   UNL     1       1.201  -0.158   4.536  0.00  0.00    +0.000 A 
ATOM     10  C   UNL     1       2.070  -1.090   3.999  0.00  0.00    +0.001 A 
ATOM     11  C   UNL     1       1.632  -1.956   3.015  0.00  0.00    +0.020 A 
ATOM     12  C   UNL     1       0.323  -1.893   2.571  0.00  0.00    +0.046 A 
ATOM     13 CL   UNL     1      -0.230  -2.985   1.340  0.00  0.00    -0.083 Cl
ENDBRANCH   5   7
BRANCH   3  14
ATOM     14  C   UNL     1      -4.086   1.980   3.334  0.00  0.00    +0.050 A 
ATOM     15  C   UNL     1      -4.480   1.946   4.665  0.00  0.00    +0.027 A 
ATOM     16  C   UNL     1      -5.298   2.940   5.168  0.00  0.00    +0.040 A 
ATOM     17  C   UNL     1      -5.724   3.970   4.345  0.00  0.00    +0.124 A 
ATOM     18  C   UNL     1      -5.332   4.005   3.018  0.00  0.00    +0.040 A 
ATOM     19  C   UNL     1      -4.511   3.017   2.512  0.00  0.00    +0.027 A 
ATOM     20  F   UNL     1      -6.523   4.940   4.839  0.00  0.00    -0.205 F 
ENDBRANCH   3  14
BRANCH   1  21
ATOM     21  C   UNL     1      -1.376  -0.512   0.012  0.00  0.00    -0.044 C 
BRANCH  21  23
ATOM     22  C   UNL     1      -0.018   1.465   0.010  0.00  0.00    -0.095 C 
ATOM     23  N   UNL     1       0.002  -0.004   0.002  0.00  0.00    +0.384 N 
ATOM     24  H   UNL     1       0.490  -0.338   0.820  0.00  0.00    -0.081 HD
BRANCH  23  25
ATOM     25  C   UNL     1       0.690  -0.478  -1.207  0.00  0.00    -0.021 C 
BRANCH  25  26
ATOM     26  C   UNL     1       2.137  -0.060  -1.158  0.00  0.00    +0.046 A 
ATOM     27  C   UNL     1       3.200  -0.840  -0.692  0.00  0.00    +0.042 A 
ATOM     28  C   UNL     1       4.335  -0.111  -0.812  0.00  0.00    +0.105 A 
ATOM     29  N   UNL     1       4.000   1.087  -1.335  0.00  0.00    -0.285 N 
ATOM     30  N   UNL     1       2.616   1.093  -1.549  0.00  0.00    -0.181 NA
ATOM     31  H   UNL     1       4.611   1.814  -1.532  0.00  0.00    +0.188 HD
ENDBRANCH  25  26
ENDBRANCH  23  25
ENDBRANCH  21  23
ENDBRANCH   1  21
TORSDOF 6
