REMARK  Name = ZINC39445682
REMARK  7 active torsions:
REMARK  status: ('A' for Active; 'I' for Inactive)
REMARK    1  A    between atoms: C_4  and  C_7
REMARK    2  A    between atoms: N_10  and  C_19
REMARK    3  A    between atoms: C_19  and  C_20
REMARK    4  A    between atoms: C_20  and  C_21
REMARK    5  A    between atoms: N_23  and  C_24
REMARK    6  A    between atoms: C_24  and  C_25
REMARK    7  A    between atoms: C_30  and  C_31
REMARK                            x       y       z     vdW  Elec       q    Type
REMARK                         _______ _______ _______ _____ _____    ______ ____
ROOT
ATOM      1  C   UNL     1       5.746  -1.677  -3.048  0.00  0.00    -0.069 C 
ENDROOT
BRANCH   1   4
ATOM      2  C   UNL     1       4.240  -0.706   0.259  0.00  0.00    +0.187 C 
ATOM      3  C   UNL     1       4.361  -1.052  -1.209  0.00  0.00    -0.028 C 
ATOM      4  N   UNL     1       5.657  -1.608  -1.583  0.00  0.00    +0.385 N 
ATOM      5  C   UNL     1       5.837  -2.953  -1.027  0.00  0.00    -0.039 C 
ATOM      6  C   UNL     1       6.366  -2.829   0.389  0.00  0.00    -0.022 A 
ATOM      7  C   UNL     1       7.655  -3.225   0.684  0.00  0.00    +0.005 A 
ATOM      8  C   UNL     1       8.123  -3.122   1.982  0.00  0.00    +0.000 A 
ATOM      9  C   UNL     1       7.302  -2.627   2.979  0.00  0.00    +0.004 A 
ATOM     10  C   UNL     1       6.013  -2.225   2.682  0.00  0.00    +0.046 A 
ATOM     11  C   UNL     1       5.547  -2.321   1.379  0.00  0.00    +0.123 A 
ATOM     12  O   UNL     1       4.293  -1.889   1.066  0.00  0.00    -0.486 OA
ATOM     13  H   UNL     1       6.388  -1.006  -1.236  0.00  0.00    -0.081 HD
BRANCH   2  17
ATOM     14  C   UNL     1       0.522   1.288   0.928  0.00  0.00    +0.000 A 
ATOM     15  C   UNL     1       1.671   2.024   0.705  0.00  0.00    +0.000 A 
ATOM     16  C   UNL     1       2.874   1.379   0.488  0.00  0.00    +0.007 A 
ATOM     17  C   UNL     1       2.929  -0.003   0.496  0.00  0.00    -0.009 A 
ATOM     18  C   UNL     1       1.780  -0.739   0.720  0.00  0.00    +0.007 A 
ATOM     19  C   UNL     1       0.577  -0.094   0.935  0.00  0.00    +0.000 A 
ENDBRANCH   2  17
ENDBRANCH   1   4
BRANCH   1  20
ATOM     20  C   UNL     1       5.740  -0.261  -3.626  0.00  0.00    +0.077 C 
BRANCH  20  21
ATOM     21  C   UNL     1       5.969  -0.325  -5.114  0.00  0.00    +0.211 C 
ATOM     22  O   UNL     1       6.121  -1.398  -5.659  0.00  0.00    -0.276 OA
ATOM     23  N   UNL     1       6.004   0.810  -5.840  0.00  0.00    -0.314 N 
ATOM     24  H   UNL     1       5.882   1.668  -5.405  0.00  0.00    +0.149 HD
BRANCH  23  25
ATOM     25  C   UNL     1       6.226   0.747  -7.287  0.00  0.00    +0.119 C 
BRANCH  25  26
ATOM     26  C   UNL     1       6.221   2.164  -7.866  0.00  0.00    +0.100 C 
ATOM     27  C   UNL     1       4.832   2.765  -7.792  0.00  0.00    +0.119 C 
ATOM     28  N   UNL     1       4.477   3.001  -9.013  0.00  0.00    -0.161 NA
ATOM     29  N   UNL     1       5.455   2.634  -9.932  0.00  0.00    -0.153 NA
ATOM     30  C   UNL     1       6.517   2.135  -9.352  0.00  0.00    +0.080 C 
BRANCH  30  31
ATOM     31  C   UNL     1       7.741   1.646 -10.004  0.00  0.00    -0.001 A 
ATOM     32  C   UNL     1       8.790   1.133  -9.234  0.00  0.00    +0.012 A 
ATOM     33  C   UNL     1       9.934   0.676  -9.851  0.00  0.00    +0.039 A 
ATOM     34  C   UNL     1      10.048   0.726 -11.232  0.00  0.00    +0.123 A 
ATOM     35  C   UNL     1       9.013   1.234 -12.001  0.00  0.00    +0.039 A 
ATOM     36  C   UNL     1       7.860   1.688 -11.397  0.00  0.00    +0.012 A 
ATOM     37  F   UNL     1      11.174   0.277 -11.830  0.00  0.00    -0.205 F 
ENDBRANCH  30  31
ENDBRANCH  25  26
ENDBRANCH  23  25
ENDBRANCH  20  21
ENDBRANCH   1  20
TORSDOF 7
