REMARK  Name = ZINC44097557
REMARK  5 active torsions:
REMARK  status: ('A' for Active; 'I' for Inactive)
REMARK    1  A    between atoms: C_1  and  C_2
REMARK    2  A    between atoms: C_4  and  C_7
REMARK    3  A    between atoms: N_21  and  C_22
REMARK    4  A    between atoms: C_22  and  C_23
REMARK    5  A    between atoms: C_22  and  C_29
REMARK                            x       y       z     vdW  Elec       q    Type
REMARK                         _______ _______ _______ _____ _____    ______ ____
ROOT
ATOM      1  C   UNL     1      -1.612  -3.206  -0.047  0.00  0.00    +0.038 A 
ATOM      2  C   UNL     1      -0.986  -4.458  -0.042  0.00  0.00    +0.016 A 
ATOM      3  C   UNL     1      -1.778  -5.588  -0.036  0.00  0.00    +0.042 A 
ATOM      4  C   UNL     1      -3.164  -5.447  -0.036  0.00  0.00    +0.099 A 
ATOM      5  N   UNL     1      -3.724  -4.246  -0.042  0.00  0.00    -0.349 N 
ATOM      6  C   UNL     1      -3.002  -3.144  -0.041  0.00  0.00    +0.095 A 
ATOM      7  N   UNL     1      -3.968  -6.578  -0.031  0.00  0.00    -0.314 N 
ATOM      8  C   UNL     1      -5.428  -6.458   0.092  0.00  0.00    +0.125 C 
ATOM      9  C   UNL     1      -6.081  -7.180  -1.093  0.00  0.00    +0.128 C 
ATOM     10  N   UNL     1      -5.488  -8.520  -1.211  0.00  0.00    -0.283 N 
ATOM     11  C   UNL     1      -4.028  -8.640  -1.334  0.00  0.00    +0.128 C 
ATOM     12  C   UNL     1      -3.376  -7.917  -0.155  0.00  0.00    +0.125 C 
ATOM     13  C   UNL     1      -6.269  -9.618  -1.206  0.00  0.00    +0.303 C 
ATOM     14  O   UNL     1      -7.479  -9.504  -1.203  0.00  0.00    -0.253 OA
ATOM     15  N   UNL     1      -5.707 -10.844  -1.204  0.00  0.00    -0.288 N 
ATOM     16  H   UNL     1      -4.745 -10.936  -1.129  0.00  0.00    +0.151 HD
ATOM     17  H   UNL     1      -4.692  -4.177  -0.042  0.00  0.00    +0.167 HD
ENDROOT
BRANCH   1  21
ATOM     18  C   UNL     1       2.358  -0.179  -0.072  0.00  0.00    +0.112 C 
ATOM     19  C   UNL     1       0.928  -0.655  -0.065  0.00  0.00    +0.225 A 
ATOM     20  N   UNL     1       0.540  -1.899  -0.060  0.00  0.00    -0.192 NA
ATOM     21  C   UNL     1      -0.804  -1.962  -0.054  0.00  0.00    +0.203 A 
ATOM     22  N   UNL     1      -1.280  -0.741  -0.054  0.00  0.00    -0.056 NA
ATOM     23  O   UNL     1      -0.158   0.129  -0.056  0.00  0.00    -0.338 OA
ENDBRANCH   1  21
BRANCH  15  24
ATOM     24  C   UNL     1      -6.552 -12.036  -1.316  0.00  0.00    +0.135 C 
BRANCH  24  25
ATOM     25  C   UNL     1      -6.827 -12.322  -2.770  0.00  0.00    -0.023 A 
ATOM     26  C   UNL     1      -5.821 -12.171  -3.706  0.00  0.00    +0.006 A 
ATOM     27  C   UNL     1      -6.073 -12.434  -5.040  0.00  0.00    +0.000 A 
ATOM     28  C   UNL     1      -7.331 -12.847  -5.437  0.00  0.00    +0.000 A 
ATOM     29  C   UNL     1      -8.336 -12.999  -4.501  0.00  0.00    +0.000 A 
ATOM     30  C   UNL     1      -8.083 -12.741  -3.167  0.00  0.00    +0.006 A 
ENDBRANCH  24  25
BRANCH  24  31
ATOM     31  C   UNL     1      -5.843 -13.213  -0.698  0.00  0.00    -0.023 A 
ATOM     32  C   UNL     1      -4.482 -13.375  -0.882  0.00  0.00    +0.006 A 
ATOM     33  C   UNL     1      -3.832 -14.455  -0.315  0.00  0.00    +0.000 A 
ATOM     34  C   UNL     1      -4.542 -15.373   0.437  0.00  0.00    +0.000 A 
ATOM     35  C   UNL     1      -5.902 -15.210   0.622  0.00  0.00    +0.000 A 
ATOM     36  C   UNL     1      -6.552 -14.128   0.058  0.00  0.00    +0.006 A 
ENDBRANCH  24  31
ENDBRANCH  15  24
TORSDOF 4
