REMARK  Name = ZINC39609353
REMARK  8 active torsions:
REMARK  status: ('A' for Active; 'I' for Inactive)
REMARK    1  A    between atoms: C_1  and  C_2
REMARK    2  A    between atoms: C_5  and  C_9
REMARK    3  A    between atoms: C_7  and  C_8
REMARK    4  A    between atoms: C_9  and  C_10
REMARK    5  A    between atoms: C_10  and  N_11
REMARK    6  A    between atoms: C_12  and  C_14
REMARK    7  A    between atoms: C_25  and  C_27
REMARK    8  A    between atoms: C_30  and  C_32
REMARK                            x       y       z     vdW  Elec       q    Type
REMARK                         _______ _______ _______ _____ _____    ______ ____
ROOT
ATOM      1  C   UNL     1       2.723  -8.397  -0.059  0.00  0.00    +0.100 C 
ATOM      2  C   UNL     1       1.954  -8.938  -1.285  0.00  0.00    +0.121 C 
ATOM      3  N   UNL     1       3.000  -9.168  -2.310  0.00  0.00    -0.294 N 
ATOM      4  C   UNL     1       4.148  -9.717  -1.550  0.00  0.00    +0.115 C 
ATOM      5  C   UNL     1       4.161  -8.913  -0.234  0.00  0.00    -0.004 C 
ATOM      6  C   UNL     1       5.133  -7.742  -0.342  0.00  0.00    -0.010 C 
ATOM      7  C   UNL     1       6.561  -8.280  -0.459  0.00  0.00    -0.082 C 
ATOM      8  N   UNL     1       6.877  -9.097   0.720  0.00  0.00    +0.379 N 
ATOM      9  C   UNL     1       5.997 -10.271   0.765  0.00  0.00    -0.082 C 
ATOM     10  C   UNL     1       4.544  -9.817   0.933  0.00  0.00    -0.010 C 
ATOM     11  C   UNL     1       2.924  -8.931  -3.635  0.00  0.00    +0.282 C 
ATOM     12  O   UNL     1       3.876  -9.175  -4.352  0.00  0.00    -0.267 OA
ATOM     13  H   UNL     1       7.838  -9.400   0.670  0.00  0.00    -0.086 HD
ATOM     14  H   UNL     1       6.743  -8.546   1.554  0.00  0.00    -0.086 HD
ENDROOT
BRANCH  11  15
ATOM     15  C   UNL     1       1.694  -8.380  -4.211  0.00  0.00    +0.190 A 
ATOM     16  C   UNL     1       1.482  -8.097  -5.543  0.00  0.00    +0.055 A 
ATOM     17  C   UNL     1       0.181  -7.592  -5.645  0.00  0.00    +0.050 A 
ATOM     18  C   UNL     1      -0.346  -7.585  -4.386  0.00  0.00    +0.136 A 
ATOM     19  O   UNL     1       0.571  -8.067  -3.532  0.00  0.00    -0.450 OA
BRANCH  18  20
ATOM     20  C   UNL     1      -1.704  -7.128  -4.024  0.00  0.00    +0.017 A 
ATOM     21  C   UNL     1      -2.572  -6.656  -5.011  0.00  0.00    +0.011 A 
ATOM     22  C   UNL     1      -3.838  -6.232  -4.666  0.00  0.00    +0.001 A 
ATOM     23  C   UNL     1      -4.249  -6.273  -3.345  0.00  0.00    +0.000 A 
ATOM     24  C   UNL     1      -3.394  -6.738  -2.362  0.00  0.00    +0.001 A 
ATOM     25  C   UNL     1      -2.127  -7.171  -2.694  0.00  0.00    +0.011 A 
ENDBRANCH  18  20
ENDBRANCH  11  15
BRANCH   1  27
ATOM     26  N   UNL     1       2.779  -6.222   1.117  0.00  0.00    -0.315 N 
ATOM     27  C   UNL     1       2.703  -6.890  -0.050  0.00  0.00    +0.218 C 
ATOM     28  O   UNL     1       2.619  -6.279  -1.095  0.00  0.00    -0.275 OA
ATOM     29  H   UNL     1       2.845  -6.710   1.953  0.00  0.00    +0.149 HD
BRANCH  26  30
ATOM     30  C   UNL     1       2.760  -4.757   1.126  0.00  0.00    +0.109 C 
BRANCH  30  31
ATOM     31  C   UNL     1       2.857  -4.253   2.567  0.00  0.00    +0.054 C 
BRANCH  31  36
ATOM     32  C   UNL     1       2.783   1.525   2.602  0.00  0.00    +0.044 C 
ATOM     33  C   UNL     1       2.802   0.018   2.593  0.00  0.00    -0.048 A 
ATOM     34  C   UNL     1       1.617  -0.689   2.674  0.00  0.00    +0.004 A 
ATOM     35  C   UNL     1       1.635  -2.071   2.666  0.00  0.00    +0.004 A 
ATOM     36  C   UNL     1       2.838  -2.747   2.575  0.00  0.00    -0.046 A 
ATOM     37  C   UNL     1       4.022  -2.040   2.493  0.00  0.00    +0.007 A 
ATOM     38  C   UNL     1       4.004  -0.657   2.498  0.00  0.00    -0.047 A 
ATOM     39  C   UNL     1       5.296   0.114   2.403  0.00  0.00    +0.044 C 
ENDBRANCH  31  36
ENDBRANCH  30  31
ENDBRANCH  26  30
ENDBRANCH   1  27
TORSDOF 6
