REMARK  Name = ZINC01750711
REMARK  14 active torsions:
REMARK  status: ('A' for Active; 'I' for Inactive)
REMARK    1  A    between atoms: C_1  and  O_2
REMARK    2  A    between atoms: O_2  and  C_3
REMARK    3  A    between atoms: C_6  and  N_9
REMARK    4  A    between atoms: N_9  and  C_10
REMARK    5  A    between atoms: N_9  and  S_29
REMARK    6  A    between atoms: C_10  and  C_11
REMARK    7  A    between atoms: C_11  and  C_13
REMARK    8  A    between atoms: C_11  and  O_28
REMARK    9  A    between atoms: C_13  and  N_69
REMARK   10  A    between atoms: C_14  and  C_15
REMARK   11  A    between atoms: C_14  and  N_69
REMARK   12  A    between atoms: C_21  and  C_22
REMARK   13  A    between atoms: C_21  and  N_69
REMARK   14  A    between atoms: S_29  and  C_32
REMARK                            x       y       z     vdW  Elec       q    Type
REMARK                         _______ _______ _______ _____ _____    ______ ____
ROOT
ATOM      1  C   UNL     1       6.616  -1.291  -2.233  0.00  0.00    +0.117 C 
ENDROOT
BRANCH   1   2
ATOM      2  O   UNL     1       6.539  -2.374  -3.162  0.00  0.00    -0.392 OA
ATOM      3  H   UNL     1       6.163  -2.131  -4.019  0.00  0.00    +0.210 HD
ENDBRANCH   1   2
BRANCH   1   4
ATOM      4  C   UNL     1       5.205  -0.789  -1.918  0.00  0.00    +0.161 C 
BRANCH   4   5
ATOM      5  N   UNL     1       4.464  -1.831  -1.204  0.00  0.00    -0.201 N 
BRANCH   5   9
ATOM      6  C   UNL     1       2.458  -4.795  -3.341  0.00  0.00    +0.120 A 
ATOM      7  C   UNL     1       3.466  -5.143  -2.454  0.00  0.00    +0.047 A 
ATOM      8  C   UNL     1       4.132  -4.161  -1.746  0.00  0.00    +0.028 A 
ATOM      9  C   UNL     1       3.790  -2.827  -1.921  0.00  0.00    +0.052 A 
ATOM     10  C   UNL     1       2.776  -2.481  -2.805  0.00  0.00    +0.028 A 
ATOM     11  C   UNL     1       2.116  -3.463  -3.517  0.00  0.00    +0.047 A 
BRANCH   6  13
ATOM     12  C   UNL     1       0.775  -5.334  -4.933  0.00  0.00    +0.277 C 
ATOM     13  O   UNL     1       1.803  -5.763  -4.038  0.00  0.00    -0.495 OA
ENDBRANCH   6  13
ENDBRANCH   5   9
BRANCH   5  14
ATOM     14  S   UNL     1       4.422  -1.833   0.451  0.00  0.00    +0.075 S 
ATOM     15  O   UNL     1       5.517  -1.037   0.885  0.00  0.00    -0.150 OA
ATOM     16  O   UNL     1       4.257  -3.186   0.853  0.00  0.00    -0.150 OA
BRANCH  14  17
ATOM     17  C   UNL     1       2.958  -0.981   0.936  0.00  0.00    +0.109 A 
ATOM     18  C   UNL     1       1.756  -1.661   1.012  0.00  0.00    +0.029 A 
ATOM     19  C   UNL     1       0.607  -0.993   1.393  0.00  0.00    +0.002 A 
ATOM     20  C   UNL     1       0.660   0.354   1.697  0.00  0.00    +0.000 A 
ATOM     21  C   UNL     1       1.861   1.034   1.622  0.00  0.00    +0.002 A 
ATOM     22  C   UNL     1       3.010   0.366   1.241  0.00  0.00    +0.029 A 
ENDBRANCH  14  17
ENDBRANCH   5  14
ENDBRANCH   4   5
ENDBRANCH   1   4
BRANCH   1  23
ATOM     23  C   UNL     1       7.438  -0.154  -2.842  0.00  0.00    -0.045 C 
BRANCH  23  24
ATOM     24  N   UNL     1       8.843  -0.597  -2.962  0.00  0.00    +0.387 N 
ATOM     25  H   UNL     1       9.103  -1.115  -2.115  0.00  0.00    -0.081 HD
BRANCH  24  26
ATOM     26  C   UNL     1       8.994  -1.486  -4.134  0.00  0.00    -0.042 C 
BRANCH  26  27
ATOM     27  C   UNL     1      10.311  -2.210  -4.026  0.00  0.00    -0.064 A 
ATOM     28  C   UNL     1      11.447  -1.668  -4.598  0.00  0.00    +0.002 A 
ATOM     29  C   UNL     1      12.656  -2.329  -4.494  0.00  0.00    +0.000 A 
ATOM     30  C   UNL     1      12.728  -3.538  -3.828  0.00  0.00    +0.000 A 
ATOM     31  C   UNL     1      11.591  -4.083  -3.260  0.00  0.00    +0.000 A 
ATOM     32  C   UNL     1      10.383  -3.419  -3.359  0.00  0.00    +0.002 A 
ENDBRANCH  26  27
ENDBRANCH  24  26
BRANCH  24  33
ATOM     33  C   UNL     1       9.732   0.575  -3.100  0.00  0.00    -0.042 C 
BRANCH  33  34
ATOM     34  C   UNL     1       9.937   1.188  -1.738  0.00  0.00    -0.064 A 
ATOM     35  C   UNL     1       9.109   2.207  -1.308  0.00  0.00    +0.002 A 
ATOM     36  C   UNL     1       9.294   2.765  -0.056  0.00  0.00    +0.000 A 
ATOM     37  C   UNL     1      10.313   2.312   0.759  0.00  0.00    +0.000 A 
ATOM     38  C   UNL     1      11.145   1.296   0.326  0.00  0.00    +0.000 A 
ATOM     39  C   UNL     1      10.957   0.734  -0.923  0.00  0.00    +0.002 A 
ENDBRANCH  33  34
ENDBRANCH  24  33
ENDBRANCH  23  24
ENDBRANCH   1  23
TORSDOF 13
