REMARK  Name = ZINC25692889
REMARK  10 active torsions:
REMARK  status: ('A' for Active; 'I' for Inactive)
REMARK    1  A    between atoms: C_1  and  C_2
REMARK    2  A    between atoms: C_4  and  S_39
REMARK    3  A    between atoms: N_6  and  C_12
REMARK    4  A    between atoms: C_15  and  O_30
REMARK    5  A    between atoms: C_17  and  C_20
REMARK    6  A    between atoms: C_20  and  O_21
REMARK    7  A    between atoms: O_21  and  C_22
REMARK    8  A    between atoms: C_22  and  C_24
REMARK    9  A    between atoms: O_30  and  C_31
REMARK   10  A    between atoms: C_31  and  C_33
REMARK                            x       y       z     vdW  Elec       q    Type
REMARK                         _______ _______ _______ _____ _____    ______ ____
ROOT
ATOM      1  C   UNL     1      -7.574   1.886   1.433  0.00  0.00    +0.215 C 
ATOM      2  C   UNL     1      -8.409   3.062   0.880  0.00  0.00    +0.099 C 
ATOM      3  C   UNL     1      -7.424   3.825  -0.033  0.00  0.00    +0.213 C 
ATOM      4  C   UNL     1      -6.110   3.021   0.076  0.00  0.00    +0.199 C 
ATOM      5  O   UNL     1      -6.203   2.333   1.343  0.00  0.00    -0.348 OA
ENDROOT
BRANCH   1   9
ATOM      6  C   UNL     1      -6.620  -0.604   4.436  0.00  0.00    +0.020 C 
ATOM      7  C   UNL     1      -8.065  -0.115   4.551  0.00  0.00    +0.103 C 
ATOM      8  C   UNL     1      -8.567   0.343   3.176  0.00  0.00    +0.146 C 
ATOM      9  N   UNL     1      -7.933   1.616   2.828  0.00  0.00    -0.247 N 
ATOM     10  C   UNL     1      -7.682   2.542   3.767  0.00  0.00    +0.311 C 
ATOM     11  O   UNL     1      -7.256   3.629   3.429  0.00  0.00    -0.252 OA
ATOM     12  N   UNL     1      -7.890   2.296   5.071  0.00  0.00    -0.240 N 
ATOM     13  C   UNL     1      -8.128   1.047   5.511  0.00  0.00    +0.226 C 
ATOM     14  O   UNL     1      -8.393   0.855   6.679  0.00  0.00    -0.275 OA
ATOM     15  H   UNL     1      -7.868   3.122   5.797  0.00  0.00    +0.159 HD
BRANCH   8  16
ATOM     16  S   UNL     1     -10.367   0.558   3.225  0.00  0.00    -0.155 S 
ATOM     17  H   UNL     1     -10.907   0.884   2.324  0.00  0.00    +0.103 HD
ENDBRANCH   8  16
ENDBRANCH   1   9
BRANCH   4  18
ATOM     18  C   UNL     1      -4.906   3.964   0.070  0.00  0.00    +0.267 C 
BRANCH  18  19
ATOM     19  O   UNL     1      -3.681   3.185   0.054  0.00  0.00    -0.458 OA
BRANCH  19  20
ATOM     20  C   UNL     1      -2.521   3.870   0.046  0.00  0.00    +0.339 C 
ATOM     21  O   UNL     1      -2.532   5.085   0.053  0.00  0.00    -0.245 OA
BRANCH  20  22
ATOM     22  C   UNL     1      -1.234   3.144   0.030  0.00  0.00    +0.059 A 
ATOM     23  C   UNL     1      -1.217   1.748   0.017  0.00  0.00    +0.015 A 
ATOM     24  C   UNL     1      -0.013   1.076   0.008  0.00  0.00    +0.001 A 
ATOM     25  C   UNL     1       1.177   1.782   0.000  0.00  0.00    +0.000 A 
ATOM     26  C   UNL     1       1.167   3.166   0.008  0.00  0.00    +0.001 A 
ATOM     27  C   UNL     1      -0.030   3.850   0.023  0.00  0.00    +0.015 A 
ENDBRANCH  20  22
ENDBRANCH  19  20
ENDBRANCH  18  19
ENDBRANCH   4  18
BRANCH   3  28
ATOM     28  O   UNL     1      -7.904   3.833  -1.404  0.00  0.00    -0.455 OA
BRANCH  28  29
ATOM     29  C   UNL     1      -8.607   4.912  -1.800  0.00  0.00    +0.340 C 
ATOM     30  O   UNL     1      -8.813   5.821  -1.021  0.00  0.00    -0.245 OA
BRANCH  29  31
ATOM     31  C   UNL     1      -9.126   4.989  -3.181  0.00  0.00    +0.059 A 
ATOM     32  C   UNL     1      -8.885   3.948  -4.080  0.00  0.00    +0.015 A 
ATOM     33  C   UNL     1      -9.377   4.024  -5.366  0.00  0.00    +0.001 A 
ATOM     34  C   UNL     1     -10.099   5.134  -5.769  0.00  0.00    +0.000 A 
ATOM     35  C   UNL     1     -10.336   6.171  -4.885  0.00  0.00    +0.001 A 
ATOM     36  C   UNL     1      -9.855   6.106  -3.594  0.00  0.00    +0.015 A 
ENDBRANCH  29  31
ENDBRANCH  28  29
ENDBRANCH   3  28
TORSDOF 9
