REMARK  Name = ZINC39507548
REMARK  4 active torsions:
REMARK  status: ('A' for Active; 'I' for Inactive)
REMARK    1  A    between atoms: C_1  and  C_2
REMARK    2  A    between atoms: C_2  and  C_3
REMARK    3  A    between atoms: C_2  and  S_4
REMARK    4  A    between atoms: S_4  and  C_7
REMARK                            x       y       z     vdW  Elec       q    Type
REMARK                         _______ _______ _______ _____ _____    ______ ____
ROOT
ATOM      1  C   UNL     1      -0.108   0.075   2.833  0.00  0.00    +0.147 C 
ATOM      2  C   UNL     1       0.442  -0.397   4.207  0.00  0.00    +0.050 C 
ATOM      3  C   UNL     1      -0.803  -0.345   5.109  0.00  0.00    +0.034 C 
ATOM      4  C   UNL     1      -0.787  -1.511   6.105  0.00  0.00    +0.024 C 
ATOM      5  C   UNL     1      -0.784  -0.880   7.514  0.00  0.00    +0.016 C 
ATOM      6  C   UNL     1      -0.198   0.537   7.295  0.00  0.00    +0.054 C 
ATOM      7  C   UNL     1      -0.806   0.954   5.931  0.00  0.00    +0.037 C 
ATOM      8  I   UNL     1      -0.835   1.880   8.865  0.00  0.00    -0.082 I 
ATOM      9  N   UNL     1      -1.988  -0.412   4.244  0.00  0.00    -0.239 NA
ATOM     10  C   UNL     1      -1.534  -0.530   2.840  0.00  0.00    +0.122 C 
ATOM     11  I   UNL     1      -3.188  -1.992   4.764  0.00  0.00    +0.021 I 
ENDROOT
BRANCH   1  12
ATOM     12  S   UNL     1       0.879  -0.605   1.472  0.00  0.00    -0.025 S 
ATOM     13  O   UNL     1       0.779  -2.022   1.507  0.00  0.00    -0.174 OA
ATOM     14  O   UNL     1       2.166  -0.003   1.505  0.00  0.00    -0.174 OA
BRANCH  12  16
ATOM     15  C   UNL     1      -0.019   1.526   0.010  0.00  0.00    +0.031 C 
ATOM     16  C   UNL     1       0.002  -0.004   0.002  0.00  0.00    +0.125 C 
ATOM     17  C   UNL     1       0.718  -0.497  -1.257  0.00  0.00    +0.031 C 
ENDBRANCH  12  16
ENDBRANCH   1  12
TORSDOF 2
