REMARK  Name = ZINC02138853
REMARK  13 active torsions:
REMARK  status: ('A' for Active; 'I' for Inactive)
REMARK    1  A    between atoms: C_1  and  C_2
REMARK    2  A    between atoms: C_2  and  C_3
REMARK    3  A    between atoms: C_3  and  O_4
REMARK    4  A    between atoms: O_4  and  C_5
REMARK    5  A    between atoms: C_8  and  C_14
REMARK    6  A    between atoms: C_10  and  O_11
REMARK    7  A    between atoms: O_11  and  C_12
REMARK    8  A    between atoms: C_12  and  C_13
REMARK    9  A    between atoms: N_21  and  C_36
REMARK   10  A    between atoms: C_24  and  C_35
REMARK   11  A    between atoms: C_36  and  C_38
REMARK   12  A    between atoms: C_36  and  C_39
REMARK   13  A    between atoms: C_39  and  C_40
REMARK                            x       y       z     vdW  Elec       q    Type
REMARK                         _______ _______ _______ _____ _____    ______ ____
ROOT
ATOM      1  C   UNL     1       3.676   2.185  -0.023  0.00  0.00    +0.069 C 
ATOM      2  C   UNL     1       4.503   1.811   1.213  0.00  0.00    +0.122 C 
ATOM      3  N   UNL     1       5.072   0.465   1.015  0.00  0.00    -0.280 N 
ATOM      4  C   UNL     1       4.682  -0.531   1.814  0.00  0.00    +0.234 C 
ATOM      5  O   UNL     1       3.994  -0.253   2.774  0.00  0.00    -0.274 OA
ATOM      6  C   UNL     1       5.037  -1.967   1.602  0.00  0.00    +0.204 C 
ATOM      7  N   UNL     1       5.822  -2.165   0.394  0.00  0.00    -0.288 N 
ATOM      8  C   UNL     1       6.274  -1.167  -0.365  0.00  0.00    +0.246 C 
ATOM      9  O   UNL     1       6.917  -1.448  -1.354  0.00  0.00    -0.273 OA
ATOM     10  C   UNL     1       6.035   0.277  -0.070  0.00  0.00    +0.151 C 
ATOM     11  C   UNL     1       5.509   0.987  -1.295  0.00  0.00    +0.054 A 
ATOM     12  C   UNL     1       4.459   1.838  -1.262  0.00  0.00    -0.008 A 
ATOM     13  C   UNL     1       4.262   2.318  -2.615  0.00  0.00    +0.004 A 
ATOM     14  C   UNL     1       3.341   3.204  -3.182  0.00  0.00    +0.010 A 
ATOM     15  C   UNL     1       3.449   3.433  -4.531  0.00  0.00    +0.001 A 
ATOM     16  C   UNL     1       4.421   2.821  -5.306  0.00  0.00    +0.002 A 
ATOM     17  C   UNL     1       5.345   1.940  -4.771  0.00  0.00    +0.026 A 
ATOM     18  C   UNL     1       5.259   1.688  -3.404  0.00  0.00    +0.047 A 
ATOM     19  N   UNL     1       5.992   0.890  -2.572  0.00  0.00    -0.356 N 
ATOM     20  H   UNL     1       6.742   0.339  -2.845  0.00  0.00    +0.166 HD
ATOM     21  C   UNL     1       7.367   0.911   0.335  0.00  0.00    +0.048 C 
ENDROOT
BRANCH   1  25
ATOM     22  C   UNL     1       0.002  -0.004   0.002  0.00  0.00    +0.162 A 
ATOM     23  C   UNL     1       1.213  -0.677  -0.013  0.00  0.00    +0.050 A 
ATOM     24  C   UNL     1       2.399   0.033  -0.021  0.00  0.00    +0.008 A 
ATOM     25  C   UNL     1       2.380   1.415  -0.013  0.00  0.00    -0.035 A 
ATOM     26  C   UNL     1       1.175   2.093   0.002  0.00  0.00    +0.053 A 
ATOM     27  C   UNL     1      -0.017   1.387   0.010  0.00  0.00    +0.162 A 
BRANCH  22  28
ATOM     28  O   UNL     1      -1.165  -0.702   0.009  0.00  0.00    -0.488 OA
BRANCH  28  29
ATOM     29  C   UNL     1      -1.069  -2.127   0.000  0.00  0.00    +0.229 C 
BRANCH  29  31
ATOM     30  C   UNL     1      -2.372  -4.260   0.001  0.00  0.00    +0.007 C 
ATOM     31  C   UNL     1      -2.474  -2.733   0.010  0.00  0.00    +0.038 C 
ENDBRANCH  29  31
ENDBRANCH  28  29
ENDBRANCH  22  28
BRANCH  27  32
ATOM     32  O   UNL     1      -1.203   2.053   0.019  0.00  0.00    -0.489 OA
BRANCH  32  33
ATOM     33  C   UNL     1      -1.146   3.481   0.026  0.00  0.00    +0.226 C 
ATOM     34  C   UNL     1      -2.566   4.048   0.036  0.00  0.00    +0.048 C 
ENDBRANCH  32  33
ENDBRANCH  27  32
ENDBRANCH   1  25
BRANCH   7  35
ATOM     35  C   UNL     1       6.133  -3.538  -0.011  0.00  0.00    +0.073 C 
ATOM     36  C   UNL     1       6.932  -4.227   1.097  0.00  0.00    +0.028 C 
BRANCH  35  37
ATOM     37  C   UNL     1       4.832  -4.305  -0.255  0.00  0.00    +0.019 C 
ATOM     38  C   UNL     1       4.093  -3.690  -1.444  0.00  0.00    +0.005 C 
ENDBRANCH  35  37
ENDBRANCH   7  35
TORSDOF 8
