REMARK  Name = ZINC04477557
REMARK  6 active torsions:
REMARK  status: ('A' for Active; 'I' for Inactive)
REMARK    1  A    between atoms: C_1  and  C_2
REMARK    2  A    between atoms: C_2  and  C_3
REMARK    3  A    between atoms: C_10  and  C_12
REMARK    4  A    between atoms: C_12  and  N_13
REMARK    5  A    between atoms: C_16  and  C_20
REMARK    6  A    between atoms: C_16  and  C_21
REMARK                            x       y       z     vdW  Elec       q    Type
REMARK                         _______ _______ _______ _____ _____    ______ ____
ROOT
ATOM      1  N   UNL     1       0.485  -0.999   1.742  0.00  0.00    -0.215 N 
ATOM      2  C   UNL     1       1.459  -0.223   1.227  0.00  0.00    +0.251 C 
ATOM      3  O   UNL     1       2.593  -0.103   1.637  0.00  0.00    -0.272 OA
ATOM      4  C   UNL     1       0.841   0.467   0.027  0.00  0.00    +0.136 C 
ATOM      5  N   UNL     1      -0.539  -0.049   0.003  0.00  0.00    -0.281 N 
ATOM      6  C   UNL     1      -0.651  -0.896   1.042  0.00  0.00    +0.310 C 
ATOM      7  O   UNL     1      -1.669  -1.501   1.313  0.00  0.00    -0.252 OA
ATOM      8  C   UNL     1       0.845   1.985   0.218  0.00  0.00    +0.047 C 
ATOM      9  H   UNL     1      -1.232   0.179  -0.636  0.00  0.00    +0.152 HD
ENDROOT
BRANCH   4  10
ATOM     10  C   UNL     1       1.573   0.091  -1.236  0.00  0.00    -0.008 A 
ATOM     11  C   UNL     1       0.925  -0.578  -2.229  0.00  0.00    +0.007 A 
ATOM     12  C   UNL     1       1.583  -0.927  -3.406  0.00  0.00    +0.001 A 
ATOM     13  C   UNL     1       2.897  -0.622  -3.592  0.00  0.00    +0.008 A 
ATOM     14  C   UNL     1       3.600   0.063  -2.586  0.00  0.00    -0.018 A 
ATOM     15  C   UNL     1       2.929   0.424  -1.392  0.00  0.00    -0.012 A 
ATOM     16  C   UNL     1       3.633   1.109  -0.386  0.00  0.00    +0.009 A 
ATOM     17  C   UNL     1       4.946   1.414  -0.572  0.00  0.00    +0.001 A 
ATOM     18  C   UNL     1       5.606   1.058  -1.746  0.00  0.00    +0.001 A 
ATOM     19  C   UNL     1       4.957   0.395  -2.742  0.00  0.00    +0.008 A 
ENDBRANCH   4  10
BRANCH   1  20
ATOM     20  C   UNL     1       0.649  -1.851   2.923  0.00  0.00    +0.213 C 
BRANCH  20  27
ATOM     21  C   UNL     1      -0.077  -0.939   6.577  0.00  0.00    +0.076 C 
ATOM     22  C   UNL     1       1.054  -0.947   7.604  0.00  0.00    +0.022 C 
ATOM     23  C   UNL     1       1.501  -2.388   7.857  0.00  0.00    +0.003 C 
ATOM     24  C   UNL     1       2.026  -2.997   6.554  0.00  0.00    +0.019 C 
ATOM     25  C   UNL     1       0.901  -3.015   5.514  0.00  0.00    +0.108 C 
ATOM     26  N   UNL     1       0.367  -1.654   5.372  0.00  0.00    -0.297 N 
ATOM     27  C   UNL     1       0.290  -1.069   4.160  0.00  0.00    +0.234 C 
ATOM     28  O   UNL     1      -0.068   0.086   4.065  0.00  0.00    -0.274 OA
BRANCH  21  30
ATOM     29  C   UNL     1      -0.912   1.240   7.468  0.00  0.00    +0.006 C 
ATOM     30  C   UNL     1      -0.430   0.505   6.216  0.00  0.00    +0.019 C 
ENDBRANCH  21  30
ENDBRANCH  20  27
ENDBRANCH   1  20
TORSDOF 4
