REMARK  Name = ZINC33597758
REMARK  7 active torsions:
REMARK  status: ('A' for Active; 'I' for Inactive)
REMARK    1  A    between atoms: C_1  and  C_2
REMARK    2  A    between atoms: C_5  and  C_9
REMARK    3  A    between atoms: C_6  and  C_8
REMARK    4  A    between atoms: N_14  and  C_17
REMARK    5  A    between atoms: N_20  and  C_23
REMARK    6  A    between atoms: C_23  and  C_24
REMARK    7  A    between atoms: N_30  and  C_34
REMARK                            x       y       z     vdW  Elec       q    Type
REMARK                         _______ _______ _______ _____ _____    ______ ____
ROOT
ATOM      1  C   UNL     1      -5.010  -1.374   1.506  0.00  0.00    +0.142 C 
ATOM      2  C   UNL     1      -3.806  -1.527   0.599  0.00  0.00    +0.058 C 
ATOM      3  C   UNL     1      -3.912  -2.371  -0.447  0.00  0.00    +0.042 C 
ATOM      4  C   UNL     1      -2.585  -2.322  -1.170  0.00  0.00    +0.159 C 
ATOM      5  N   UNL     1      -1.767  -1.376  -0.396  0.00  0.00    -0.289 N 
ATOM      6  C   UNL     1      -2.526  -0.937   0.625  0.00  0.00    +0.247 C 
ATOM      7  O   UNL     1      -2.155  -0.134   1.462  0.00  0.00    -0.270 OA
ATOM      8  N   UNL     1      -5.065  -3.064  -0.683  0.00  0.00    -0.260 N 
ATOM      9  C   UNL     1      -6.158  -2.968   0.085  0.00  0.00    +0.307 C 
ATOM     10  O   UNL     1      -7.139  -3.624  -0.203  0.00  0.00    -0.252 OA
ATOM     11  N   UNL     1      -6.205  -2.165   1.167  0.00  0.00    -0.288 N 
ATOM     12  C   UNL     1      -5.108  -3.963  -1.839  0.00  0.00    +0.139 C 
ATOM     13  H   UNL     1      -7.108  -2.093   1.791  0.00  0.00    +0.151 HD
ENDROOT
BRANCH   1  18
ATOM     14  C   UNL     1      -3.395  -2.799   6.869  0.00  0.00    +0.044 C 
ATOM     15  C   UNL     1      -3.816  -2.427   5.470  0.00  0.00    -0.050 A 
ATOM     16  C   UNL     1      -3.044  -2.813   4.390  0.00  0.00    +0.004 A 
ATOM     17  C   UNL     1      -3.433  -2.477   3.107  0.00  0.00    +0.006 A 
ATOM     18  C   UNL     1      -4.589  -1.745   2.905  0.00  0.00    -0.020 A 
ATOM     19  C   UNL     1      -5.360  -1.359   3.984  0.00  0.00    -0.045 A 
ATOM     20  C   UNL     1      -4.974  -1.700   5.267  0.00  0.00    +0.007 A 
ATOM     21  C   UNL     1      -6.623  -0.567   3.763  0.00  0.00    +0.044 C 
ENDBRANCH   1  18
BRANCH   5  22
ATOM     22  C   UNL     1      -0.387  -0.981  -0.686  0.00  0.00    +0.073 C 
ATOM     23  C   UNL     1      -0.327   0.531  -0.925  0.00  0.00    +0.004 C 
ATOM     24  C   UNL     1       1.126   0.947  -1.167  0.00  0.00    -0.077 C 
ATOM     25  N   UNL     1       1.941   0.585  -0.000  0.00  0.00    +0.382 N 
ATOM     26  C   UNL     1       1.937  -0.867   0.221  0.00  0.00    -0.077 C 
ATOM     27  C   UNL     1       0.508  -1.337   0.504  0.00  0.00    +0.004 C 
ATOM     28  H   UNL     1       1.490   1.060   0.884  0.00  0.00    -0.081 HD
BRANCH  25  29
ATOM     29  C   UNL     1       3.312   1.093  -0.139  0.00  0.00    -0.043 C 
BRANCH  29  30
ATOM     30  C   UNL     1       3.295   2.600  -0.117  0.00  0.00    -0.064 A 
ATOM     31  C   UNL     1       3.167   3.306  -1.299  0.00  0.00    +0.002 A 
ATOM     32  C   UNL     1       3.146   4.688  -1.279  0.00  0.00    +0.000 A 
ATOM     33  C   UNL     1       3.263   5.364  -0.079  0.00  0.00    +0.000 A 
ATOM     34  C   UNL     1       3.396   4.658   1.102  0.00  0.00    +0.000 A 
ATOM     35  C   UNL     1       3.412   3.276   1.083  0.00  0.00    +0.002 A 
ENDBRANCH  29  30
ENDBRANCH  25  29
ENDBRANCH   5  22
TORSDOF 4
