REMARK  Name = ZINC21325862
REMARK  13 active torsions:
REMARK  status: ('A' for Active; 'I' for Inactive)
REMARK    1  A    between atoms: C_1  and  C_2
REMARK    2  A    between atoms: C_2  and  N_3
REMARK    3  A    between atoms: N_3  and  C_4
REMARK    4  A    between atoms: N_3  and  C_6
REMARK    5  A    between atoms: C_4  and  C_5
REMARK    6  A    between atoms: C_9  and  C_13
REMARK    7  A    between atoms: C_10  and  O_12
REMARK    8  A    between atoms: N_14  and  N_15
REMARK    9  A    between atoms: C_19  and  S_22
REMARK   10  A    between atoms: N_20  and  N_21
REMARK   11  A    between atoms: S_22  and  C_23
REMARK   12  A    between atoms: C_23  and  C_24
REMARK   13  A    between atoms: N_26  and  C_27
REMARK                            x       y       z     vdW  Elec       q    Type
REMARK                         _______ _______ _______ _____ _____    ______ ____
ROOT
ATOM      1  N   UNL     1       4.936   1.635  -4.641  0.00  0.00    -0.204 N 
ATOM      2  C   UNL     1       4.112   1.472  -3.537  0.00  0.00    +0.254 A 
ATOM      3  N   UNL     1       3.600   0.340  -3.118  0.00  0.00    -0.109 NA
ATOM      4  N   UNL     1       2.835   0.607  -1.975  0.00  0.00    -0.119 NA
ATOM      5  C   UNL     1       2.899   1.896  -1.737  0.00  0.00    +0.210 A 
ATOM      6  N   UNL     1       3.692   2.463  -2.694  0.00  0.00    -0.211 N 
ATOM      7  H   UNL     1       5.312   2.635  -4.903  0.00  0.00    +0.177 HD
ENDROOT
BRANCH   6   8
ATOM      8  N   UNL     1       4.009   3.788  -2.791  0.00  0.00    -0.294 N 
ATOM      9  H   UNL     1       3.614   4.504  -2.055  0.00  0.00    +0.163 HD
ATOM     10  H   UNL     1       4.660   4.139  -3.606  0.00  0.00    +0.163 HD
ENDBRANCH   6   8
BRANCH   1  12
ATOM     11  C   UNL     1       6.061   0.679  -6.455  0.00  0.00    +0.142 C 
ATOM     12  N   UNL     1       5.290   0.527  -5.421  0.00  0.00    -0.187 NA
BRANCH  11  16
ATOM     13  C   UNL     1       7.135  -2.682  -8.821  0.00  0.00    +0.033 A 
ATOM     14  C   UNL     1       7.608  -1.417  -9.153  0.00  0.00    +0.024 A 
ATOM     15  C   UNL     1       7.262  -0.324  -8.388  0.00  0.00    +0.015 A 
ATOM     16  C   UNL     1       6.433  -0.486  -7.275  0.00  0.00    +0.036 A 
ATOM     17  C   UNL     1       5.960  -1.763  -6.939  0.00  0.00    +0.127 A 
ATOM     18  C   UNL     1       6.310  -2.852  -7.716  0.00  0.00    +0.069 A 
BRANCH  17  19
ATOM     19  O   UNL     1       5.157  -1.928  -5.856  0.00  0.00    -0.506 OA
ATOM     20  H   UNL     1       4.787  -2.931  -5.593  0.00  0.00    +0.292 HD
ENDBRANCH  17  19
BRANCH  13  21
ATOM     21  N   UNL     1       7.490  -3.784  -9.600  0.00  0.00    -0.330 N 
BRANCH  21  23
ATOM     22  C   UNL     1       9.821  -3.761 -10.338  0.00  0.00    +0.024 C 
ATOM     23  C   UNL     1       8.360  -3.607 -10.765  0.00  0.00    +0.102 C 
ENDBRANCH  21  23
BRANCH  21  24
ATOM     24  C   UNL     1       6.992  -5.117  -9.253  0.00  0.00    +0.102 C 
ATOM     25  C   UNL     1       5.661  -5.366  -9.964  0.00  0.00    +0.024 C 
ENDBRANCH  21  24
ENDBRANCH  13  21
ENDBRANCH  11  16
ENDBRANCH   1  12
BRANCH   5  26
ATOM     26  S   UNL     1       2.106   2.744  -0.412  0.00  0.00    -0.075 S 
BRANCH  26  27
ATOM     27  C   UNL     1       1.220   1.436   0.480  0.00  0.00    +0.173 C 
BRANCH  27  28
ATOM     28  C   UNL     1       0.489   2.035   1.654  0.00  0.00    +0.228 C 
ATOM     29  O   UNL     1       0.559   3.227   1.868  0.00  0.00    -0.275 OA
ATOM     30  N   UNL     1      -0.242   1.246   2.466  0.00  0.00    -0.280 N 
ATOM     31  H   UNL     1      -0.373   0.181   2.225  0.00  0.00    +0.155 HD
BRANCH  30  32
ATOM     32  C   UNL     1      -0.834   1.783   3.617  0.00  0.00    +0.105 A 
ATOM     33  C   UNL     1      -0.135   1.798   4.818  0.00  0.00    +0.147 A 
ATOM     34  C   UNL     1      -0.722   2.334   5.951  0.00  0.00    +0.040 A 
ATOM     35  C   UNL     1      -2.006   2.844   5.891  0.00  0.00    +0.006 A 
ATOM     36  C   UNL     1      -2.707   2.825   4.700  0.00  0.00    +0.040 A 
ATOM     37  C   UNL     1      -2.125   2.296   3.562  0.00  0.00    +0.147 A 
ATOM     38  F   UNL     1      -2.811   2.277   2.398  0.00  0.00    -0.203 F 
ATOM     39  F   UNL     1       1.117   1.296   4.878  0.00  0.00    -0.203 F 
ENDBRANCH  30  32
ENDBRANCH  27  28
ENDBRANCH  26  27
ENDBRANCH   5  26
TORSDOF 11
