REMARK  Name = ZINC20310836
REMARK  8 active torsions:
REMARK  status: ('A' for Active; 'I' for Inactive)
REMARK    1  A    between atoms: C_1  and  C_2
REMARK    2  A    between atoms: C_2  and  C_4
REMARK    3  A    between atoms: C_7  and  N_10
REMARK    4  A    between atoms: C_11  and  C_13
REMARK    5  A    between atoms: C_13  and  S_14
REMARK    6  A    between atoms: S_14  and  C_15
REMARK    7  A    between atoms: N_25  and  C_26
REMARK    8  A    between atoms: C_26  and  C_27
REMARK                            x       y       z     vdW  Elec       q    Type
REMARK                         _______ _______ _______ _____ _____    ______ ____
ROOT
ATOM      1  C   UNL     1      -1.134  -2.071   0.372  0.00  0.00    +0.173 A 
ATOM      2  N   UNL     1      -1.134  -0.773   0.193  0.00  0.00    -0.223 NA
ATOM      3  C   UNL     1       0.013  -0.067   0.136  0.00  0.00    +0.079 A 
ATOM      4  C   UNL     1       0.013   1.318  -0.055  0.00  0.00    +0.028 A 
ATOM      5  C   UNL     1       1.199   1.994  -0.105  0.00  0.00    +0.002 A 
ATOM      6  C   UNL     1       2.409   1.325   0.031  0.00  0.00    +0.001 A 
ATOM      7  C   UNL     1       2.442  -0.029   0.220  0.00  0.00    +0.015 A 
ATOM      8  C   UNL     1       1.246  -0.744   0.275  0.00  0.00    +0.065 A 
ATOM      9  C   UNL     1       1.221  -2.199   0.476  0.00  0.00    +0.263 A 
ATOM     10  O   UNL     1       2.250  -2.837   0.601  0.00  0.00    -0.267 OA
ATOM     11  N   UNL     1       0.010  -2.803   0.516  0.00  0.00    -0.283 N 
ENDROOT
BRANCH   1  12
ATOM     12  S   UNL     1      -2.681  -2.911   0.432  0.00  0.00    -0.078 S 
BRANCH  12  13
ATOM     13  C   UNL     1      -3.807  -1.513   0.197  0.00  0.00    +0.173 C 
BRANCH  13  15
ATOM     14  N   UNL     1      -6.248  -1.137   0.055  0.00  0.00    -0.285 N 
ATOM     15  C   UNL     1      -5.231  -2.007   0.213  0.00  0.00    +0.227 C 
ATOM     16  O   UNL     1      -5.462  -3.187   0.368  0.00  0.00    -0.275 OA
ATOM     17  H   UNL     1      -6.044  -0.057   0.001  0.00  0.00    +0.155 HD
BRANCH  14  21
ATOM     18  C   UNL     1     -10.156  -2.533  -0.230  0.00  0.00    +0.017 A 
ATOM     19  C   UNL     1      -9.893  -1.302   0.385  0.00  0.00    +0.013 A 
ATOM     20  C   UNL     1      -8.604  -0.846   0.477  0.00  0.00    +0.024 A 
ATOM     21  C   UNL     1      -7.556  -1.604  -0.040  0.00  0.00    +0.033 A 
ATOM     22  C   UNL     1      -7.814  -2.825  -0.657  0.00  0.00    +0.024 A 
ATOM     23  C   UNL     1      -9.100  -3.292  -0.748  0.00  0.00    +0.013 A 
BRANCH  18  25
ATOM     24  C   UNL     1     -11.816  -4.350  -0.992  0.00  0.00    +0.091 C 
ATOM     25  C   UNL     1     -11.536  -3.026  -0.330  0.00  0.00    +0.160 C 
ATOM     26  O   UNL     1     -12.450  -2.367   0.121  0.00  0.00    -0.292 OA
ENDBRANCH  18  25
ENDBRANCH  14  21
ENDBRANCH  13  15
ENDBRANCH  12  13
ENDBRANCH   1  12
BRANCH  11  27
ATOM     27  C   UNL     1      -0.073  -4.252   0.713  0.00  0.00    +0.162 C 
BRANCH  27  28
ATOM     28  C   UNL     1      -0.051  -4.944  -0.626  0.00  0.00    -0.024 A 
ATOM     29  C   UNL     1       1.155  -5.322  -1.186  0.00  0.00    +0.009 A 
ATOM     30  C   UNL     1       1.181  -5.957  -2.414  0.00  0.00    +0.050 A 
ATOM     31  C   UNL     1      -0.002  -6.216  -3.086  0.00  0.00    +0.166 A 
ATOM     32  C   UNL     1      -1.217  -5.835  -2.521  0.00  0.00    +0.167 A 
ATOM     33  C   UNL     1      -1.236  -5.204  -1.288  0.00  0.00    +0.055 A 
ATOM     34  O   UNL     1      -2.224  -6.197  -3.368  0.00  0.00    -0.453 OA
ATOM     35  C   UNL     1      -1.645  -7.165  -4.262  0.00  0.00    +0.466 C 
ATOM     36  O   UNL     1      -0.249  -6.817  -4.287  0.00  0.00    -0.453 OA
ENDBRANCH  27  28
ENDBRANCH  11  27
TORSDOF 7
