REMARK  Name = ZINC13980767
REMARK  8 active torsions:
REMARK  status: ('A' for Active; 'I' for Inactive)
REMARK    1  A    between atoms: C_1  and  N_2
REMARK    2  A    between atoms: N_2  and  C_3
REMARK    3  A    between atoms: N_2  and  S_10
REMARK    4  A    between atoms: C_3  and  C_4
REMARK    5  A    between atoms: S_10  and  C_13
REMARK    6  A    between atoms: C_16  and  N_19
REMARK    7  A    between atoms: N_20  and  C_21
REMARK    8  A    between atoms: C_26  and  O_27
REMARK                            x       y       z     vdW  Elec       q    Type
REMARK                         _______ _______ _______ _____ _____    ______ ____
ROOT
ATOM      1  C   UNL     1       1.682  -1.059  -1.905  0.00  0.00    +0.106 A 
ATOM      2  C   UNL     1       2.321  -0.106  -2.678  0.00  0.00    +0.030 A 
ATOM      3  C   UNL     1       3.638  -0.283  -3.049  0.00  0.00    +0.031 A 
ATOM      4  C   UNL     1       4.326  -1.429  -2.642  0.00  0.00    +0.086 A 
ATOM      5  C   UNL     1       3.674  -2.388  -1.861  0.00  0.00    +0.031 A 
ATOM      6  C   UNL     1       2.359  -2.194  -1.494  0.00  0.00    +0.030 A 
ENDROOT
BRANCH   1   7
ATOM      7  S   UNL     1      -0.000  -0.824  -1.437  0.00  0.00    +0.061 S 
ATOM      8  O   UNL     1      -0.531  -2.115  -1.167  0.00  0.00    -0.153 OA
ATOM      9  O   UNL     1      -0.572   0.049  -2.401  0.00  0.00    -0.153 OA
BRANCH   7  11
ATOM     10  C   UNL     1      -0.018   1.461   0.010  0.00  0.00    +0.132 C 
ATOM     11  N   UNL     1       0.002  -0.004   0.002  0.00  0.00    -0.175 NA
BRANCH  11  12
ATOM     12  C   UNL     1       0.024  -0.743   1.267  0.00  0.00    +0.144 C 
BRANCH  12  13
ATOM     13  C   UNL     1      -1.384  -0.909   1.776  0.00  0.00    -0.032 A 
ATOM     14  C   UNL     1      -1.936   0.049   2.606  0.00  0.00    +0.005 A 
ATOM     15  C   UNL     1      -3.228  -0.104   3.074  0.00  0.00    +0.000 A 
ATOM     16  C   UNL     1      -3.969  -1.213   2.711  0.00  0.00    +0.000 A 
ATOM     17  C   UNL     1      -3.417  -2.170   1.880  0.00  0.00    +0.000 A 
ATOM     18  C   UNL     1      -2.126  -2.016   1.409  0.00  0.00    +0.005 A 
ENDBRANCH  12  13
ENDBRANCH  11  12
ENDBRANCH   7  11
ENDBRANCH   1   7
BRANCH   4  19
ATOM     19  N   UNL     1       5.631  -1.612  -3.006  0.00  0.00    -0.149 NA
ATOM     20  N   UNL     1       6.264  -2.671  -2.628  0.00  0.00    -0.146 NA
BRANCH  20  21
ATOM     21  C   UNL     1       7.567  -2.853  -2.991  0.00  0.00    +0.130 A 
ATOM     22  C   UNL     1       8.221  -1.892  -3.768  0.00  0.00    +0.048 A 
ATOM     23  C   UNL     1       9.538  -2.082  -4.131  0.00  0.00    +0.022 A 
ATOM     24  C   UNL     1      10.216  -3.223  -3.731  0.00  0.00    +0.039 A 
ATOM     25  C   UNL     1       9.580  -4.181  -2.963  0.00  0.00    +0.086 A 
ATOM     26  C   UNL     1       8.258  -4.003  -2.583  0.00  0.00    +0.162 A 
ATOM     27 CL   UNL     1      10.440  -5.606  -2.469  0.00  0.00    -0.080 Cl
ATOM     28 BR   UNL     1      10.421  -0.781  -5.182  0.00  0.00    -0.050 Br
BRANCH  26  29
ATOM     29  O   UNL     1       7.635  -4.940  -1.825  0.00  0.00    -0.503 OA
ATOM     30  H   UNL     1       7.191  -5.630  -2.337  0.00  0.00    +0.292 HD
ENDBRANCH  26  29
ENDBRANCH  20  21
ENDBRANCH   4  19
TORSDOF 7
