REMARK  Name = ZINC13565000
REMARK  5 active torsions:
REMARK  status: ('A' for Active; 'I' for Inactive)
REMARK    1  A    between atoms: C_1  and  C_2
REMARK    2  A    between atoms: C_6  and  C_8
REMARK    3  A    between atoms: C_17  and  C_19
REMARK    4  A    between atoms: C_25  and  C_27
REMARK    5  A    between atoms: C_27  and  N_28
REMARK                            x       y       z     vdW  Elec       q    Type
REMARK                         _______ _______ _______ _____ _____    ______ ____
ROOT
ATOM      1  C   UNL     1       0.666  -7.862  -1.825  0.00  0.00    +0.080 A 
ATOM      2  C   UNL     1       0.790  -7.464  -3.127  0.00  0.00    +0.076 A 
ATOM      3  S   UNL     1       0.907  -9.049  -3.947  0.00  0.00    -0.060 S 
ATOM      4  C   UNL     1       0.779 -10.068  -2.484  0.00  0.00    +0.165 A 
ATOM      5  N   UNL     1       0.669  -9.155  -1.537  0.00  0.00    -0.225 NA
ATOM      6  N   UNL     1       0.797 -11.453  -2.373  0.00  0.00    -0.264 N 
ATOM      7  C   UNL     1       0.925 -12.216  -3.477  0.00  0.00    +0.233 C 
ATOM      8  O   UNL     1       1.025 -11.693  -4.567  0.00  0.00    -0.274 OA
ATOM      9  H   UNL     1       0.717 -11.870  -1.502  0.00  0.00    +0.157 HD
ENDROOT
BRANCH   1  19
ATOM     10  C   UNL     1       0.053  -2.845   2.457  0.00  0.00    +0.251 C 
ATOM     11  O   UNL     1      -0.061  -2.233   1.413  0.00  0.00    -0.270 OA
ATOM     12  N   UNL     1       0.172  -4.188   2.442  0.00  0.00    -0.267 N 
ATOM     13  C   UNL     1       0.195  -5.042   3.632  0.00  0.00    +0.118 C 
ATOM     14  C   UNL     1       0.346  -6.476   3.097  0.00  0.00    +0.056 C 
ATOM     15  C   UNL     1       0.400  -6.317   1.594  0.00  0.00    -0.024 A 
ATOM     16  C   UNL     1       0.287  -4.969   1.288  0.00  0.00    +0.040 A 
ATOM     17  C   UNL     1       0.305  -4.569  -0.051  0.00  0.00    +0.024 A 
ATOM     18  C   UNL     1       0.427  -5.501  -1.056  0.00  0.00    +0.012 A 
ATOM     19  C   UNL     1       0.535  -6.855  -0.744  0.00  0.00    +0.001 A 
ATOM     20  C   UNL     1       0.528  -7.256   0.592  0.00  0.00    +0.015 A 
BRANCH  10  26
ATOM     21  C   UNL     1       0.158   1.457   4.982  0.00  0.00    +0.044 C 
ATOM     22  C   UNL     1       0.110  -0.049   4.963  0.00  0.00    -0.050 A 
ATOM     23  C   UNL     1       0.072  -0.754   6.154  0.00  0.00    +0.003 A 
ATOM     24  C   UNL     1       0.028  -2.136   6.145  0.00  0.00    +0.001 A 
ATOM     25  C   UNL     1       0.021  -2.822   4.948  0.00  0.00    +0.013 A 
ATOM     26  C   UNL     1       0.059  -2.118   3.744  0.00  0.00    +0.037 A 
ATOM     27  C   UNL     1       0.098  -0.722   3.759  0.00  0.00    +0.016 A 
ENDBRANCH  10  26
ENDBRANCH   1  19
BRANCH   7  28
ATOM     28  C   UNL     1       0.944 -13.718  -3.356  0.00  0.00    +0.181 C 
BRANCH  28  29
ATOM     29  N   UNL     1       1.092 -14.314  -4.691  0.00  0.00    -0.289 NA
ATOM     30  C   UNL     1       0.900 -15.772  -4.641  0.00  0.00    +0.090 C 
ATOM     31  C   UNL     1       0.699 -16.284  -6.067  0.00  0.00    +0.051 C 
ATOM     32  C   UNL     1       1.794 -15.760  -6.961  0.00  0.00    -0.042 A 
ATOM     33  C   UNL     1       2.002 -16.379  -8.184  0.00  0.00    +0.004 A 
ATOM     34  C   UNL     1       2.992 -15.928  -9.034  0.00  0.00    +0.000 A 
ATOM     35  C   UNL     1       3.779 -14.853  -8.664  0.00  0.00    +0.000 A 
ATOM     36  C   UNL     1       3.573 -14.237  -7.447  0.00  0.00    +0.005 A 
ATOM     37  C   UNL     1       2.581 -14.691  -6.590  0.00  0.00    -0.030 A 
ATOM     38  C   UNL     1       2.402 -13.994  -5.267  0.00  0.00    +0.120 C 
ENDBRANCH  28  29
ENDBRANCH   7  28
TORSDOF 4
