REMARK  Name = ZINC04739513
REMARK  10 active torsions:
REMARK  status: ('A' for Active; 'I' for Inactive)
REMARK    1  A    between atoms: C_1  and  C_2
REMARK    2  A    between atoms: C_2  and  C_3
REMARK    3  A    between atoms: C_2  and  C_4
REMARK    4  A    between atoms: C_2  and  O_5
REMARK    5  A    between atoms: O_5  and  C_6
REMARK    6  A    between atoms: C_6  and  C_8
REMARK    7  A    between atoms: C_12  and  N_13
REMARK    8  A    between atoms: C_14  and  C_15
REMARK    9  A    between atoms: C_24  and  O_25
REMARK   10  A    between atoms: C_29  and  N_56
REMARK                            x       y       z     vdW  Elec       q    Type
REMARK                         _______ _______ _______ _____ _____    ______ ____
ROOT
ATOM      1  C   UNL     1      -2.730   9.429   0.075  0.00  0.00    +0.095 A 
ATOM      2  C   UNL     1      -4.053   9.902   0.088  0.00  0.00    -0.025 A 
ATOM      3  C   UNL     1      -5.040   8.972   0.093  0.00  0.00    -0.021 A 
ATOM      4  S   UNL     1      -4.191   7.417   0.070  0.00  0.00    -0.075 S 
ATOM      5  C   UNL     1      -2.518   8.042   0.066  0.00  0.00    +0.115 A 
ATOM      6  C   UNL     1      -6.514   9.231   0.108  0.00  0.00    -0.036 C 
ATOM      7  C   UNL     1      -5.878  11.523  -0.338  0.00  0.00    -0.074 C 
ATOM      8  C   UNL     1      -4.416  11.386   0.096  0.00  0.00    +0.018 C 
ATOM      9  C   UNL     1      -8.146  11.011   0.336  0.00  0.00    -0.096 C 
ATOM     10  N   UNL     1      -6.722  10.646   0.498  0.00  0.00    +0.381 N 
ATOM     11  H   UNL     1      -6.457  10.765   1.482  0.00  0.00    -0.082 HD
ENDROOT
BRANCH   1  12
ATOM     12  C   UNL     1      -1.600  10.360   0.070  0.00  0.00    +0.343 C 
ATOM     13  O   UNL     1      -1.140  10.752  -0.986  0.00  0.00    -0.245 OA
BRANCH  12  14
ATOM     14  O   UNL     1      -1.070  10.783   1.235  0.00  0.00    -0.455 OA
BRANCH  14  16
ATOM     15  C   UNL     1      -0.389  12.973   0.417  0.00  0.00    +0.055 C 
ATOM     16  C   UNL     1       0.048  11.706   1.154  0.00  0.00    +0.106 C 
ATOM     17  C   UNL     1       0.512  12.071   2.566  0.00  0.00    +0.055 C 
ATOM     18  C   UNL     1       1.200  11.046   0.395  0.00  0.00    +0.055 C 
ENDBRANCH  14  16
ENDBRANCH  12  14
ENDBRANCH   1  12
BRANCH   5  19
ATOM     19  N   UNL     1      -1.355   7.360   0.052  0.00  0.00    -0.247 NA
ATOM     20  C   UNL     1      -1.365   6.049   0.045  0.00  0.00    +0.124 C 
BRANCH  20  21
ATOM     21  C   UNL     1      -0.104   5.309   0.030  0.00  0.00    +0.042 A 
ATOM     22  C   UNL     1      -0.095   3.844   0.023  0.00  0.00    -0.006 A 
ATOM     23  C   UNL     1      -1.284   3.108   0.030  0.00  0.00    +0.009 A 
ATOM     24  C   UNL     1      -1.233   1.745   0.017  0.00  0.00    +0.001 A 
ATOM     25  C   UNL     1      -0.013   1.076   0.008  0.00  0.00    +0.001 A 
ATOM     26  C   UNL     1       1.164   1.763   0.000  0.00  0.00    +0.008 A 
ATOM     27  C   UNL     1       1.148   3.168   0.008  0.00  0.00    -0.017 A 
ATOM     28  C   UNL     1       2.343   3.910   0.001  0.00  0.00    +0.012 A 
ATOM     29  C   UNL     1       2.320   5.269   0.008  0.00  0.00    +0.046 A 
ATOM     30  C   UNL     1       1.122   5.984   0.022  0.00  0.00    +0.126 A 
BRANCH  30  31
ATOM     31  O   UNL     1       1.146   7.339   0.029  0.00  0.00    -0.506 OA
ATOM     32  H   UNL     1       1.161   7.728   0.914  0.00  0.00    +0.292 HD
ENDBRANCH  30  31
ENDBRANCH  20  21
ENDBRANCH   5  19
TORSDOF 6
