REMARK  Name = ZINC35705855
REMARK  10 active torsions:
REMARK  status: ('A' for Active; 'I' for Inactive)
REMARK    1  A    between atoms: C_1  and  C_2
REMARK    2  A    between atoms: C_5  and  C_8
REMARK    3  A    between atoms: C_8  and  N_9
REMARK    4  A    between atoms: N_9  and  C_10
REMARK    5  A    between atoms: N_9  and  C_20
REMARK    6  A    between atoms: C_10  and  C_11
REMARK    7  A    between atoms: C_20  and  C_21
REMARK    8  A    between atoms: C_23  and  C_26
REMARK    9  A    between atoms: N_28  and  C_29
REMARK   10  A    between atoms: C_29  and  C_30
REMARK                            x       y       z     vdW  Elec       q    Type
REMARK                         _______ _______ _______ _____ _____    ______ ____
ROOT
ATOM      1  N   UNL     1       1.479  -4.683  -0.092  0.00  0.00    +0.391 N 
ATOM      2  H   UNL     1       2.059  -4.247  -0.793  0.00  0.00    -0.080 HD
ENDROOT
BRANCH   1   3
ATOM      3  C   UNL     1       0.135  -4.091  -0.131  0.00  0.00    -0.042 C 
BRANCH   3   8
ATOM      4  C   UNL     1       0.535   1.644   0.455  0.00  0.00    +0.044 C 
ATOM      5  C   UNL     1       0.431   0.148   0.302  0.00  0.00    -0.050 A 
ATOM      6  C   UNL     1       0.597  -0.432  -0.941  0.00  0.00    +0.003 A 
ATOM      7  C   UNL     1       0.502  -1.804  -1.081  0.00  0.00    +0.002 A 
ATOM      8  C   UNL     1       0.240  -2.595   0.022  0.00  0.00    -0.064 A 
ATOM      9  C   UNL     1       0.075  -2.014   1.265  0.00  0.00    +0.002 A 
ATOM     10  C   UNL     1       0.175  -0.643   1.406  0.00  0.00    +0.003 A 
ENDBRANCH   3   8
ENDBRANCH   1   3
BRANCH   1  11
ATOM     11  C   UNL     1       1.387  -6.124  -0.358  0.00  0.00    -0.042 C 
BRANCH  11  12
ATOM     12  C   UNL     1       0.896  -6.345  -1.766  0.00  0.00    -0.060 A 
ATOM     13  C   UNL     1      -0.460  -6.441  -2.015  0.00  0.00    +0.005 A 
ATOM     14  C   UNL     1      -0.916  -6.643  -3.305  0.00  0.00    +0.050 A 
ATOM     15  C   UNL     1      -0.013  -6.750  -4.350  0.00  0.00    +0.166 A 
ATOM     16  C   UNL     1       1.353  -6.653  -4.099  0.00  0.00    +0.166 A 
ATOM     17  C   UNL     1       1.802  -6.445  -2.805  0.00  0.00    +0.051 A 
ATOM     18  O   UNL     1       2.025  -6.789  -5.279  0.00  0.00    -0.453 OA
ATOM     19  C   UNL     1       1.080  -7.377  -6.193  0.00  0.00    +0.466 C 
ATOM     20  O   UNL     1      -0.198  -6.946  -5.689  0.00  0.00    -0.453 OA
ENDBRANCH  11  12
ENDBRANCH   1  11
BRANCH   1  21
ATOM     21  C   UNL     1       2.071  -4.467   1.236  0.00  0.00    +0.020 C 
BRANCH  21  22
ATOM     22  C   UNL     1       3.498  -4.949   1.234  0.00  0.00    +0.179 A 
ATOM     23  N   UNL     1       4.539  -4.219   0.968  0.00  0.00    -0.210 NA
ATOM     24  C   UNL     1       5.650  -4.998   1.067  0.00  0.00    +0.163 A 
ATOM     25  C   UNL     1       5.233  -6.248   1.408  0.00  0.00    +0.230 A 
ATOM     26  O   UNL     1       3.895  -6.199   1.513  0.00  0.00    -0.449 OA
BRANCH  24  27
ATOM     27  C   UNL     1       7.043  -4.570   0.845  0.00  0.00    +0.266 C 
ATOM     28  O   UNL     1       7.942  -5.388   0.872  0.00  0.00    -0.268 OA
ATOM     29  N   UNL     1       7.320  -3.272   0.612  0.00  0.00    -0.303 N 
ATOM     30  H   UNL     1       6.615  -2.608   0.666  0.00  0.00    +0.150 HD
BRANCH  29  31
ATOM     31  C   UNL     1       8.686  -2.863   0.276  0.00  0.00    +0.179 C 
BRANCH  31  32
ATOM     32  C   UNL     1       8.752  -1.361   0.182  0.00  0.00    +0.122 A 
ATOM     33  C   UNL     1       9.036  -0.520   1.193  0.00  0.00    +0.046 A 
ATOM     34  C   UNL     1       8.989   0.789   0.663  0.00  0.00    +0.041 A 
ATOM     35  C   UNL     1       8.680   0.672  -0.640  0.00  0.00    +0.195 A 
ATOM     36  O   UNL     1       8.543  -0.633  -0.928  0.00  0.00    -0.466 OA
ENDBRANCH  31  32
ENDBRANCH  29  31
ENDBRANCH  24  27
ENDBRANCH  21  22
ENDBRANCH   1  21
TORSDOF 9
