REMARK  Name = ZINC63469973
REMARK  5 active torsions:
REMARK  status: ('A' for Active; 'I' for Inactive)
REMARK    1  A    between atoms: C_3  and  N_16
REMARK    2  A    between atoms: C_6  and  C_7
REMARK    3  A    between atoms: N_9  and  C_10
REMARK    4  A    between atoms: N_16  and  C_17
REMARK    5  A    between atoms: C_17  and  C_18
REMARK                            x       y       z     vdW  Elec       q    Type
REMARK                         _______ _______ _______ _____ _____    ______ ____
ROOT
ATOM      1  C   UNL     1      -0.017   1.394   0.010  0.00  0.00    +0.015 A 
ATOM      2  C   UNL     1       1.166   2.096   0.002  0.00  0.00    +0.023 A 
ATOM      3  C   UNL     1       2.381   1.417  -0.013  0.00  0.00    +0.027 A 
ATOM      4  C   UNL     1       2.403   0.025  -0.021  0.00  0.00    +0.023 A 
ATOM      5  C   UNL     1       1.224  -0.684  -0.014  0.00  0.00    +0.015 A 
ATOM      6  C   UNL     1       0.002  -0.004   0.002  0.00  0.00    +0.037 A 
ENDROOT
BRANCH   6   7
ATOM      7  C   UNL     1      -1.264  -0.760   0.011  0.00  0.00    +0.244 C 
ATOM      8  O   UNL     1      -2.326  -0.168   0.024  0.00  0.00    -0.270 OA
ATOM      9  N   UNL     1      -1.244  -2.108   0.003  0.00  0.00    -0.308 N 
ATOM     10  H   UNL     1      -0.397  -2.581  -0.008  0.00  0.00    +0.149 HD
BRANCH   9  11
ATOM     11  C   UNL     1      -2.502  -2.859   0.012  0.00  0.00    +0.073 C 
ATOM     12  C   UNL     1      -2.990  -3.021   1.453  0.00  0.00    +0.022 C 
ATOM     13  C   UNL     1      -4.304  -3.805   1.462  0.00  0.00    +0.002 C 
ATOM     14  C   UNL     1      -4.077  -5.186   0.842  0.00  0.00    +0.000 C 
ATOM     15  C   UNL     1      -3.589  -5.024  -0.599  0.00  0.00    +0.002 C 
ATOM     16  C   UNL     1      -2.276  -4.240  -0.608  0.00  0.00    +0.022 C 
ENDBRANCH   9  11
ENDBRANCH   6   7
BRANCH   3  17
ATOM     17  N   UNL     1       3.575   2.130  -0.021  0.00  0.00    -0.338 N 
ATOM     18  H   UNL     1       3.561   3.100  -0.016  0.00  0.00    +0.146 HD
BRANCH  17  19
ATOM     19  C   UNL     1       4.854   1.416  -0.037  0.00  0.00    +0.155 C 
BRANCH  19  20
ATOM     20  C   UNL     1       5.985   2.412  -0.043  0.00  0.00    +0.040 A 
ATOM     21  C   UNL     1       6.857   2.490   1.022  0.00  0.00    +0.093 A 
ATOM     22  C   UNL     1       7.898   3.419   0.998  0.00  0.00    +0.259 A 
ATOM     23  O   UNL     1       8.673   3.492   1.938  0.00  0.00    -0.267 OA
ATOM     24  N   UNL     1       8.050   4.246  -0.079  0.00  0.00    -0.263 N 
ATOM     25  C   UNL     1       9.019   5.205  -0.249  0.00  0.00    +0.104 A 
ATOM     26  C   UNL     1       9.061   5.952  -1.352  0.00  0.00    +0.067 A 
ATOM     27  S   UNL     1       7.667   5.324  -2.274  0.00  0.00    -0.059 S 
ATOM     28  C   UNL     1       7.140   4.101  -1.092  0.00  0.00    +0.158 A 
ATOM     29  N   UNL     1       6.163   3.228  -1.079  0.00  0.00    -0.337 N 
ATOM     30  H   UNL     1       5.557   3.179  -1.835  0.00  0.00    +0.168 HD
ENDBRANCH  19  20
ENDBRANCH  17  19
ENDBRANCH   3  17
TORSDOF 5
