REMARK  Name = ZINC01381937
REMARK  10 active torsions:
REMARK  status: ('A' for Active; 'I' for Inactive)
REMARK    1  A    between atoms: C_1  and  C_2
REMARK    2  A    between atoms: C_5  and  C_41
REMARK    3  A    between atoms: C_6  and  N_8
REMARK    4  A    between atoms: N_11  and  C_14
REMARK    5  A    between atoms: C_14  and  C_16
REMARK    6  A    between atoms: C_14  and  C_30
REMARK    7  A    between atoms: C_20  and  C_29
REMARK    8  A    between atoms: C_21  and  C_28
REMARK    9  A    between atoms: N_34  and  C_35
REMARK   10  A    between atoms: C_35  and  C_36
REMARK                            x       y       z     vdW  Elec       q    Type
REMARK                         _______ _______ _______ _____ _____    ______ ____
ROOT
ATOM      1  C   UNL     1      -4.986   3.842   0.066  0.00  0.00    +0.162 C 
ENDROOT
BRANCH   1   2
ATOM      2  C   UNL     1      -3.655   3.137   0.044  0.00  0.00    +0.042 A 
ATOM      3  C   UNL     1      -3.257   2.479  -1.073  0.00  0.00    +0.021 A 
ATOM      4  C   UNL     1      -1.958   1.804  -1.062  0.00  0.00    -0.001 A 
ATOM      5  C   UNL     1      -1.495   1.108  -2.183  0.00  0.00    +0.013 A 
ATOM      6  C   UNL     1      -0.278   0.488  -2.141  0.00  0.00    -0.047 A 
ATOM      7  C   UNL     1       0.503   0.542  -0.994  0.00  0.00    -0.046 A 
ATOM      8  C   UNL     1       0.066   1.222   0.123  0.00  0.00    +0.030 A 
ATOM      9  C   UNL     1      -1.172   1.856   0.105  0.00  0.00    +0.049 A 
ATOM     10  N   UNL     1      -1.631   2.548   1.205  0.00  0.00    -0.322 N 
ATOM     11  H   UNL     1      -1.017   2.602   2.116  0.00  0.00    +0.169 HD
ATOM     12  C   UNL     1      -2.825   3.165   1.186  0.00  0.00    +0.254 A 
ATOM     13  O   UNL     1      -3.202   3.763   2.179  0.00  0.00    -0.268 OA
ATOM     14  C   UNL     1       1.841  -0.149  -0.970  0.00  0.00    +0.044 C 
ATOM     15  C   UNL     1       0.221  -0.261  -3.349  0.00  0.00    +0.044 C 
ENDBRANCH   1   2
BRANCH   1  19
ATOM     16  N   UNL     1      -8.094   1.918   2.185  0.00  0.00    -0.327 N 
ATOM     17  C   UNL     1      -7.946   3.372   2.348  0.00  0.00    +0.120 C 
ATOM     18  C   UNL     1      -7.136   3.934   1.177  0.00  0.00    +0.104 C 
ATOM     19  N   UNL     1      -5.823   3.276   1.132  0.00  0.00    -0.286 NA
ATOM     20  C   UNL     1      -5.971   1.823   0.969  0.00  0.00    +0.104 C 
ATOM     21  C   UNL     1      -6.780   1.260   2.140  0.00  0.00    +0.120 C 
BRANCH  16  27
ATOM     22  C   UNL     1      -8.878   1.111   6.969  0.00  0.00    +0.044 C 
ATOM     23  C   UNL     1      -9.294   0.973   5.527  0.00  0.00    -0.049 A 
ATOM     24  C   UNL     1     -10.466   0.313   5.207  0.00  0.00    +0.004 A 
ATOM     25  C   UNL     1     -10.852   0.184   3.885  0.00  0.00    +0.005 A 
ATOM     26  C   UNL     1     -10.069   0.720   2.880  0.00  0.00    -0.029 A 
ATOM     27  C   UNL     1      -8.889   1.379   3.199  0.00  0.00    +0.033 A 
ATOM     28  C   UNL     1      -8.505   1.507   4.527  0.00  0.00    +0.026 A 
ATOM     29  C   UNL     1     -10.493   0.585   1.441  0.00  0.00    +0.045 C 
ENDBRANCH  16  27
ENDBRANCH   1  19
BRANCH   1  30
ATOM     30  C   UNL     1      -5.673   3.660  -1.263  0.00  0.00    +0.173 A 
ATOM     31  N   UNL     1      -6.262   2.572  -1.696  0.00  0.00    -0.111 NA
ATOM     32  N   UNL     1      -6.728   2.814  -2.873  0.00  0.00    -0.023 NA
ATOM     33  N   UNL     1      -6.452   4.028  -3.201  0.00  0.00    -0.043 NA
ATOM     34  N   UNL     1      -5.807   4.584  -2.232  0.00  0.00    -0.220 N 
BRANCH  34  35
ATOM     35  C   UNL     1      -5.310   5.962  -2.196  0.00  0.00    +0.221 C 
BRANCH  35  36
ATOM     36  C   UNL     1      -3.913   6.007  -2.759  0.00  0.00    +0.126 A 
ATOM     37  C   UNL     1      -3.592   6.199  -4.051  0.00  0.00    +0.046 A 
ATOM     38  C   UNL     1      -2.180   6.171  -4.131  0.00  0.00    +0.041 A 
ATOM     39  C   UNL     1      -1.724   5.955  -2.884  0.00  0.00    +0.195 A 
ATOM     40  O   UNL     1      -2.778   5.856  -2.057  0.00  0.00    -0.466 OA
ENDBRANCH  35  36
ENDBRANCH  34  35
ENDBRANCH   1  30
TORSDOF 6
