REMARK  Name = ZINC02686963
REMARK  9 active torsions:
REMARK  status: ('A' for Active; 'I' for Inactive)
REMARK    1  A    between atoms: C_1  and  C_2
REMARK    2  A    between atoms: C_5  and  N_8
REMARK    3  A    between atoms: C_9  and  C_11
REMARK    4  A    between atoms: C_11  and  C_12
REMARK    5  A    between atoms: N_16  and  C_24
REMARK    6  A    between atoms: C_24  and  C_25
REMARK    7  A    between atoms: N_27  and  C_28
REMARK    8  A    between atoms: C_33  and  O_34
REMARK    9  A    between atoms: O_34  and  C_35
REMARK                            x       y       z     vdW  Elec       q    Type
REMARK                         _______ _______ _______ _____ _____    ______ ____
ROOT
ATOM      1  C   UNL     1       3.734   6.201   0.294  0.00  0.00    +0.166 C 
ATOM      2  C   UNL     1       3.711   7.688   0.537  0.00  0.00    +0.241 C 
ATOM      3  O   UNL     1       3.721   8.111   1.674  0.00  0.00    -0.273 OA
ATOM      4  N   UNL     1       3.680   8.552  -0.497  0.00  0.00    -0.259 N 
ATOM      5  C   UNL     1       3.811   8.100  -1.815  0.00  0.00    +0.058 A 
ATOM      6  C   UNL     1       3.567   8.953  -2.881  0.00  0.00    +0.025 A 
ATOM      7  C   UNL     1       3.680   8.485  -4.177  0.00  0.00    +0.002 A 
ATOM      8  C   UNL     1       4.035   7.170  -4.417  0.00  0.00    +0.002 A 
ATOM      9  C   UNL     1       4.284   6.313  -3.360  0.00  0.00    +0.025 A 
ATOM     10  C   UNL     1       4.176   6.776  -2.061  0.00  0.00    +0.049 A 
ATOM     11  N   UNL     1       4.433   5.931  -0.971  0.00  0.00    -0.331 N 
ATOM     12  H   UNL     1       5.053   5.189  -1.050  0.00  0.00    +0.147 HD
ENDROOT
BRANCH   1  13
ATOM     13  C   UNL     1       2.300   5.673   0.209  0.00  0.00    +0.127 C 
BRANCH  13  15
ATOM     14  N   UNL     1       1.168   3.485  -0.006  0.00  0.00    -0.285 N 
ATOM     15  C   UNL     1       2.324   4.172   0.084  0.00  0.00    +0.219 C 
ATOM     16  O   UNL     1       3.383   3.581   0.065  0.00  0.00    -0.275 OA
ATOM     17  H   UNL     1       0.325   3.960  -0.076  0.00  0.00    +0.155 HD
BRANCH  14  22
ATOM     18  C   UNL     1       1.228  -2.188   0.025  0.00  0.00    +0.044 C 
ATOM     19  C   UNL     1       1.212  -0.681   0.016  0.00  0.00    -0.050 A 
ATOM     20  C   UNL     1       2.236   0.023   0.622  0.00  0.00    +0.005 A 
ATOM     21  C   UNL     1       2.225   1.404   0.616  0.00  0.00    +0.023 A 
ATOM     22  C   UNL     1       1.183   2.086   0.001  0.00  0.00    +0.033 A 
ATOM     23  C   UNL     1       0.156   1.376  -0.607  0.00  0.00    +0.023 A 
ATOM     24  C   UNL     1       0.173  -0.005  -0.597  0.00  0.00    +0.005 A 
ENDBRANCH  14  22
ENDBRANCH  13  15
ENDBRANCH   1  13
BRANCH   4  25
ATOM     25  C   UNL     1       3.507   9.983  -0.237  0.00  0.00    +0.209 C 
BRANCH  25  26
ATOM     26  C   UNL     1       2.038  10.319  -0.235  0.00  0.00    +0.235 C 
ATOM     27  O   UNL     1       1.216   9.449  -0.431  0.00  0.00    -0.274 OA
ATOM     28  N   UNL     1       1.637  11.587  -0.015  0.00  0.00    -0.281 N 
ATOM     29  H   UNL     1       2.294  12.295   0.075  0.00  0.00    +0.155 HD
BRANCH  28  30
ATOM     30  C   UNL     1       0.271  11.883   0.084  0.00  0.00    +0.077 A 
ATOM     31  C   UNL     1      -0.649  11.188  -0.688  0.00  0.00    +0.047 A 
ATOM     32  C   UNL     1      -1.997  11.479  -0.585  0.00  0.00    +0.043 A 
ATOM     33  C   UNL     1      -2.430  12.469   0.279  0.00  0.00    +0.024 A 
ATOM     34  C   UNL     1      -1.518  13.168   1.047  0.00  0.00    +0.049 A 
ATOM     35  C   UNL     1      -0.167  12.880   0.953  0.00  0.00    +0.141 A 
ATOM     36 CL   UNL     1      -3.147  10.604  -1.547  0.00  0.00    -0.083 Cl
BRANCH  35  37
ATOM     37  O   UNL     1       0.731  13.568   1.708  0.00  0.00    -0.493 OA
ATOM     38  C   UNL     1       0.211  14.575   2.577  0.00  0.00    +0.277 C 
ENDBRANCH  35  37
ENDBRANCH  28  30
ENDBRANCH  25  26
ENDBRANCH   4  25
TORSDOF 7
