REMARK  Name = ZINC33050917
REMARK  6 active torsions:
REMARK  status: ('A' for Active; 'I' for Inactive)
REMARK    1  A    between atoms: C_1  and  C_2
REMARK    2  A    between atoms: C_5  and  C_8
REMARK    3  A    between atoms: C_8  and  N_9
REMARK    4  A    between atoms: C_15  and  C_39
REMARK    5  A    between atoms: N_17  and  C_33
REMARK    6  A    between atoms: C_24  and  C_26
REMARK                            x       y       z     vdW  Elec       q    Type
REMARK                         _______ _______ _______ _____ _____    ______ ____
ROOT
ATOM      1  N   UNL     1       3.270   4.587  -3.143  0.00  0.00    -0.295 N 
ATOM      2  C   UNL     1       2.737   4.944  -1.958  0.00  0.00    +0.304 C 
ATOM      3  O   UNL     1       2.739   6.112  -1.618  0.00  0.00    -0.253 OA
ATOM      4  N   UNL     1       2.201   4.008  -1.150  0.00  0.00    -0.269 N 
ATOM      5  C   UNL     1       2.176   2.574  -1.522  0.00  0.00    +0.151 C 
ATOM      6  C   UNL     1       2.460   1.692  -0.342  0.00  0.00    +0.035 A 
ATOM      7  C   UNL     1       3.575   0.900  -0.086  0.00  0.00    +0.067 A 
ATOM      8  N   UNL     1       3.365   0.236   1.026  0.00  0.00    -0.169 NA
ATOM      9  N   UNL     1       2.096   0.586   1.520  0.00  0.00    -0.215 N 
ATOM     10  C   UNL     1       1.576   1.501   0.681  0.00  0.00    +0.146 A 
ATOM     11  N   UNL     1       0.375   2.218   0.729  0.00  0.00    -0.303 N 
ATOM     12  C   UNL     1      -0.885   1.809   1.002  0.00  0.00    +0.093 A 
ATOM     13  C   UNL     1      -1.712   2.865   0.825  0.00  0.00    +0.020 A 
ATOM     14  C   UNL     1      -0.916   3.971   0.456  0.00  0.00    +0.025 A 
ATOM     15  C   UNL     1       0.361   3.557   0.427  0.00  0.00    +0.050 A 
ATOM     16  C   UNL     1       1.604   4.353   0.161  0.00  0.00    +0.155 C 
ATOM     17  C   UNL     1       4.813   0.818  -0.941  0.00  0.00    +0.068 C 
ATOM     18  H   UNL     1       3.267   3.531  -3.451  0.00  0.00    +0.151 HD
ENDROOT
BRANCH  16  19
ATOM     19  C   UNL     1       2.610   4.075   1.248  0.00  0.00    -0.021 A 
ATOM     20  C   UNL     1       2.190   3.937   2.558  0.00  0.00    +0.007 A 
ATOM     21  C   UNL     1       3.111   3.676   3.555  0.00  0.00    +0.020 A 
ATOM     22  C   UNL     1       4.454   3.564   3.244  0.00  0.00    +0.041 A 
ATOM     23  C   UNL     1       4.874   3.707   1.933  0.00  0.00    +0.020 A 
ATOM     24  C   UNL     1       3.952   3.963   0.936  0.00  0.00    +0.007 A 
ATOM     25 CL   UNL     1       5.612   3.243   4.497  0.00  0.00    -0.084 Cl
ENDBRANCH  16  19
BRANCH   9  26
ATOM     26  C   UNL     1       1.486   0.075   2.673  0.00  0.00    +0.068 A 
ATOM     27  C   UNL     1       0.684   0.894   3.457  0.00  0.00    +0.028 A 
ATOM     28  C   UNL     1       0.080   0.387   4.591  0.00  0.00    +0.002 A 
ATOM     29  C   UNL     1       0.281  -0.933   4.951  0.00  0.00    +0.000 A 
ATOM     30  C   UNL     1       1.082  -1.750   4.176  0.00  0.00    +0.002 A 
ATOM     31  C   UNL     1       1.685  -1.250   3.038  0.00  0.00    +0.028 A 
ENDBRANCH   9  26
BRANCH   1  32
ATOM     32  C   UNL     1       3.852   5.605  -4.022  0.00  0.00    +0.141 C 
BRANCH  32  37
ATOM     33  C   UNL     1       5.855   3.090  -8.824  0.00  0.00    +0.044 C 
ATOM     34  C   UNL     1       5.332   3.746  -7.571  0.00  0.00    -0.050 A 
ATOM     35  C   UNL     1       4.028   4.201  -7.522  0.00  0.00    +0.003 A 
ATOM     36  C   UNL     1       3.549   4.803  -6.374  0.00  0.00    +0.005 A 
ATOM     37  C   UNL     1       4.374   4.949  -5.274  0.00  0.00    -0.030 A 
ATOM     38  C   UNL     1       5.679   4.498  -5.325  0.00  0.00    +0.005 A 
ATOM     39  C   UNL     1       6.157   3.892  -6.472  0.00  0.00    +0.003 A 
ENDBRANCH  32  37
ENDBRANCH   1  32
TORSDOF 4
