REMARK  Name = ZINC38999106
REMARK  9 active torsions:
REMARK  status: ('A' for Active; 'I' for Inactive)
REMARK    1  A    between atoms: C_1  and  C_2
REMARK    2  A    between atoms: C_6  and  C_33
REMARK    3  A    between atoms: C_7  and  N_8
REMARK    4  A    between atoms: C_9  and  C_11
REMARK    5  A    between atoms: C_11  and  S_12
REMARK    6  A    between atoms: S_12  and  C_13
REMARK    7  A    between atoms: C_17  and  C_21
REMARK    8  A    between atoms: N_19  and  N_20
REMARK    9  A    between atoms: C_24  and  C_27
REMARK                            x       y       z     vdW  Elec       q    Type
REMARK                         _______ _______ _______ _____ _____    ______ ____
ROOT
ATOM      1  C   UNL     1      -0.333   0.115   7.700  0.00  0.00    +0.214 C 
ATOM      2  N   UNL     1      -1.431   1.108   7.568  0.00  0.00    -0.228 NA
ATOM      3  N   UNL     1      -1.027   2.220   8.432  0.00  0.00    -0.234 NA
ATOM      4  C   UNL     1       0.442   2.145   8.567  0.00  0.00    +0.185 C 
ATOM      5  N   UNL     1       0.882   0.969   7.777  0.00  0.00    -0.197 NA
ATOM      6  H   UNL     1      -2.311   0.716   7.870  0.00  0.00    +0.143 HD
ATOM      7  H   UNL     1      -1.309   3.105   8.038  0.00  0.00    +0.143 HD
ENDROOT
BRANCH   4   8
ATOM      8  C   UNL     1       1.085   3.420   8.017  0.00  0.00    +0.187 C 
ATOM      9  C   UNL     1       0.669   4.627   8.839  0.00  0.00    +0.034 C 
ATOM     10  C   UNL     1       0.019   5.410   7.957  0.00  0.00    +0.091 C 
ATOM     11  N   UNL     1      -0.003   4.825   6.730  0.00  0.00    -0.154 NA
ATOM     12  N   UNL     1       0.563   3.728   6.675  0.00  0.00    -0.176 NA
BRANCH  10  13
ATOM     13  C   UNL     1      -0.589   6.725   8.279  0.00  0.00    +0.002 A 
ATOM     14  C   UNL     1      -0.504   7.236   9.572  0.00  0.00    +0.010 A 
ATOM     15  C   UNL     1      -1.070   8.460   9.866  0.00  0.00    +0.001 A 
ATOM     16  C   UNL     1      -1.721   9.179   8.880  0.00  0.00    +0.000 A 
ATOM     17  C   UNL     1      -1.808   8.676   7.594  0.00  0.00    +0.001 A 
ATOM     18  C   UNL     1      -1.241   7.456   7.288  0.00  0.00    +0.010 A 
ENDBRANCH  10  13
ENDBRANCH   4   8
BRANCH   5  19
ATOM     19  N   UNL     1       1.970   0.269   8.441  0.00  0.00    -0.264 NA
ATOM     20  H   UNL     1       2.213  -0.575   7.943  0.00  0.00    +0.137 HD
ATOM     21  H   UNL     1       2.774   0.869   8.549  0.00  0.00    +0.137 HD
ENDBRANCH   5  19
BRANCH   1  22
ATOM     22  S   UNL     1      -0.266  -0.967   6.246  0.00  0.00    -0.115 S 
BRANCH  22  23
ATOM     23  C   UNL     1      -0.092   0.181   4.852  0.00  0.00    +0.168 C 
BRANCH  23  25
ATOM     24  N   UNL     1       0.107   0.050   2.390  0.00  0.00    -0.284 N 
ATOM     25  C   UNL     1      -0.024  -0.598   3.564  0.00  0.00    +0.227 C 
ATOM     26  O   UNL     1      -0.086  -1.810   3.585  0.00  0.00    -0.275 OA
ATOM     27  H   UNL     1       0.223   1.013   2.378  0.00  0.00    +0.155 HD
BRANCH  24  34
ATOM     28  C   UNL     1       2.558  -0.356   1.002  0.00  0.00    +0.045 C 
ATOM     29  C   UNL     1       1.248  -0.887   0.479  0.00  0.00    -0.029 A 
ATOM     30  C   UNL     1       1.214  -1.599  -0.704  0.00  0.00    +0.005 A 
ATOM     31  C   UNL     1       0.013  -2.087  -1.185  0.00  0.00    +0.001 A 
ATOM     32  C   UNL     1      -1.158  -1.863  -0.484  0.00  0.00    +0.005 A 
ATOM     33  C   UNL     1      -1.131  -1.152   0.700  0.00  0.00    -0.029 A 
ATOM     34  C   UNL     1       0.075  -0.666   1.188  0.00  0.00    +0.039 A 
ATOM     35  C   UNL     1      -2.407  -0.908   1.463  0.00  0.00    +0.045 C 
ENDBRANCH  24  34
ENDBRANCH  23  25
ENDBRANCH  22  23
ENDBRANCH   1  22
TORSDOF 7
