REMARK  Name = ZINC38696663
REMARK  7 active torsions:
REMARK  status: ('A' for Active; 'I' for Inactive)
REMARK    1  A    between atoms: C_1  and  C_2
REMARK    2  A    between atoms: C_4  and  N_17
REMARK    3  A    between atoms: N_8  and  C_11
REMARK    4  A    between atoms: N_9  and  C_10
REMARK    5  A    between atoms: C_18  and  C_28
REMARK    6  A    between atoms: C_29  and  C_30
REMARK    7  A    between atoms: C_38  and  C_40
REMARK                            x       y       z     vdW  Elec       q    Type
REMARK                         _______ _______ _______ _____ _____    ______ ____
ROOT
ATOM      1  N   UNL     1       0.771   0.308  -2.437  0.00  0.00    -0.279 N 
ATOM      2  C   UNL     1       0.026   0.015  -3.553  0.00  0.00    +0.138 A 
ATOM      3  N   UNL     1      -0.087   0.834  -4.572  0.00  0.00    -0.229 NA
ATOM      4  C   UNL     1       0.527   2.031  -4.589  0.00  0.00    +0.078 A 
ATOM      5  C   UNL     1       0.403   2.901  -5.678  0.00  0.00    +0.028 A 
ATOM      6  C   UNL     1       1.042   4.109  -5.657  0.00  0.00    +0.002 A 
ATOM      7  C   UNL     1       1.817   4.489  -4.569  0.00  0.00    +0.001 A 
ATOM      8  C   UNL     1       1.958   3.654  -3.482  0.00  0.00    +0.015 A 
ATOM      9  C   UNL     1       1.316   2.418  -3.480  0.00  0.00    +0.065 A 
ATOM     10  C   UNL     1       1.427   1.488  -2.345  0.00  0.00    +0.263 A 
ATOM     11  O   UNL     1       2.088   1.768  -1.362  0.00  0.00    -0.267 OA
ENDROOT
BRANCH   1  14
ATOM     12  C   UNL     1      -0.275   1.293  -0.172  0.00  0.00    +0.028 C 
ATOM     13  C   UNL     1      -0.046  -0.220  -0.155  0.00  0.00    +0.105 C 
ATOM     14  C   UNL     1       0.849  -0.658  -1.339  0.00  0.00    +0.198 C 
ATOM     15  C   UNL     1       2.232  -0.659  -0.713  0.00  0.00    +0.258 C 
ATOM     16  O   UNL     1       3.287  -0.694  -1.312  0.00  0.00    -0.272 OA
ATOM     17  N   UNL     1       2.082  -0.615   0.624  0.00  0.00    -0.200 N 
ATOM     18  N   UNL     1       0.774  -0.618   1.013  0.00  0.00    -0.217 NA
ATOM     19  C   UNL     1       0.375  -1.942   1.509  0.00  0.00    +0.128 C 
BRANCH  17  20
ATOM     20  C   UNL     1       3.155  -0.571   1.521  0.00  0.00    +0.053 A 
ATOM     21  C   UNL     1       4.391  -1.087   1.154  0.00  0.00    +0.025 A 
ATOM     22  C   UNL     1       5.447  -1.042   2.042  0.00  0.00    +0.002 A 
ATOM     23  C   UNL     1       5.276  -0.484   3.296  0.00  0.00    +0.000 A 
ATOM     24  C   UNL     1       4.046   0.029   3.665  0.00  0.00    +0.002 A 
ATOM     25  C   UNL     1       2.987  -0.007   2.779  0.00  0.00    +0.025 A 
ENDBRANCH  17  20
ENDBRANCH   1  14
BRANCH   2  26
ATOM     26  C   UNL     1      -0.672  -1.270  -3.609  0.00  0.00    +0.047 C 
ATOM     27  C   UNL     1      -1.471  -1.564  -4.671  0.00  0.00    +0.010 C 
BRANCH  27  28
ATOM     28  C   UNL     1      -2.230  -2.744  -4.671  0.00  0.00    -0.016 C 
ATOM     29  C   UNL     1      -3.009  -3.242  -5.711  0.00  0.00    +0.003 A 
ATOM     30  C   UNL     1      -3.280  -2.769  -7.014  0.00  0.00    +0.010 A 
ATOM     31  C   UNL     1      -4.098  -3.478  -7.831  0.00  0.00    +0.001 A 
ATOM     32  C   UNL     1      -4.687  -4.679  -7.418  0.00  0.00    +0.002 A 
ATOM     33  C   UNL     1      -4.473  -5.193  -6.185  0.00  0.00    +0.026 A 
ATOM     34  C   UNL     1      -3.627  -4.507  -5.270  0.00  0.00    +0.043 A 
ATOM     35  N   UNL     1      -3.267  -4.791  -4.039  0.00  0.00    -0.378 N 
ATOM     36  C   UNL     1      -2.367  -3.744  -3.545  0.00  0.00    +0.107 C 
ATOM     37  C   UNL     1      -2.975  -3.070  -2.313  0.00  0.00    +0.035 C 
ATOM     38  H   UNL     1      -3.547  -5.572  -3.538  0.00  0.00    +0.160 HD
ENDBRANCH  27  28
ENDBRANCH   2  26
TORSDOF 4
