REMARK  Name = ZINC22918441
REMARK  10 active torsions:
REMARK  status: ('A' for Active; 'I' for Inactive)
REMARK    1  A    between atoms: C_1  and  C_2
REMARK    2  A    between atoms: C_2  and  C_3
REMARK    3  A    between atoms: C_3  and  N_4
REMARK    4  A    between atoms: C_5  and  C_30
REMARK    5  A    between atoms: N_7  and  C_10
REMARK    6  A    between atoms: C_10  and  N_11
REMARK    7  A    between atoms: N_14  and  C_17
REMARK    8  A    between atoms: C_17  and  C_18
REMARK    9  A    between atoms: C_17  and  C_24
REMARK   10  A    between atoms: C_30  and  C_31
REMARK                            x       y       z     vdW  Elec       q    Type
REMARK                         _______ _______ _______ _____ _____    ______ ____
ROOT
ATOM      1  N   UNL     1       4.962   6.885  -4.220  0.00  0.00    +0.394 N 
ATOM      2  C   UNL     1       4.845   7.514  -2.897  0.00  0.00    -0.061 C 
ATOM      3  C   UNL     1       5.755   8.743  -2.838  0.00  0.00    +0.067 C 
ATOM      4  N   UNL     1       5.374   9.684  -3.901  0.00  0.00    -0.295 NA
ATOM      5  C   UNL     1       5.491   9.054  -5.224  0.00  0.00    +0.067 C 
ATOM      6  C   UNL     1       4.581   7.825  -5.283  0.00  0.00    -0.061 C 
ATOM      7  H   UNL     1       6.016   6.608  -4.373  0.00  0.00    -0.079 HD
ENDROOT
BRANCH   1   8
ATOM      8  C   UNL     1       4.160   5.657  -4.291  0.00  0.00    +0.072 C 
BRANCH   8  12
ATOM      9  N   UNL     1       5.896   3.017  -2.568  0.00  0.00    -0.307 N 
ATOM     10  C   UNL     1       5.082   3.492  -1.569  0.00  0.00    +0.136 A 
ATOM     11  N   UNL     1       4.375   4.470  -2.035  0.00  0.00    -0.157 NA
ATOM     12  N   UNL     1       4.719   4.654  -3.381  0.00  0.00    -0.257 N 
ATOM     13  C   UNL     1       5.662   3.737  -3.683  0.00  0.00    +0.176 A 
ATOM     14  S   UNL     1       6.425   3.530  -5.202  0.00  0.00    -0.011 S 
BRANCH   9  15
ATOM     15  C   UNL     1       6.854   1.915  -2.443  0.00  0.00    +0.125 C 
BRANCH  15  17
ATOM     16  C   UNL     1       7.150  -0.556  -2.656  0.00  0.00    +0.005 C 
ATOM     17  C   UNL     1       6.194   0.613  -2.900  0.00  0.00    +0.018 C 
ENDBRANCH  15  17
ENDBRANCH   9  15
BRANCH  10  18
ATOM     18  C   UNL     1       5.026   2.963  -0.158  0.00  0.00    +0.111 C 
BRANCH  18  19
ATOM     19  C   UNL     1       5.923   3.792   0.725  0.00  0.00    -0.040 A 
ATOM     20  C   UNL     1       5.454   4.968   1.278  0.00  0.00    +0.004 A 
ATOM     21  C   UNL     1       6.277   5.728   2.088  0.00  0.00    +0.000 A 
ATOM     22  C   UNL     1       7.571   5.314   2.340  0.00  0.00    +0.000 A 
ATOM     23  C   UNL     1       8.039   4.135   1.791  0.00  0.00    +0.000 A 
ATOM     24  C   UNL     1       7.216   3.375   0.982  0.00  0.00    +0.004 A 
ENDBRANCH  18  19
ENDBRANCH  10  18
ENDBRANCH   8  12
ENDBRANCH   1   8
BRANCH   4  25
ATOM     25  C   UNL     1       6.177  10.912  -3.830  0.00  0.00    +0.117 C 
BRANCH  25  26
ATOM     26  C   UNL     1       5.651  11.914  -4.825  0.00  0.00    -0.026 A 
ATOM     27  C   UNL     1       4.288  12.077  -4.988  0.00  0.00    +0.005 A 
ATOM     28  C   UNL     1       3.805  12.999  -5.897  0.00  0.00    +0.000 A 
ATOM     29  C   UNL     1       4.686  13.752  -6.651  0.00  0.00    +0.000 A 
ATOM     30  C   UNL     1       6.049  13.585  -6.492  0.00  0.00    +0.000 A 
ATOM     31  C   UNL     1       6.532  12.667  -5.579  0.00  0.00    +0.005 A 
ENDBRANCH  25  26
BRANCH  25  32
ATOM     32  C   UNL     1       6.089  11.490  -2.441  0.00  0.00    -0.026 A 
ATOM     33  C   UNL     1       4.861  11.599  -1.814  0.00  0.00    +0.005 A 
ATOM     34  C   UNL     1       4.781  12.124  -0.538  0.00  0.00    +0.000 A 
ATOM     35  C   UNL     1       5.927  12.550   0.107  0.00  0.00    +0.000 A 
ATOM     36  C   UNL     1       7.153  12.447  -0.521  0.00  0.00    +0.000 A 
ATOM     37  C   UNL     1       7.234  11.916  -1.795  0.00  0.00    +0.005 A 
ENDBRANCH  25  32
ENDBRANCH   4  25
TORSDOF 9
