REMARK  Name = ZINC09215997
REMARK  7 active torsions:
REMARK  status: ('A' for Active; 'I' for Inactive)
REMARK    1  A    between atoms: C_1  and  C_2
REMARK    2  A    between atoms: C_2  and  C_3
REMARK    3  A    between atoms: C_2  and  C_4
REMARK    4  A    between atoms: C_4  and  C_5
REMARK    5  A    between atoms: N_13  and  C_16
REMARK    6  A    between atoms: C_16  and  C_17
REMARK    7  A    between atoms: C_17  and  C_18
REMARK                            x       y       z     vdW  Elec       q    Type
REMARK                         _______ _______ _______ _____ _____    ______ ____
ROOT
ATOM      1  C   UNL     1      -0.161  -0.344   2.472  0.00  0.00    -0.057 C 
ATOM      2  C   UNL     1       0.527  -0.925   3.725  0.00  0.00    +0.073 C 
ATOM      3  C   UNL     1       0.254   0.114   4.849  0.00  0.00    +0.088 C 
ATOM      4  C   UNL     1       1.634   0.634   5.184  0.00  0.00    +0.225 C 
ATOM      5  O   UNL     1       1.883   1.468   6.028  0.00  0.00    -0.275 OA
ATOM      6  N   UNL     1       2.538   0.030   4.404  0.00  0.00    -0.241 N 
ATOM      7  C   UNL     1       2.026  -0.877   3.541  0.00  0.00    +0.224 C 
ATOM      8  O   UNL     1       2.656  -1.542   2.747  0.00  0.00    -0.275 OA
ATOM      9  C   UNL     1      -0.573   1.210   4.166  0.00  0.00    +0.050 C 
ATOM     10  N   UNL     1      -0.246   1.119   2.724  0.00  0.00    +0.394 N 
ATOM     11  C   UNL     1      -2.042   1.038   4.432  0.00  0.00    -0.026 A 
ATOM     12  C   UNL     1      -2.939   0.025   4.175  0.00  0.00    +0.004 A 
ATOM     13  C   UNL     1      -4.264   0.162   4.551  0.00  0.00    +0.002 A 
ATOM     14  C   UNL     1      -4.685   1.318   5.183  0.00  0.00    +0.022 A 
ATOM     15  C   UNL     1      -3.790   2.336   5.441  0.00  0.00    +0.062 A 
ATOM     16  C   UNL     1      -2.453   2.207   5.065  0.00  0.00    +0.054 A 
ATOM     17  N   UNL     1      -1.375   3.083   5.212  0.00  0.00    -0.285 N 
ATOM     18  C   UNL     1      -0.234   2.572   4.708  0.00  0.00    +0.211 C 
ATOM     19  O   UNL     1       0.855   3.106   4.696  0.00  0.00    -0.277 OA
ATOM     20 CL   UNL     1      -4.330   3.783   6.234  0.00  0.00    -0.082 Cl
ATOM     21  H   UNL     1       0.637   1.564   2.524  0.00  0.00    -0.083 HD
ATOM     22  H   UNL     1      -1.440   3.957   5.627  0.00  0.00    +0.155 HD
ATOM     23  H   UNL     1      -0.984   1.530   2.171  0.00  0.00    -0.083 HD
ENDROOT
BRANCH   1  24
ATOM     24  C   UNL     1       0.683  -0.621   1.226  0.00  0.00    -0.012 C 
BRANCH  24  26
ATOM     25  C   UNL     1       0.874  -0.212  -1.232  0.00  0.00    +0.007 C 
ATOM     26  C   UNL     1      -0.032  -0.065  -0.008  0.00  0.00    -0.019 C 
ATOM     27  C   UNL     1      -1.330  -0.842  -0.238  0.00  0.00    +0.007 C 
ENDBRANCH  24  26
ENDBRANCH   1  24
BRANCH   6  28
ATOM     28  C   UNL     1       3.972   0.321   4.482  0.00  0.00    +0.121 C 
BRANCH  28  29
ATOM     29  C   UNL     1       4.629  -0.617   5.497  0.00  0.00    +0.054 C 
BRANCH  29  30
ATOM     30  C   UNL     1       6.103  -0.317   5.577  0.00  0.00    -0.046 A 
ATOM     31  C   UNL     1       6.988  -0.971   4.740  0.00  0.00    +0.004 A 
ATOM     32  C   UNL     1       8.341  -0.696   4.813  0.00  0.00    +0.000 A 
ATOM     33  C   UNL     1       8.809   0.233   5.723  0.00  0.00    +0.000 A 
ATOM     34  C   UNL     1       7.924   0.888   6.560  0.00  0.00    +0.000 A 
ATOM     35  C   UNL     1       6.571   0.616   6.483  0.00  0.00    +0.004 A 
ENDBRANCH  29  30
ENDBRANCH  28  29
ENDBRANCH   6  28
TORSDOF 5
