REMARK  Name = ZINC12037760
REMARK  7 active torsions:
REMARK  status: ('A' for Active; 'I' for Inactive)
REMARK    1  A    between atoms: C_5  and  C_7
REMARK    2  A    between atoms: C_7  and  C_8
REMARK    3  A    between atoms: C_8  and  C_19
REMARK    4  A    between atoms: N_11  and  C_15
REMARK    5  A    between atoms: C_15  and  C_16
REMARK    6  A    between atoms: C_24  and  C_25
REMARK    7  A    between atoms: C_24  and  N_67
REMARK                            x       y       z     vdW  Elec       q    Type
REMARK                         _______ _______ _______ _____ _____    ______ ____
ROOT
ATOM      1  C   UNL     1      -0.076   1.053  -2.491  0.00  0.00    +0.119 C 
ATOM      2  C   UNL     1       1.371   1.499  -2.551  0.00  0.00    +0.247 C 
ATOM      3  O   UNL     1       1.784   2.638  -2.606  0.00  0.00    -0.273 OA
ATOM      4  N   UNL     1       2.103   0.368  -2.531  0.00  0.00    -0.224 N 
ATOM      5  C   UNL     1       1.327  -0.720  -2.467  0.00  0.00    +0.309 C 
ATOM      6  O   UNL     1       1.758  -1.856  -2.438  0.00  0.00    -0.252 OA
ATOM      7  N   UNL     1       0.017  -0.417  -2.439  0.00  0.00    -0.284 N 
ATOM      8  H   UNL     1      -0.722  -1.043  -2.393  0.00  0.00    +0.151 HD
ENDROOT
BRANCH   1   9
ATOM      9  C   UNL     1      -0.755   1.594  -1.231  0.00  0.00    +0.018 C 
ATOM     10  C   UNL     1      -0.013   1.086   0.008  0.00  0.00    -0.013 C 
ATOM     11  C   UNL     1      -0.731   1.580   1.266  0.00  0.00    -0.078 C 
ATOM     12  C   UNL     1      -2.861   1.601   0.109  0.00  0.00    -0.078 C 
ATOM     13  C   UNL     1      -2.206   1.108  -1.183  0.00  0.00    -0.013 C 
ATOM     14  N   UNL     1      -2.114   1.058   1.264  0.00  0.00    +0.382 N 
ATOM     15  H   UNL     1      -2.084   0.034   1.189  0.00  0.00    -0.081 HD
BRANCH  14  16
ATOM     16  C   UNL     1      -2.794   1.427   2.523  0.00  0.00    -0.043 C 
BRANCH  16  17
ATOM     17  C   UNL     1      -1.890   1.106   3.685  0.00  0.00    -0.063 A 
ATOM     18  C   UNL     1      -1.934  -0.144   4.274  0.00  0.00    +0.005 A 
ATOM     19  C   UNL     1      -1.107  -0.444   5.337  0.00  0.00    +0.046 A 
ATOM     20  C   UNL     1      -0.228   0.516   5.833  0.00  0.00    +0.124 A 
ATOM     21  C   UNL     1      -0.192   1.767   5.233  0.00  0.00    -0.002 A 
ATOM     22  C   UNL     1      -1.016   2.063   4.169  0.00  0.00    +0.009 A 
ATOM     23  C   UNL     1       0.856   2.582   5.966  0.00  0.00    +0.080 C 
ATOM     24  C   UNL     1       1.629   1.487   6.739  0.00  0.00    +0.234 C 
ATOM     25  O   UNL     1       0.652   0.441   6.870  0.00  0.00    -0.491 OA
ENDBRANCH  16  17
ENDBRANCH  14  16
ENDBRANCH   1   9
BRANCH   1  26
ATOM     26  C   UNL     1      -0.831   1.504  -3.743  0.00  0.00    +0.072 C 
BRANCH  26  31
ATOM     27  C   UNL     1       1.300   0.946  -6.809  0.00  0.00    +0.000 A 
ATOM     28  C   UNL     1       0.908  -0.323  -7.192  0.00  0.00    +0.001 A 
ATOM     29  C   UNL     1      -0.047  -1.002  -6.459  0.00  0.00    +0.020 A 
ATOM     30  C   UNL     1      -0.610  -0.411  -5.341  0.00  0.00    +0.044 A 
ATOM     31  C   UNL     1      -0.218   0.859  -4.959  0.00  0.00    -0.027 A 
ATOM     32  C   UNL     1       0.734   1.539  -5.697  0.00  0.00    +0.005 A 
ATOM     33 CL   UNL     1      -1.810  -1.263  -4.420  0.00  0.00    -0.083 Cl
ENDBRANCH  26  31
ENDBRANCH   1  26
BRANCH   4  34
ATOM     34  C   UNL     1       3.567   0.334  -2.575  0.00  0.00    +0.121 C 
BRANCH  34  35
ATOM     35  C   UNL     1       4.120   0.376  -1.149  0.00  0.00    +0.007 C 
ATOM     36  C   UNL     1       4.965   1.589  -0.755  0.00  0.00    +0.005 C 
ATOM     37  C   UNL     1       5.633   0.231  -0.974  0.00  0.00    +0.005 C 
ENDBRANCH  34  35
ENDBRANCH   4  34
TORSDOF 7
