REMARK  Name = ZINC27477420
REMARK  6 active torsions:
REMARK  status: ('A' for Active; 'I' for Inactive)
REMARK    1  A    between atoms: C_4  and  N_7
REMARK    2  A    between atoms: N_10  and  C_11
REMARK    3  A    between atoms: C_14  and  N_17
REMARK    4  A    between atoms: C_18  and  C_20
REMARK    5  A    between atoms: C_20  and  N_21
REMARK    6  A    between atoms: C_29  and  C_31
REMARK                            x       y       z     vdW  Elec       q    Type
REMARK                         _______ _______ _______ _____ _____    ______ ____
ROOT
ATOM      1  N   UNL     1      -0.486   0.278   2.732  0.00  0.00    -0.287 N 
ATOM      2  C   UNL     1      -1.198   0.324   1.588  0.00  0.00    +0.201 C 
ATOM      3  O   UNL     1      -2.267   0.896   1.561  0.00  0.00    -0.278 OA
ATOM      4  H   UNL     1       0.517  -0.173   2.738  0.00  0.00    +0.155 HD
ENDROOT
BRANCH   1   8
ATOM      5  C   UNL     1      -2.088   1.849   6.247  0.00  0.00    +0.035 A 
ATOM      6  C   UNL     1      -1.285   0.717   6.295  0.00  0.00    +0.025 A 
ATOM      7  C   UNL     1      -0.755   0.197   5.131  0.00  0.00    +0.025 A 
ATOM      8  C   UNL     1      -1.024   0.806   3.913  0.00  0.00    +0.033 A 
ATOM      9  C   UNL     1      -1.822   1.942   3.865  0.00  0.00    +0.025 A 
ATOM     10  C   UNL     1      -2.357   2.459   5.029  0.00  0.00    +0.025 A 
BRANCH   5  14
ATOM     11  N   UNL     1      -4.308   3.569   8.522  0.00  0.00    -0.269 N 
ATOM     12  C   UNL     1      -3.838   2.966   7.412  0.00  0.00    +0.308 C 
ATOM     13  O   UNL     1      -4.507   2.953   6.397  0.00  0.00    -0.252 OA
ATOM     14  N   UNL     1      -2.625   2.378   7.428  0.00  0.00    -0.269 N 
ATOM     15  H   UNL     1      -3.673   3.648   9.416  0.00  0.00    +0.156 HD
ATOM     16  H   UNL     1      -2.058   2.312   8.368  0.00  0.00    +0.156 HD
BRANCH  11  20
ATOM     17  C   UNL     1      -8.170   5.131   8.565  0.00  0.00    +0.000 A 
ATOM     18  C   UNL     1      -7.648   4.552   9.707  0.00  0.00    +0.002 A 
ATOM     19  C   UNL     1      -6.368   4.033   9.696  0.00  0.00    +0.023 A 
ATOM     20  C   UNL     1      -5.606   4.094   8.536  0.00  0.00    +0.035 A 
ATOM     21  C   UNL     1      -6.131   4.681   7.393  0.00  0.00    +0.023 A 
ATOM     22  C   UNL     1      -7.414   5.193   7.409  0.00  0.00    +0.002 A 
ENDBRANCH  11  20
ENDBRANCH   5  14
ENDBRANCH   1   8
BRANCH   2  23
ATOM     23  C   UNL     1      -0.665  -0.337   0.343  0.00  0.00    +0.020 C 
BRANCH  23  24
ATOM     24  N   UNL     1      -1.568  -0.059  -0.783  0.00  0.00    +0.393 N 
ATOM     25  C   UNL     1      -2.908  -0.606  -0.530  0.00  0.00    -0.072 C 
ATOM     26  C   UNL     1      -3.679  -0.663  -1.859  0.00  0.00    +0.024 C 
ATOM     27  C   UNL     1      -3.491   0.648  -2.551  0.00  0.00    -0.010 A 
ATOM     28  C   UNL     1      -2.573   1.606  -2.243  0.00  0.00    -0.046 A 
ATOM     29  C   UNL     1      -2.585   2.755  -3.030  0.00  0.00    +0.010 A 
ATOM     30  C   UNL     1      -3.478   2.875  -4.040  0.00  0.00    +0.045 A 
ATOM     31  S   UNL     1      -4.371   1.331  -3.927  0.00  0.00    -0.101 S 
ATOM     32  C   UNL     1      -1.605   1.377  -1.086  0.00  0.00    +0.002 C 
ATOM     33  H   UNL     1      -1.173  -0.568  -1.675  0.00  0.00    -0.080 HD
BRANCH  32  34
ATOM     34  C   UNL     1      -0.228   1.847  -1.477  0.00  0.00    -0.019 A 
ATOM     35  C   UNL     1       0.404   3.002  -1.153  0.00  0.00    +0.010 A 
ATOM     36  C   UNL     1       1.682   3.224  -1.631  0.00  0.00    +0.008 A 
ATOM     37  C   UNL     1       2.265   2.280  -2.409  0.00  0.00    +0.045 A 
ATOM     38  S   UNL     1       0.998   1.026  -2.482  0.00  0.00    -0.103 S 
ENDBRANCH  32  34
ENDBRANCH  23  24
ENDBRANCH   2  23
TORSDOF 6
