REMARK  Name = ZINC63835135
REMARK  9 active torsions:
REMARK  status: ('A' for Active; 'I' for Inactive)
REMARK    1  A    between atoms: C_1  and  C_2
REMARK    2  A    between atoms: C_2  and  C_3
REMARK    3  A    between atoms: C_3  and  C_4
REMARK    4  A    between atoms: C_4  and  C_5
REMARK    5  A    between atoms: N_7  and  C_8
REMARK    6  A    between atoms: C_11  and  N_14
REMARK    7  A    between atoms: C_15  and  C_17
REMARK    8  A    between atoms: C_22  and  C_28
REMARK    9  A    between atoms: C_24  and  C_27
REMARK                            x       y       z     vdW  Elec       q    Type
REMARK                         _______ _______ _______ _____ _____    ______ ____
ROOT
ATOM      1  N   UNL     1       4.529  -5.417  -7.182  0.00  0.00    -0.282 N 
ATOM      2  C   UNL     1       5.606  -4.703  -7.566  0.00  0.00    +0.248 C 
ATOM      3  O   UNL     1       5.882  -3.665  -6.996  0.00  0.00    -0.270 OA
ATOM      4  H   UNL     1       4.269  -6.209  -7.678  0.00  0.00    +0.155 HD
ENDROOT
BRANCH   2   5
ATOM      5  C   UNL     1       6.449  -5.182  -8.677  0.00  0.00    +0.038 A 
ATOM      6  C   UNL     1       6.102  -6.426  -9.354  0.00  0.00    +0.015 A 
ATOM      7  C   UNL     1       6.847  -6.898 -10.375  0.00  0.00    +0.026 A 
ATOM      8  C   UNL     1       8.030  -6.151 -10.818  0.00  0.00    +0.043 A 
ATOM      9  N   UNL     1       8.899  -6.397 -11.768  0.00  0.00    -0.378 N 
ATOM     10  C   UNL     1       9.893  -5.319 -11.784  0.00  0.00    +0.103 C 
ATOM     11  C   UNL     1       9.491  -4.366 -10.683  0.00  0.00    -0.042 C 
ATOM     12  C   UNL     1       8.371  -4.891 -10.122  0.00  0.00    -0.000 A 
ATOM     13  C   UNL     1       7.545  -4.443  -9.058  0.00  0.00    +0.023 A 
ATOM     14  C   UNL     1      10.190  -3.091 -10.288  0.00  0.00    +0.042 C 
ATOM     15  C   UNL     1      11.288  -5.885 -11.511  0.00  0.00    +0.035 C 
ATOM     16  H   UNL     1       8.886  -7.165 -12.361  0.00  0.00    +0.160 HD
ENDBRANCH   2   5
BRANCH   1  20
ATOM     17  C   UNL     1       2.311  -4.220  -3.861  0.00  0.00    +0.033 A 
ATOM     18  C   UNL     1       2.884  -3.267  -4.693  0.00  0.00    +0.025 A 
ATOM     19  C   UNL     1       3.619  -3.663  -5.792  0.00  0.00    +0.025 A 
ATOM     20  C   UNL     1       3.784  -5.015  -6.067  0.00  0.00    +0.034 A 
ATOM     21  C   UNL     1       3.211  -5.968  -5.234  0.00  0.00    +0.025 A 
ATOM     22  C   UNL     1       2.481  -5.572  -4.132  0.00  0.00    +0.025 A 
BRANCH  17  25
ATOM     23  C   UNL     1       1.606  -4.544  -1.610  0.00  0.00    +0.217 C 
ATOM     24  O   UNL     1       2.220  -5.590  -1.581  0.00  0.00    -0.275 OA
ATOM     25  N   UNL     1       1.565  -3.818  -2.745  0.00  0.00    -0.285 N 
ATOM     26  H   UNL     1       1.020  -3.017  -2.789  0.00  0.00    +0.155 HD
BRANCH  23  27
ATOM     27  C   UNL     1       0.888  -4.057  -0.378  0.00  0.00    +0.096 C 
BRANCH  27  28
ATOM     28  C   UNL     1       1.092  -5.059   0.760  0.00  0.00    +0.009 C 
BRANCH  28  30
ATOM     29  C   UNL     1       0.567  -5.566   3.150  0.00  0.00    +0.004 C 
ATOM     30  C   UNL     1       0.363  -4.564   2.012  0.00  0.00    -0.003 C 
ENDBRANCH  28  30
ENDBRANCH  27  28
ENDBRANCH  23  27
ENDBRANCH  17  25
ENDBRANCH   1  20
TORSDOF 6
