REMARK  Name = ZINC09546135
REMARK  5 active torsions:
REMARK  status: ('A' for Active; 'I' for Inactive)
REMARK    1  A    between atoms: C_1  and  C_2
REMARK    2  A    between atoms: C_5  and  N_9
REMARK    3  A    between atoms: C_7  and  C_8
REMARK    4  A    between atoms: C_19  and  C_20
REMARK    5  A    between atoms: C_19  and  O_34
REMARK                            x       y       z     vdW  Elec       q    Type
REMARK                         _______ _______ _______ _____ _____    ______ ____
ROOT
ATOM      1  N   UNL     1       0.074  -4.109  -0.047  0.00  0.00    -0.214 N 
ATOM      2  C   UNL     1       0.184  -4.772   1.119  0.00  0.00    +0.314 C 
ATOM      3  O   UNL     1       0.273  -4.128   2.146  0.00  0.00    -0.252 OA
ATOM      4  N   UNL     1       0.199  -6.109   1.200  0.00  0.00    -0.269 N 
ATOM      5  C   UNL     1       0.102  -6.939   0.083  0.00  0.00    +0.043 A 
ATOM      6  C   UNL     1       0.124  -8.320   0.221  0.00  0.00    +0.024 A 
ATOM      7  C   UNL     1       0.028  -9.124  -0.897  0.00  0.00    +0.002 A 
ATOM      8  C   UNL     1      -0.089  -8.561  -2.155  0.00  0.00    +0.001 A 
ATOM      9  C   UNL     1      -0.110  -7.184  -2.299  0.00  0.00    +0.010 A 
ATOM     10  C   UNL     1      -0.015  -6.381  -1.186  0.00  0.00    +0.033 A 
ATOM     11  C   UNL     1      -0.041  -4.874  -1.300  0.00  0.00    +0.247 C 
ATOM     12  H   UNL     1       0.280  -6.519   2.076  0.00  0.00    +0.156 HD
ENDROOT
BRANCH  11  13
ATOM     13  C   UNL     1       1.094  -4.462  -2.202  0.00  0.00    +0.272 C 
ATOM     14  O   UNL     1       0.859  -3.972  -3.287  0.00  0.00    -0.270 OA
ATOM     15  N   UNL     1       2.369  -4.638  -1.804  0.00  0.00    -0.294 N 
ATOM     16  C   UNL     1       2.669  -5.236  -0.495  0.00  0.00    +0.127 C 
ATOM     17  C   UNL     1       3.585  -6.447  -0.708  0.00  0.00    +0.125 C 
ATOM     18  N   UNL     1       4.701  -6.045  -1.575  0.00  0.00    -0.314 N 
ATOM     19  C   UNL     1       4.402  -5.447  -2.884  0.00  0.00    +0.125 C 
ATOM     20  C   UNL     1       3.486  -4.241  -2.674  0.00  0.00    +0.127 C 
ATOM     21  C   UNL     1       6.017  -6.227  -1.165  0.00  0.00    +0.099 A 
ATOM     22  C   UNL     1       6.282  -6.915   0.015  0.00  0.00    +0.042 A 
ATOM     23  C   UNL     1       7.596  -7.089   0.411  0.00  0.00    +0.005 A 
ATOM     24  C   UNL     1       8.604  -6.565  -0.388  0.00  0.00    +0.018 A 
ATOM     25  C   UNL     1       8.269  -5.893  -1.546  0.00  0.00    +0.084 A 
ATOM     26  N   UNL     1       7.006  -5.747  -1.902  0.00  0.00    -0.350 N 
ATOM     27  H   UNL     1       6.798  -5.274  -2.723  0.00  0.00    +0.166 HD
ENDBRANCH  11  13
BRANCH   1  32
ATOM     28  C   UNL     1       0.035   1.563  -0.129  0.00  0.00    +0.044 C 
ATOM     29  C   UNL     1       0.046   0.057  -0.108  0.00  0.00    -0.047 A 
ATOM     30  C   UNL     1      -1.106  -0.646  -0.411  0.00  0.00    +0.005 A 
ATOM     31  C   UNL     1      -1.100  -2.027  -0.392  0.00  0.00    +0.024 A 
ATOM     32  C   UNL     1       0.065  -2.710  -0.067  0.00  0.00    +0.042 A 
ATOM     33  C   UNL     1       1.220  -2.002   0.237  0.00  0.00    +0.027 A 
ATOM     34  C   UNL     1       1.208  -0.621   0.211  0.00  0.00    -0.046 A 
ATOM     35  C   UNL     1       2.463   0.149   0.535  0.00  0.00    +0.044 C 
ENDBRANCH   1  32
BRANCH  11  36
ATOM     36  O   UNL     1      -1.263  -4.496  -1.936  0.00  0.00    -0.360 OA
ATOM     37  H   UNL     1      -1.428  -4.950  -2.774  0.00  0.00    +0.213 HD
ENDBRANCH  11  36
TORSDOF 3
