REMARK  Name = ZINC66271546
REMARK  10 active torsions:
REMARK  status: ('A' for Active; 'I' for Inactive)
REMARK    1  A    between atoms: C_1  and  C_2
REMARK    2  A    between atoms: C_2  and  C_4
REMARK    3  A    between atoms: C_2  and  N_18
REMARK    4  A    between atoms: C_4  and  C_5
REMARK    5  A    between atoms: N_7  and  C_8
REMARK    6  A    between atoms: C_8  and  C_9
REMARK    7  A    between atoms: C_9  and  N_15
REMARK    8  A    between atoms: N_15  and  C_16
REMARK    9  A    between atoms: N_15  and  C_17
REMARK   10  A    between atoms: C_19  and  C_21
REMARK                            x       y       z     vdW  Elec       q    Type
REMARK                         _______ _______ _______ _____ _____    ______ ____
ROOT
ATOM      1  C   UNL     1       1.083  -1.770  -1.282  0.00  0.00    +0.215 C 
ATOM      2  O   UNL     1       0.646  -2.337  -0.303  0.00  0.00    -0.276 OA
ATOM      3  N   UNL     1       1.644  -2.483  -2.279  0.00  0.00    -0.317 N 
ATOM      4  H   UNL     1       1.993  -2.030  -3.062  0.00  0.00    +0.149 HD
ENDROOT
BRANCH   1   5
ATOM      5  C   UNL     1       0.999  -0.269  -1.384  0.00  0.00    +0.117 C 
BRANCH   5   7
ATOM      6  C   UNL     1       0.350   1.820  -0.176  0.00  0.00    +0.028 C 
ATOM      7  C   UNL     1       0.324   0.290  -0.130  0.00  0.00    +0.079 C 
BRANCH   7   8
ATOM      8  N   UNL     1      -1.065  -0.173  -0.075  0.00  0.00    -0.312 N 
ATOM      9  C   UNL     1      -1.701  -0.255   1.110  0.00  0.00    +0.216 C 
ATOM     10  O   UNL     1      -1.124   0.054   2.131  0.00  0.00    -0.276 OA
ATOM     11  H   UNL     1      -1.526  -0.420  -0.892  0.00  0.00    +0.149 HD
BRANCH   9  12
ATOM     12  C   UNL     1      -3.129  -0.732   1.167  0.00  0.00    +0.075 C 
ATOM     13  C   UNL     1      -4.012   0.203   0.338  0.00  0.00    +0.013 C 
ATOM     14  C   UNL     1      -5.463  -0.281   0.395  0.00  0.00    +0.001 C 
ATOM     15  C   UNL     1      -5.943  -0.280   1.848  0.00  0.00    +0.000 C 
ATOM     16  C   UNL     1      -5.060  -1.215   2.677  0.00  0.00    +0.001 C 
ATOM     17  C   UNL     1      -3.610  -0.731   2.620  0.00  0.00    +0.013 C 
ENDBRANCH   9  12
ENDBRANCH   7   8
ENDBRANCH   5   7
ENDBRANCH   1   5
BRANCH   3  18
ATOM     18  C   UNL     1       1.726  -3.942  -2.180  0.00  0.00    +0.092 C 
BRANCH  18  19
ATOM     19  C   UNL     1       2.269  -4.513  -3.491  0.00  0.00    -0.050 C 
ATOM     20  C   UNL     1       2.233  -6.042  -3.436  0.00  0.00    -0.010 C 
ATOM     21  C   UNL     1       3.096  -6.530  -2.271  0.00  0.00    -0.001 C 
ATOM     22  C   UNL     1       4.538  -6.061  -2.473  0.00  0.00    -0.000 C 
ATOM     23  C   UNL     1       4.574  -4.532  -2.529  0.00  0.00    -0.001 C 
ATOM     24  C   UNL     1       3.711  -4.044  -3.694  0.00  0.00    -0.010 C 
BRANCH  19  25
ATOM     25  N   UNL     1       1.440  -4.044  -4.610  0.00  0.00    +0.381 N 
ATOM     26  C   UNL     1       1.940  -4.620  -5.865  0.00  0.00    -0.096 C 
ATOM     27  C   UNL     1       0.048  -4.465  -4.398  0.00  0.00    -0.096 C 
ATOM     28  H   UNL     1       1.483  -3.037  -4.661  0.00  0.00    -0.082 HD
ENDBRANCH  19  25
ENDBRANCH  18  19
ENDBRANCH   3  18
TORSDOF 7
