REMARK  Name = ZINC36704456
REMARK  10 active torsions:
REMARK  status: ('A' for Active; 'I' for Inactive)
REMARK    1  A    between atoms: C_1  and  C_2
REMARK    2  A    between atoms: N_11  and  C_12
REMARK    3  A    between atoms: C_12  and  C_13
REMARK    4  A    between atoms: C_13  and  C_14
REMARK    5  A    between atoms: C_14  and  N_15
REMARK    6  A    between atoms: N_15  and  C_16
REMARK    7  A    between atoms: N_15  and  C_17
REMARK    8  A    between atoms: C_18  and  C_20
REMARK    9  A    between atoms: N_25  and  S_26
REMARK   10  A    between atoms: S_26  and  C_29
REMARK                            x       y       z     vdW  Elec       q    Type
REMARK                         _______ _______ _______ _____ _____    ______ ____
ROOT
ATOM      1  C   UNL     1       0.287   1.675   0.491  0.00  0.00    +0.044 C 
ATOM      2  C   UNL     1       0.554   0.192   0.482  0.00  0.00    -0.049 A 
ATOM      3  C   UNL     1       1.331  -0.374  -0.519  0.00  0.00    +0.005 A 
ATOM      4  C   UNL     1       1.589  -1.720  -0.550  0.00  0.00    +0.029 A 
ATOM      5  C   UNL     1       1.068  -2.579   0.445  0.00  0.00    +0.080 A 
ATOM      6  C   UNL     1       0.283  -1.967   1.449  0.00  0.00    +0.041 A 
ATOM      7  C   UNL     1       0.034  -0.618   1.475  0.00  0.00    +0.020 A 
ATOM      8  S   UNL     1      -0.165  -3.348   2.473  0.00  0.00    -0.052 S 
ATOM      9  C   UNL     1       0.690  -4.608   1.536  0.00  0.00    +0.168 A 
ATOM     10  N   UNL     1       1.227  -3.915   0.560  0.00  0.00    -0.224 NA
ATOM     11  N   UNL     1       0.766  -5.970   1.780  0.00  0.00    -0.249 N 
ATOM     12  C   UNL     1       0.138  -6.500   2.848  0.00  0.00    +0.240 C 
ATOM     13  O   UNL     1      -0.566  -5.801   3.545  0.00  0.00    -0.273 OA
ENDROOT
BRANCH  12  14
ATOM     14  C   UNL     1       0.311  -7.961   3.175  0.00  0.00    +0.166 C 
ATOM     15  C   UNL     1      -0.807  -8.785   2.504  0.00  0.00    +0.031 C 
ATOM     16  C   UNL     1      -1.141  -9.856   3.575  0.00  0.00    +0.019 C 
ATOM     17  C   UNL     1      -0.956  -9.052   4.887  0.00  0.00    +0.110 C 
ATOM     18  N   UNL     1       0.196  -8.165   4.627  0.00  0.00    -0.164 NA
BRANCH  18  19
ATOM     19  S   UNL     1       1.192  -7.508   5.776  0.00  0.00    +0.068 S 
ATOM     20  O   UNL     1       1.110  -8.353   6.915  0.00  0.00    -0.152 OA
ATOM     21  O   UNL     1       2.424  -7.221   5.128  0.00  0.00    -0.152 OA
BRANCH  19  22
ATOM     22  C   UNL     1       0.496  -5.960   6.246  0.00  0.00    +0.144 A 
ATOM     23  C   UNL     1      -0.392  -5.688   7.232  0.00  0.00    +0.038 A 
ATOM     24  C   UNL     1      -0.804  -4.381   7.422  0.00  0.00    +0.030 A 
ATOM     25  C   UNL     1      -0.306  -3.411   6.615  0.00  0.00    +0.080 A 
ATOM     26  S   UNL     1       0.785  -4.340   5.551  0.00  0.00    -0.057 S 
ATOM     27 CL   UNL     1      -0.639  -1.708   6.621  0.00  0.00    -0.076 Cl
ENDBRANCH  19  22
ENDBRANCH  18  19
ENDBRANCH  12  14
BRANCH  11  28
ATOM     28  C   UNL     1       1.529  -6.834   0.876  0.00  0.00    +0.114 C 
BRANCH  28  29
ATOM     29  C   UNL     1       2.997  -6.856   1.308  0.00  0.00    +0.001 C 
BRANCH  29  30
ATOM     30  C   UNL     1       3.794  -7.758   0.364  0.00  0.00    -0.078 C 
BRANCH  30  31
ATOM     31  N   UNL     1       5.202  -7.779   0.780  0.00  0.00    +0.376 N 
ATOM     32  C   UNL     1       5.944  -8.736  -0.051  0.00  0.00    -0.097 C 
ATOM     33  C   UNL     1       5.781  -6.438   0.617  0.00  0.00    -0.097 C 
ATOM     34  H   UNL     1       5.263  -8.056   1.748  0.00  0.00    -0.083 HD
ENDBRANCH  30  31
ENDBRANCH  29  30
ENDBRANCH  28  29
ENDBRANCH  11  28
TORSDOF 7
