REMARK  Name = ZINC12416616
REMARK  8 active torsions:
REMARK  status: ('A' for Active; 'I' for Inactive)
REMARK    1  A    between atoms: C_1  and  N_2
REMARK    2  A    between atoms: N_5  and  C_38
REMARK    3  A    between atoms: C_6  and  C_32
REMARK    4  A    between atoms: C_7  and  C_26
REMARK    5  A    between atoms: C_13  and  C_14
REMARK    6  A    between atoms: C_17  and  N_20
REMARK    7  A    between atoms: N_20  and  C_21
REMARK    8  A    between atoms: N_20  and  C_22
REMARK                            x       y       z     vdW  Elec       q    Type
REMARK                         _______ _______ _______ _____ _____    ______ ____
ROOT
ATOM      1  C   UNL     1      -1.891   0.754   3.311  0.00  0.00    +0.136 C 
ATOM      2  N   UNL     1      -1.954   0.253   1.936  0.00  0.00    -0.259 N 
ATOM      3  C   UNL     1      -2.464   0.898   0.852  0.00  0.00    +0.308 C 
ATOM      4  O   UNL     1      -3.139   1.907   0.926  0.00  0.00    -0.252 OA
ATOM      5  N   UNL     1      -2.139   0.292  -0.337  0.00  0.00    -0.257 N 
ATOM      6  C   UNL     1      -1.092  -0.665  -0.010  0.00  0.00    +0.202 C 
ATOM      7  C   UNL     1      -1.486  -1.032   1.451  0.00  0.00    +0.189 C 
ATOM      8  N   UNL     1      -0.356  -1.680   2.078  0.00  0.00    -0.248 N 
ATOM      9  N   UNL     1      -0.037  -2.793   1.287  0.00  0.00    -0.203 N 
ATOM     10  C   UNL     1       0.668  -3.816   1.774  0.00  0.00    +0.284 A 
ATOM     11  O   UNL     1       1.214  -3.741   2.859  0.00  0.00    -0.265 OA
ATOM     12  C   UNL     1       0.764  -5.038   0.958  0.00  0.00    +0.082 A 
ATOM     13  C   UNL     1       1.354  -6.225   1.251  0.00  0.00    +0.028 C 
ATOM     14  S   UNL     1      -0.104  -4.538  -0.523  0.00  0.00    -0.045 S 
ATOM     15  C   UNL     1      -0.494  -2.884  -0.022  0.00  0.00    +0.192 A 
ATOM     16  N   UNL     1      -1.074  -1.941  -0.726  0.00  0.00    -0.224 NA
ATOM     17  C   UNL     1      -2.719   0.544  -1.659  0.00  0.00    +0.136 C 
ATOM     18  H   UNL     1      -0.578  -1.960   3.022  0.00  0.00    +0.169 HD
ENDROOT
BRANCH  13  19
ATOM     19  C   UNL     1       1.858  -6.479   2.606  0.00  0.00    -0.024 A 
ATOM     20  C   UNL     1       3.047  -7.195   2.791  0.00  0.00    +0.010 A 
ATOM     21  C   UNL     1       3.518  -7.427   4.062  0.00  0.00    +0.023 A 
ATOM     22  C   UNL     1       2.809  -6.961   5.166  0.00  0.00    +0.029 A 
ATOM     23  C   UNL     1       1.623  -6.253   4.988  0.00  0.00    +0.023 A 
ATOM     24  C   UNL     1       1.147  -6.012   3.719  0.00  0.00    +0.010 A 
BRANCH  22  25
ATOM     25  N   UNL     1       3.287  -7.202   6.451  0.00  0.00    -0.336 N 
ATOM     26  C   UNL     1       2.617  -6.600   7.607  0.00  0.00    +0.129 C 
ATOM     27  C   UNL     1       4.459  -8.058   6.648  0.00  0.00    +0.129 C 
ENDBRANCH  22  25
ENDBRANCH  13  19
BRANCH   7  28
ATOM     28  C   UNL     1      -2.656  -1.981   1.417  0.00  0.00    -0.000 A 
ATOM     29  C   UNL     1      -2.720  -3.032   2.312  0.00  0.00    +0.007 A 
ATOM     30  C   UNL     1      -3.795  -3.900   2.284  0.00  0.00    +0.000 A 
ATOM     31  C   UNL     1      -4.802  -3.723   1.354  0.00  0.00    +0.000 A 
ATOM     32  C   UNL     1      -4.736  -2.675   0.455  0.00  0.00    +0.000 A 
ATOM     33  C   UNL     1      -3.663  -1.804   0.486  0.00  0.00    +0.007 A 
ENDBRANCH   7  28
BRANCH   6  34
ATOM     34  C   UNL     1       0.265  -0.010  -0.054  0.00  0.00    +0.002 A 
ATOM     35  C   UNL     1       0.367   1.369  -0.040  0.00  0.00    +0.008 A 
ATOM     36  C   UNL     1       1.611   1.970  -0.080  0.00  0.00    +0.000 A 
ATOM     37  C   UNL     1       2.753   1.192  -0.136  0.00  0.00    +0.000 A 
ATOM     38  C   UNL     1       2.651  -0.186  -0.149  0.00  0.00    +0.000 A 
ATOM     39  C   UNL     1       1.407  -0.787  -0.108  0.00  0.00    +0.008 A 
ENDBRANCH   6  34
TORSDOF 4
