REMARK  Name = ZINC64539207
REMARK  6 active torsions:
REMARK  status: ('A' for Active; 'I' for Inactive)
REMARK    1  A    between atoms: C_1  and  C_2
REMARK    2  A    between atoms: C_4  and  N_9
REMARK    3  A    between atoms: C_17  and  C_19
REMARK    4  A    between atoms: N_21  and  C_22
REMARK    5  A    between atoms: C_22  and  C_23
REMARK    6  A    between atoms: C_23  and  C_24
REMARK                            x       y       z     vdW  Elec       q    Type
REMARK                         _______ _______ _______ _____ _____    ______ ____
ROOT
ATOM      1  N   UNL     1       0.028  -2.771  -2.418  0.00  0.00    -0.299 N 
ATOM      2  C   UNL     1       0.151  -4.153  -2.427  0.00  0.00    +0.135 A 
ATOM      3  C   UNL     1       0.266  -4.840  -3.646  0.00  0.00    +0.060 A 
ATOM      4  C   UNL     1       0.293  -4.449  -5.055  0.00  0.00    +0.053 A 
ATOM      5  C   UNL     1       0.425  -5.586  -5.757  0.00  0.00    +0.196 A 
ATOM      6  O   UNL     1       0.482  -6.639  -4.923  0.00  0.00    -0.463 OA
ATOM      7  C   UNL     1       0.391  -6.241  -3.643  0.00  0.00    +0.140 A 
ATOM      8  C   UNL     1       0.395  -6.897  -2.415  0.00  0.00    +0.080 A 
ATOM      9  C   UNL     1       0.278  -6.149  -1.251  0.00  0.00    +0.131 A 
ATOM     10  N   UNL     1       0.166  -4.820  -1.288  0.00  0.00    -0.226 NA
ATOM     11  H   UNL     1      -0.061  -2.287  -3.255  0.00  0.00    +0.154 HD
ENDROOT
BRANCH   1  15
ATOM     12  C   UNL     1      -1.544   1.017   0.292  0.00  0.00    +0.045 C 
ATOM     13  C   UNL     1      -0.722  -0.236   0.137  0.00  0.00    -0.035 A 
ATOM     14  C   UNL     1      -0.727  -0.921  -1.063  0.00  0.00    +0.027 A 
ATOM     15  C   UNL     1       0.031  -2.075  -1.206  0.00  0.00    +0.033 A 
ATOM     16  C   UNL     1       0.793  -2.539  -0.140  0.00  0.00    +0.024 A 
ATOM     17  C   UNL     1       0.794  -1.851   1.057  0.00  0.00    +0.017 A 
ATOM     18  C   UNL     1       0.042  -0.697   1.194  0.00  0.00    +0.021 A 
ATOM     19 BR   UNL     1       0.052   0.247   2.833  0.00  0.00    -0.050 Br
ENDBRANCH   1  15
BRANCH   9  20
ATOM     20  C   UNL     1       0.281  -6.839   0.057  0.00  0.00    +0.263 C 
ATOM     21  O   UNL     1       0.387  -8.049   0.105  0.00  0.00    -0.269 OA
ATOM     22  N   UNL     1       0.168  -6.126   1.195  0.00  0.00    -0.310 N 
ATOM     23  H   UNL     1       0.084  -5.160   1.156  0.00  0.00    +0.149 HD
BRANCH  22  24
ATOM     24  C   UNL     1       0.172  -6.810   2.490  0.00  0.00    +0.109 C 
BRANCH  24  25
ATOM     25  C   UNL     1       0.031  -5.779   3.612  0.00  0.00    +0.052 C 
BRANCH  25  26
ATOM     26  C   UNL     1       0.034  -6.482   4.945  0.00  0.00    -0.040 C 
ATOM     27  C   UNL     1       1.097  -6.679   5.757  0.00  0.00    -0.001 A 
ATOM     28  C   UNL     1       2.514  -6.312   5.647  0.00  0.00    +0.010 A 
ATOM     29  C   UNL     1       3.360  -6.655   6.645  0.00  0.00    +0.001 A 
ATOM     30  C   UNL     1       2.919  -7.350   7.779  0.00  0.00    +0.002 A 
ATOM     31  C   UNL     1       1.632  -7.722   7.952  0.00  0.00    +0.026 A 
ATOM     32  C   UNL     1       0.656  -7.412   6.965  0.00  0.00    +0.043 A 
ATOM     33  N   UNL     1      -0.629  -7.660   6.901  0.00  0.00    -0.380 N 
ATOM     34  C   UNL     1      -1.151  -7.105   5.647  0.00  0.00    +0.144 C 
ATOM     35  H   UNL     1      -1.150  -8.128   7.573  0.00  0.00    +0.160 HD
ENDBRANCH  25  26
ENDBRANCH  24  25
ENDBRANCH  22  24
ENDBRANCH   9  20
TORSDOF 5
