REMARK  Name = ZINC40981673
REMARK  8 active torsions:
REMARK  status: ('A' for Active; 'I' for Inactive)
REMARK    1  A    between atoms: C_1  and  C_2
REMARK    2  A    between atoms: C_2  and  C_3
REMARK    3  A    between atoms: C_3  and  S_4
REMARK    4  A    between atoms: S_4  and  C_5
REMARK    5  A    between atoms: C_10  and  C_20
REMARK    6  A    between atoms: C_23  and  O_26
REMARK    7  A    between atoms: O_26  and  C_27
REMARK    8  A    between atoms: C_27  and  C_28
REMARK                            x       y       z     vdW  Elec       q    Type
REMARK                         _______ _______ _______ _____ _____    ______ ____
ROOT
ATOM      1  C   UNL     1       1.641  -2.747   2.702  0.00  0.00    +0.210 A 
ATOM      2  N   UNL     1       2.143  -1.874   3.588  0.00  0.00    -0.187 NA
ATOM      3  C   UNL     1       2.730  -2.524   4.555  0.00  0.00    +0.219 A 
ATOM      4  N   UNL     1       2.608  -3.851   4.307  0.00  0.00    -0.220 N 
ATOM      5  N   UNL     1       1.903  -3.970   3.110  0.00  0.00    -0.141 NA
ATOM      6  C   UNL     1       3.138  -4.884   5.188  0.00  0.00    +0.175 C 
ATOM      7  C   UNL     1       4.100  -4.273   6.183  0.00  0.00    +0.041 C 
ATOM      8  C   UNL     1       4.181  -2.939   6.377  0.00  0.00    +0.020 C 
ATOM      9  N   UNL     1       3.390  -2.057   5.679  0.00  0.00    -0.287 N 
ATOM     10  C   UNL     1       5.156  -2.357   7.373  0.00  0.00    +0.052 C 
ATOM     11  C   UNL     1       5.369  -3.343   8.523  0.00  0.00    +0.014 C 
ATOM     12  C   UNL     1       5.893  -4.659   7.939  0.00  0.00    +0.080 C 
ATOM     13  C   UNL     1       4.918  -5.158   6.909  0.00  0.00    +0.163 C 
ATOM     14  O   UNL     1       4.835  -6.352   6.698  0.00  0.00    -0.292 OA
ATOM     15  H   UNL     1       3.299  -1.135   5.966  0.00  0.00    +0.155 HD
ENDROOT
BRANCH   6  16
ATOM     16  C   UNL     1       2.002  -5.538   5.932  0.00  0.00    -0.018 A 
ATOM     17  C   UNL     1       1.185  -4.779   6.749  0.00  0.00    +0.009 A 
ATOM     18  C   UNL     1       0.143  -5.376   7.432  0.00  0.00    +0.046 A 
ATOM     19  C   UNL     1      -0.083  -6.738   7.297  0.00  0.00    +0.121 A 
ATOM     20  C   UNL     1       0.739  -7.497   6.476  0.00  0.00    +0.046 A 
ATOM     21  C   UNL     1       1.776  -6.895   5.792  0.00  0.00    +0.009 A 
BRANCH  19  22
ATOM     22  O   UNL     1      -1.107  -7.328   7.969  0.00  0.00    -0.487 OA
BRANCH  22  23
ATOM     23  C   UNL     1      -1.280  -8.734   7.782  0.00  0.00    +0.266 C 
BRANCH  23  24
ATOM     24  C   UNL     1      -2.454  -9.208   8.599  0.00  0.00    +0.008 A 
ATOM     25  C   UNL     1      -3.173  -8.308   9.364  0.00  0.00    +0.008 A 
ATOM     26  C   UNL     1      -4.250  -8.743  10.113  0.00  0.00    +0.000 A 
ATOM     27  C   UNL     1      -4.610 -10.078  10.098  0.00  0.00    +0.001 A 
ATOM     28  C   UNL     1      -3.893 -10.978   9.333  0.00  0.00    +0.020 A 
ATOM     29  C   UNL     1      -2.818 -10.543   8.579  0.00  0.00    +0.047 A 
ATOM     30 CL   UNL     1      -1.920 -11.672   7.613  0.00  0.00    -0.083 Cl
ENDBRANCH  23  24
ENDBRANCH  22  23
ENDBRANCH  19  22
ENDBRANCH   6  16
BRANCH   1  31
ATOM     31  S   UNL     1       0.767  -2.325   1.232  0.00  0.00    -0.084 S 
BRANCH  31  32
ATOM     32  C   UNL     1       0.742  -0.511   1.242  0.00  0.00    +0.077 C 
BRANCH  32  34
ATOM     33  C   UNL     1      -0.019   1.526   0.010  0.00  0.00    +0.004 C 
ATOM     34  C   UNL     1       0.002  -0.004   0.002  0.00  0.00    +0.008 C 
ENDBRANCH  32  34
ENDBRANCH  31  32
ENDBRANCH   1  31
TORSDOF 7
