REMARK  Name = ZINC45470674
REMARK  5 active torsions:
REMARK  status: ('A' for Active; 'I' for Inactive)
REMARK    1  A    between atoms: C_1  and  C_2
REMARK    2  A    between atoms: C_15  and  C_17
REMARK    3  A    between atoms: C_17  and  C_19
REMARK    4  A    between atoms: C_17  and  N_20
REMARK    5  A    between atoms: C_30  and  C_33
REMARK                            x       y       z     vdW  Elec       q    Type
REMARK                         _______ _______ _______ _____ _____    ______ ____
ROOT
ATOM      1  C   UNL     1      -0.532  -8.605   2.725  0.00  0.00    -0.004 C 
ATOM      2  C   UNL     1      -0.523  -9.355   1.391  0.00  0.00    -0.005 C 
ENDROOT
BRANCH   1  16
ATOM      3  C   UNL     1      -1.763   1.204   1.540  0.00  0.00    +0.008 C 
ATOM      4  C   UNL     1      -1.572  -0.303   1.361  0.00  0.00    -0.009 C 
ATOM      5  C   UNL     1      -2.918  -1.015   1.528  0.00  0.00    +0.008 C 
ATOM      6  C   UNL     1      -2.786  -2.479   1.109  0.00  0.00    +0.037 C 
ATOM      7  C   UNL     1      -1.617  -3.106   1.863  0.00  0.00    -0.023 A 
ATOM      8  C   UNL     1      -0.669  -2.326   2.434  0.00  0.00    -0.004 A 
ATOM      9  S   UNL     1       0.473  -3.457   3.187  0.00  0.00    -0.073 S 
ATOM     10  C   UNL     1      -0.320  -4.968   2.738  0.00  0.00    +0.116 A 
ATOM     11  C   UNL     1      -1.454  -4.541   2.012  0.00  0.00    +0.075 A 
ATOM     12  C   UNL     1      -2.323  -5.563   1.500  0.00  0.00    +0.260 A 
ATOM     13  O   UNL     1      -3.327  -5.300   0.861  0.00  0.00    -0.267 OA
ATOM     14  N   UNL     1      -1.955  -6.837   1.773  0.00  0.00    -0.312 N 
ATOM     15  H   UNL     1      -2.514  -7.560   1.446  0.00  0.00    +0.170 HD
ATOM     16  C   UNL     1      -0.843  -7.151   2.481  0.00  0.00    +0.097 A 
ATOM     17  N   UNL     1      -0.024  -6.244   2.966  0.00  0.00    -0.228 NA
ATOM     18  C   UNL     1      -0.599  -0.829   2.425  0.00  0.00    +0.046 C 
ENDBRANCH   1  16
BRANCH   1  19
ATOM     19  N   UNL     1       0.786  -8.723   3.362  0.00  0.00    +0.387 N 
ATOM     20  C   UNL     1       1.790  -8.177   2.451  0.00  0.00    -0.076 C 
ATOM     21  C   UNL     1       2.943  -7.620   3.255  0.00  0.00    +0.000 C 
ATOM     22  C   UNL     1       4.032  -8.698   3.404  0.00  0.00    +0.104 C 
ATOM     23  N   UNL     1       3.434 -10.028   3.639  0.00  0.00    -0.317 N 
ATOM     24  C   UNL     1       2.303 -10.224   4.522  0.00  0.00    +0.088 C 
ATOM     25  C   UNL     1       0.985 -10.074   3.727  0.00  0.00    -0.059 C 
ATOM     26  C   UNL     1       3.977 -11.130   2.989  0.00  0.00    +0.121 A 
ATOM     27  C   UNL     1       5.191 -11.008   2.321  0.00  0.00    +0.044 A 
ATOM     28  C   UNL     1       5.720 -12.114   1.679  0.00  0.00    +0.017 A 
ATOM     29  C   UNL     1       5.013 -13.308   1.726  0.00  0.00    +0.073 A 
ATOM     30  C   UNL     1       3.813 -13.358   2.407  0.00  0.00    +0.125 A 
ATOM     31  N   UNL     1       3.336 -12.289   3.015  0.00  0.00    -0.240 NA
ATOM     32  H   UNL     1       0.784  -8.164   4.202  0.00  0.00    -0.081 HD
BRANCH  29  33
ATOM     33  C   UNL     1       5.550 -14.538   1.040  0.00  0.00    +0.419 C 
ATOM     34  F   UNL     1       6.357 -15.254   1.931  0.00  0.00    -0.166 F 
ATOM     35  F   UNL     1       4.484 -15.344   0.625  0.00  0.00    -0.166 F 
ATOM     36  F   UNL     1       6.308 -14.158  -0.073  0.00  0.00    -0.166 F 
ENDBRANCH  29  33
ENDBRANCH   1  19
TORSDOF 3
