REMARK  Name = ZINC24460160
REMARK  14 active torsions:
REMARK  status: ('A' for Active; 'I' for Inactive)
REMARK    1  A    between atoms: C_1  and  C_2
REMARK    2  A    between atoms: C_2  and  N_3
REMARK    3  A    between atoms: N_3  and  C_4
REMARK    4  A    between atoms: N_3  and  C_6
REMARK    5  A    between atoms: C_4  and  C_5
REMARK    6  A    between atoms: C_6  and  C_8
REMARK    7  A    between atoms: C_6  and  C_29
REMARK    8  A    between atoms: C_8  and  N_9
REMARK    9  A    between atoms: C_10  and  C_12
REMARK   10  A    between atoms: C_13  and  C_14
REMARK   11  A    between atoms: N_19  and  C_20
REMARK   12  A    between atoms: C_26  and  C_28
REMARK   13  A    between atoms: C_33  and  O_35
REMARK   14  A    between atoms: O_35  and  C_36
REMARK                            x       y       z     vdW  Elec       q    Type
REMARK                         _______ _______ _______ _____ _____    ______ ____
ROOT
ATOM      1  N   UNL     1      -0.899   6.035   1.290  0.00  0.00    -0.313 N 
ATOM      2  C   UNL     1      -0.953   6.104   2.635  0.00  0.00    +0.237 C 
ATOM      3  O   UNL     1      -0.678   5.125   3.306  0.00  0.00    -0.271 OA
ATOM      4  H   UNL     1      -1.148   6.919   0.684  0.00  0.00    +0.149 HD
ENDROOT
BRANCH   2   5
ATOM      5  C   UNL     1      -1.330   7.313   3.268  0.00  0.00    +0.069 C 
ATOM      6  C   UNL     1      -1.384   7.382   4.619  0.00  0.00    +0.033 C 
BRANCH   6   7
ATOM      7  C   UNL     1      -1.774   8.634   5.274  0.00  0.00    +0.073 A 
ATOM      8  C   UNL     1      -1.833   8.716   6.647  0.00  0.00    +0.076 A 
ATOM      9  S   UNL     1      -2.346  10.416   6.857  0.00  0.00    -0.059 S 
ATOM     10  C   UNL     1      -2.430  10.845   5.124  0.00  0.00    +0.172 A 
ATOM     11  N   UNL     1      -2.072   9.714   4.550  0.00  0.00    -0.225 NA
ATOM     12  N   UNL     1      -2.776  12.055   4.536  0.00  0.00    -0.219 N 
ATOM     13  C   UNL     1      -2.871  12.150   3.195  0.00  0.00    +0.223 C 
ATOM     14  O   UNL     1      -2.727  11.163   2.505  0.00  0.00    -0.275 OA
ATOM     15  C   UNL     1      -3.155  13.483   2.552  0.00  0.00    +0.110 C 
BRANCH  12  16
ATOM     16  C   UNL     1      -3.027  13.177   5.337  0.00  0.00    +0.043 A 
ATOM     17  C   UNL     1      -4.191  13.247   6.091  0.00  0.00    +0.024 A 
ATOM     18  C   UNL     1      -4.433  14.352   6.883  0.00  0.00    +0.002 A 
ATOM     19  C   UNL     1      -3.523  15.393   6.918  0.00  0.00    +0.000 A 
ATOM     20  C   UNL     1      -2.365  15.328   6.164  0.00  0.00    +0.002 A 
ATOM     21  C   UNL     1      -2.115  14.223   5.374  0.00  0.00    +0.024 A 
ENDBRANCH  12  16
ENDBRANCH   6   7
ENDBRANCH   2   5
BRANCH   1  22
ATOM     22  C   UNL     1      -0.510   4.784   0.635  0.00  0.00    +0.094 C 
BRANCH  22  23
ATOM     23  C   UNL     1      -0.609   4.951  -0.882  0.00  0.00    -0.020 C 
BRANCH  23  24
ATOM     24  C   UNL     1      -0.321   3.632  -1.552  0.00  0.00    -0.056 A 
ATOM     25  C   UNL     1      -0.749   2.453  -0.970  0.00  0.00    +0.002 A 
ATOM     26  C   UNL     1      -0.490   1.242  -1.584  0.00  0.00    +0.004 A 
ATOM     27  C   UNL     1       0.205   1.206  -2.777  0.00  0.00    +0.045 A 
ATOM     28  C   UNL     1       0.635   2.387  -3.364  0.00  0.00    +0.120 A 
ATOM     29  C   UNL     1       0.370   3.602  -2.748  0.00  0.00    +0.047 A 
BRANCH  28  30
ATOM     30  O   UNL     1       1.315   2.354  -4.540  0.00  0.00    -0.495 OA
ATOM     31  C   UNL     1       1.552   1.069  -5.117  0.00  0.00    +0.277 C 
ENDBRANCH  28  30
ENDBRANCH  23  24
BRANCH  23  32
ATOM     32  N   UNL     1      -1.962   5.396  -1.239  0.00  0.00    +0.385 N 
ATOM     33  H   UNL     1      -2.143   6.361  -0.743  0.00  0.00    -0.081 HD
BRANCH  32  35
ATOM     34  C   UNL     1      -1.231   6.804  -3.104  0.00  0.00    -0.017 C 
ATOM     35  C   UNL     1      -2.084   5.604  -2.688  0.00  0.00    -0.081 C 
ENDBRANCH  32  35
BRANCH  32  36
ATOM     36  C   UNL     1      -2.973   4.444  -0.757  0.00  0.00    -0.081 C 
ATOM     37  C   UNL     1      -3.379   4.811   0.671  0.00  0.00    -0.017 C 
ENDBRANCH  32  36
ENDBRANCH  23  32
ENDBRANCH  22  23
ENDBRANCH   1  22
TORSDOF 10
