REMARK  Name = ZINC12163727
REMARK  12 active torsions:
REMARK  status: ('A' for Active; 'I' for Inactive)
REMARK    1  A    between atoms: C_1  and  C_2
REMARK    2  A    between atoms: C_2  and  C_10
REMARK    3  A    between atoms: C_3  and  C_4
REMARK    4  A    between atoms: C_10  and  N_64
REMARK    5  A    between atoms: C_12  and  N_28
REMARK    6  A    between atoms: C_15  and  C_17
REMARK    7  A    between atoms: N_19  and  C_20
REMARK    8  A    between atoms: C_24  and  S_26
REMARK    9  A    between atoms: S_26  and  C_27
REMARK   10  A    between atoms: C_30  and  C_33
REMARK   11  A    between atoms: C_33  and  O_35
REMARK   12  A    between atoms: O_35  and  C_36
REMARK                            x       y       z     vdW  Elec       q    Type
REMARK                         _______ _______ _______ _____ _____    ______ ____
ROOT
ATOM      1  C   UNL     1      -6.037   0.606   4.152  0.00  0.00    -0.050 C 
ATOM      2  C   UNL     1      -5.609   1.863   3.355  0.00  0.00    +0.091 C 
ATOM      3  C   UNL     1      -6.919   2.695   3.352  0.00  0.00    +0.019 C 
ATOM      4  C   UNL     1      -7.526   2.393   4.738  0.00  0.00    +0.022 C 
ATOM      5  N   UNL     1      -6.936   1.127   5.202  0.00  0.00    +0.391 N 
ATOM      6  H   UNL     1      -6.394   1.298   6.058  0.00  0.00    -0.080 HD
ENDROOT
BRANCH   2   7
ATOM      7  N   UNL     1      -5.209   1.509   1.991  0.00  0.00    -0.250 N 
ATOM      8  C   UNL     1      -5.689   0.489   1.252  0.00  0.00    +0.145 A 
ATOM      9  C   UNL     1      -5.036   0.528   0.052  0.00  0.00    +0.189 A 
ATOM     10  N   UNL     1      -4.181   1.565   0.067  0.00  0.00    -0.123 NA
ATOM     11  N   UNL     1      -4.256   2.169   1.202  0.00  0.00    -0.065 NA
BRANCH   9  12
ATOM     12  C   UNL     1      -5.241  -0.405  -1.071  0.00  0.00    +0.361 C 
ATOM     13  O   UNL     1      -6.046  -1.309  -0.970  0.00  0.00    -0.243 OA
BRANCH  12  14
ATOM     14  O   UNL     1      -4.534  -0.254  -2.208  0.00  0.00    -0.463 OA
ATOM     15  C   UNL     1      -4.787  -1.210  -3.272  0.00  0.00    +0.280 C 
ENDBRANCH  12  14
ENDBRANCH   9  12
ENDBRANCH   2   7
BRANCH   4  16
ATOM     16  C   UNL     1      -9.024   2.273   4.627  0.00  0.00    +0.204 C 
ATOM     17  O   UNL     1      -9.513   1.441   3.893  0.00  0.00    -0.277 OA
ATOM     18  N   UNL     1      -9.820   3.092   5.343  0.00  0.00    -0.287 N 
ATOM     19  H   UNL     1      -9.431   3.801   5.878  0.00  0.00    +0.155 HD
BRANCH  18  20
ATOM     20  C   UNL     1     -11.208   2.919   5.314  0.00  0.00    +0.034 A 
ATOM     21  C   UNL     1     -11.962   3.147   6.459  0.00  0.00    +0.023 A 
ATOM     22  C   UNL     1     -13.332   2.976   6.432  0.00  0.00    +0.003 A 
ATOM     23  C   UNL     1     -13.959   2.579   5.267  0.00  0.00    +0.015 A 
ATOM     24  C   UNL     1     -13.212   2.349   4.118  0.00  0.00    +0.009 A 
ATOM     25  C   UNL     1     -11.835   2.525   4.141  0.00  0.00    +0.038 A 
BRANCH  24  26
ATOM     26  S   UNL     1     -14.012   1.842   2.632  0.00  0.00    -0.129 S 
ATOM     27  C   UNL     1     -15.766   1.759   3.084  0.00  0.00    +0.090 C 
ENDBRANCH  24  26
ENDBRANCH  18  20
ENDBRANCH   4  16
BRANCH   5  28
ATOM     28  C   UNL     1      -8.007   0.139   5.496  0.00  0.00    -0.047 C 
BRANCH  28  30
ATOM     29  C   UNL     1      -6.959  -2.164   4.853  0.00  0.00    +0.037 C 
ATOM     30  C   UNL     1      -7.381  -1.170   5.904  0.00  0.00    -0.089 C 
ATOM     31  C   UNL     1      -7.202  -1.446   7.188  0.00  0.00    +0.005 C 
BRANCH  31  32
ATOM     32  C   UNL     1      -6.449  -2.655   7.586  0.00  0.00    -0.025 A 
ATOM     33  C   UNL     1      -6.880  -3.424   8.667  0.00  0.00    +0.008 A 
ATOM     34  C   UNL     1      -6.176  -4.554   9.030  0.00  0.00    +0.001 A 
ATOM     35  C   UNL     1      -5.039  -4.919   8.331  0.00  0.00    +0.000 A 
ATOM     36  C   UNL     1      -4.604  -4.157   7.261  0.00  0.00    +0.001 A 
ATOM     37  C   UNL     1      -5.302  -3.028   6.885  0.00  0.00    +0.008 A 
ENDBRANCH  31  32
ENDBRANCH  28  30
ENDBRANCH   5  28
TORSDOF 9
