REMARK  Name = ZINC28721412
REMARK  12 active torsions:
REMARK  status: ('A' for Active; 'I' for Inactive)
REMARK    1  A    between atoms: C_1  and  C_2
REMARK    2  A    between atoms: C_6  and  N_8
REMARK    3  A    between atoms: N_10  and  C_31
REMARK    4  A    between atoms: C_13  and  C_16
REMARK    5  A    between atoms: C_16  and  C_17
REMARK    6  A    between atoms: N_19  and  C_20
REMARK    7  A    between atoms: C_22  and  N_28
REMARK    8  A    between atoms: C_25  and  O_26
REMARK    9  A    between atoms: O_26  and  C_27
REMARK   10  A    between atoms: C_31  and  C_32
REMARK   11  A    between atoms: C_32  and  C_33
REMARK   12  A    between atoms: C_32  and  C_34
REMARK                            x       y       z     vdW  Elec       q    Type
REMARK                         _______ _______ _______ _____ _____    ______ ____
ROOT
ATOM      1  N   UNL     1       0.065  -2.778   2.314  0.00  0.00    -0.226 NA
ATOM      2  C   UNL     1      -0.722  -3.814   2.485  0.00  0.00    +0.164 C 
ATOM      3  N   UNL     1      -0.841  -4.619   3.598  0.00  0.00    -0.249 N 
ATOM      4  C   UNL     1      -1.678  -5.641   3.648  0.00  0.00    +0.235 C 
ATOM      5  O   UNL     1      -1.777  -6.345   4.631  0.00  0.00    -0.274 OA
ATOM      6  C   UNL     1      -2.510  -5.878   2.398  0.00  0.00    +0.149 C 
ATOM      7  S   UNL     1      -1.899  -4.506   1.333  0.00  0.00    -0.077 S 
ENDROOT
BRANCH   1  13
ATOM      8  C   UNL     1      -0.021   1.504  -0.059  0.00  0.00    +0.044 C 
ATOM      9  C   UNL     1      -0.001  -0.003  -0.060  0.00  0.00    -0.048 A 
ATOM     10  C   UNL     1      -0.005  -0.692  -1.260  0.00  0.00    +0.003 A 
ATOM     11  C   UNL     1       0.014  -2.075  -1.271  0.00  0.00    +0.002 A 
ATOM     12  C   UNL     1       0.038  -2.777  -0.083  0.00  0.00    +0.028 A 
ATOM     13  C   UNL     1       0.042  -2.088   1.131  0.00  0.00    +0.067 A 
ATOM     14  C   UNL     1       0.029  -0.691   1.134  0.00  0.00    +0.031 A 
ENDBRANCH   1  13
BRANCH   6  15
ATOM     15  C   UNL     1      -2.206  -7.244   1.781  0.00  0.00    +0.120 C 
BRANCH  15  16
ATOM     16  C   UNL     1      -3.136  -7.489   0.620  0.00  0.00    +0.219 C 
ATOM     17  O   UNL     1      -3.960  -6.652   0.317  0.00  0.00    -0.275 OA
ATOM     18  N   UNL     1      -3.052  -8.637  -0.081  0.00  0.00    -0.282 N 
ATOM     19  H   UNL     1      -2.351  -9.278   0.120  0.00  0.00    +0.155 HD
BRANCH  18  20
ATOM     20  C   UNL     1      -3.976  -8.906  -1.099  0.00  0.00    +0.078 A 
ATOM     21  C   UNL     1      -4.472  -7.871  -1.878  0.00  0.00    +0.059 A 
ATOM     22  C   UNL     1      -5.383  -8.139  -2.882  0.00  0.00    +0.128 A 
ATOM     23  C   UNL     1      -5.802  -9.436  -3.113  0.00  0.00    +0.036 A 
ATOM     24  C   UNL     1      -5.312 -10.472  -2.340  0.00  0.00    +0.050 A 
ATOM     25  C   UNL     1      -4.394 -10.213  -1.336  0.00  0.00    +0.141 A 
BRANCH  22  26
ATOM     26  N   UNL     1      -5.913  -7.033  -3.713  0.00  0.00    +0.056 N 
ATOM     27  O   UNL     1      -5.548  -5.898  -3.512  0.00  0.00    -0.126 OA
ATOM     28  O   UNL     1      -6.710  -7.266  -4.591  0.00  0.00    -0.126 OA
ENDBRANCH  22  26
BRANCH  25  29
ATOM     29  O   UNL     1      -3.906 -11.232  -0.579  0.00  0.00    -0.493 OA
ATOM     30  C   UNL     1      -4.379 -12.547  -0.878  0.00  0.00    +0.277 C 
ENDBRANCH  25  29
ENDBRANCH  18  20
ENDBRANCH  15  16
ENDBRANCH   6  15
BRANCH   3  31
ATOM     31  C   UNL     1      -0.007  -4.332   4.767  0.00  0.00    +0.118 C 
BRANCH  31  32
ATOM     32  C   UNL     1      -0.744  -3.364   5.695  0.00  0.00    +0.001 C 
ATOM     33  C   UNL     1       0.071  -3.162   6.973  0.00  0.00    +0.009 C 
ATOM     34  C   UNL     1      -0.926  -2.020   4.988  0.00  0.00    +0.009 C 
ENDBRANCH  31  32
ENDBRANCH   3  31
TORSDOF 8
