REMARK  Name = ZINC02427525
REMARK  6 active torsions:
REMARK  status: ('A' for Active; 'I' for Inactive)
REMARK    1  A    between atoms: C_1  and  O_2
REMARK    2  A    between atoms: O_2  and  C_3
REMARK    3  A    between atoms: C_5  and  C_10
REMARK    4  A    between atoms: C_8  and  O_9
REMARK    5  A    between atoms: N_25  and  C_26
REMARK    6  A    between atoms: C_26  and  C_27
REMARK                            x       y       z     vdW  Elec       q    Type
REMARK                         _______ _______ _______ _____ _____    ______ ____
ROOT
ATOM      1  C   UNL     1       3.387  -1.240  -0.038  0.00  0.00    +0.145 C 
ATOM      2  C   UNL     1       2.353  -0.145  -0.021  0.00  0.00    +0.072 A 
ATOM      3  C   UNL     1       2.455   1.317  -0.015  0.00  0.00    +0.199 A 
ATOM      4  O   UNL     1       3.534   1.883  -0.022  0.00  0.00    -0.287 OA
ATOM      5  C   UNL     1       1.186   2.070   0.002  0.00  0.00    +0.065 A 
ATOM      6  C   UNL     1       1.167   3.464   0.009  0.00  0.00    +0.030 A 
ATOM      7  C   UNL     1      -0.042   4.126   0.023  0.00  0.00    +0.019 A 
ATOM      8  C   UNL     1      -1.231   3.409   0.031  0.00  0.00    +0.019 A 
ATOM      9  C   UNL     1      -1.225   2.032   0.019  0.00  0.00    +0.048 A 
ATOM     10  C   UNL     1      -0.016   1.341   0.009  0.00  0.00    +0.140 A 
ATOM     11  O   UNL     1       0.002  -0.004   0.002  0.00  0.00    -0.450 OA
ATOM     12  C   UNL     1       1.133  -0.736  -0.013  0.00  0.00    +0.199 A 
ATOM     13  C   UNL     1       1.327  -2.208  -0.023  0.00  0.00    +0.284 C 
ATOM     14  O   UNL     1       0.430  -3.027  -0.019  0.00  0.00    -0.267 OA
ATOM     15  N   UNL     1       2.639  -2.503  -0.038  0.00  0.00    -0.276 N 
ATOM     16 BR   UNL     1      -0.080   6.017   0.032  0.00  0.00    -0.050 Br
ENDROOT
BRANCH   1  19
ATOM     17  C   UNL     1       6.333  -0.549   2.224  0.00  0.00    +0.162 A 
ATOM     18  C   UNL     1       5.533  -0.631   1.096  0.00  0.00    +0.055 A 
ATOM     19  C   UNL     1       4.256  -1.152   1.190  0.00  0.00    -0.019 A 
ATOM     20  C   UNL     1       3.772  -1.587   2.410  0.00  0.00    +0.009 A 
ATOM     21  C   UNL     1       4.568  -1.513   3.539  0.00  0.00    +0.049 A 
ATOM     22  C   UNL     1       5.849  -0.992   3.451  0.00  0.00    +0.158 A 
BRANCH  17  24
ATOM     23  C   UNL     1       8.021   0.397   0.841  0.00  0.00    +0.277 C 
ATOM     24  O   UNL     1       7.590  -0.038   2.132  0.00  0.00    -0.491 OA
ENDBRANCH  17  24
BRANCH  22  25
ATOM     25  O   UNL     1       6.630  -0.914   4.561  0.00  0.00    -0.503 OA
ATOM     26  H   UNL     1       6.539  -0.083   5.048  0.00  0.00    +0.292 HD
ENDBRANCH  22  25
ENDBRANCH   1  19
BRANCH  15  27
ATOM     27  C   UNL     1       3.218  -3.849  -0.051  0.00  0.00    +0.183 C 
BRANCH  27  28
ATOM     28  C   UNL     1       3.404  -4.302  -1.476  0.00  0.00    +0.122 A 
ATOM     29  C   UNL     1       4.501  -4.102  -2.229  0.00  0.00    +0.046 A 
ATOM     30  C   UNL     1       4.246  -4.689  -3.489  0.00  0.00    +0.041 A 
ATOM     31  C   UNL     1       3.005  -5.207  -3.434  0.00  0.00    +0.195 A 
ATOM     32  O   UNL     1       2.500  -4.969  -2.212  0.00  0.00    -0.466 OA
ENDBRANCH  27  28
ENDBRANCH  15  27
TORSDOF 5
