REMARK  Name = ZINC39452115
REMARK  5 active torsions:
REMARK  status: ('A' for Active; 'I' for Inactive)
REMARK    1  A    between atoms: C_1  and  S_2
REMARK    2  A    between atoms: S_2  and  C_3
REMARK    3  A    between atoms: C_16  and  S_19
REMARK    4  A    between atoms: S_19  and  O_22
REMARK    5  A    between atoms: O_22  and  C_23
REMARK                            x       y       z     vdW  Elec       q    Type
REMARK                         _______ _______ _______ _____ _____    ______ ____
ROOT
ATOM      1  C   UNL     1       0.877  -0.427   1.472  0.00  0.00    +0.026 A 
ATOM      2  C   UNL     1       1.098  -1.762   1.798  0.00  0.00    +0.031 A 
ATOM      3  C   UNL     1       1.796  -2.041   2.971  0.00  0.00    +0.069 A 
ATOM      4  C   UNL     1       2.248  -0.972   3.778  0.00  0.00    +0.099 A 
ATOM      5  C   UNL     1       2.980  -1.294   5.008  0.00  0.00    +0.083 A 
ATOM      6  C   UNL     1       3.206  -2.616   5.348  0.00  0.00    +0.122 A 
ATOM      7  N   UNL     1       2.754  -3.649   4.536  0.00  0.00    -0.237 N 
ATOM      8  C   UNL     1       2.077  -3.420   3.396  0.00  0.00    +0.271 A 
ATOM      9  O   UNL     1       1.697  -4.355   2.715  0.00  0.00    -0.266 OA
ATOM     10 BR   UNL     1       3.093  -5.397   5.039  0.00  0.00    +0.058 Br
ATOM     11  C   UNL     1       3.901  -2.925   6.537  0.00  0.00    +0.186 C 
ATOM     12  O   UNL     1       4.142  -4.085   6.808  0.00  0.00    -0.290 OA
ATOM     13  C   UNL     1       4.349  -1.833   7.472  0.00  0.00    +0.130 C 
ATOM     14  C   UNL     1       4.623  -0.556   6.669  0.00  0.00    +0.263 C 
ATOM     15  N   UNL     1       3.449  -0.283   5.825  0.00  0.00    -0.317 N 
ATOM     16  N   UNL     1       2.010   0.285   3.421  0.00  0.00    -0.252 NA
ATOM     17  C   UNL     1       1.359   0.575   2.317  0.00  0.00    +0.126 A 
ATOM     18  H   UNL     1       3.015   0.585   5.842  0.00  0.00    +0.148 HD
ENDROOT
BRANCH  14  19
ATOM     19  S   UNL     1       6.086  -0.793   5.624  0.00  0.00    +0.140 S 
ATOM     20  O   UNL     1       7.250  -0.909   6.431  0.00  0.00    -0.135 OA
ATOM     21  O   UNL     1       5.812  -1.748   4.607  0.00  0.00    -0.135 OA
BRANCH  19  22
ATOM     22  O   UNL     1       6.256   0.525   4.883  0.00  0.00    -0.345 OA
BRANCH  22  23
ATOM     23  C   UNL     1       6.757   1.529   5.650  0.00  0.00    +0.156 A 
ATOM     24  C   UNL     1       5.899   2.357   6.358  0.00  0.00    +0.048 A 
ATOM     25  C   UNL     1       6.411   3.377   7.137  0.00  0.00    +0.004 A 
ATOM     26  C   UNL     1       7.777   3.573   7.211  0.00  0.00    +0.000 A 
ATOM     27  C   UNL     1       8.635   2.749   6.506  0.00  0.00    +0.004 A 
ATOM     28  C   UNL     1       8.128   1.724   5.730  0.00  0.00    +0.048 A 
ENDBRANCH  22  23
ENDBRANCH  19  22
ENDBRANCH  14  19
BRANCH   1  30
ATOM     29  C   UNL     1      -0.022   1.810   0.012  0.00  0.00    +0.090 C 
ATOM     30  S   UNL     1       0.002  -0.004   0.002  0.00  0.00    -0.127 S 
ENDBRANCH   1  30
TORSDOF 4
