REMARK  Name = ZINC32069770
REMARK  5 active torsions:
REMARK  status: ('A' for Active; 'I' for Inactive)
REMARK    1  A    between atoms: C_1  and  C_2
REMARK    2  A    between atoms: C_20  and  C_24
REMARK    3  A    between atoms: C_21  and  N_23
REMARK    4  A    between atoms: C_24  and  O_26
REMARK    5  A    between atoms: O_26  and  C_27
REMARK                            x       y       z     vdW  Elec       q    Type
REMARK                         _______ _______ _______ _____ _____    ______ ____
ROOT
ATOM      1  C   UNL     1       4.583   1.853  -4.852  0.00  0.00    +0.086 C 
ATOM      2  C   UNL     1       3.968   1.501  -3.522  0.00  0.00    +0.110 A 
ATOM      3  C   UNL     1       4.775   1.137  -2.509  0.00  0.00    +0.088 A 
ATOM      4  C   UNL     1       4.213   0.804  -1.256  0.00  0.00    +0.145 A 
ATOM      5  C   UNL     1       2.841   0.862  -1.119  0.00  0.00    +0.103 A 
ATOM      6  C   UNL     1       2.067   1.250  -2.219  0.00  0.00    +0.345 A 
ATOM      7  O   UNL     1       0.853   1.306  -2.110  0.00  0.00    -0.245 OA
ATOM      8  O   UNL     1       2.639   1.562  -3.390  0.00  0.00    -0.427 OA
ATOM      9  C   UNL     1       2.190   0.515   0.188  0.00  0.00    +0.145 C 
ATOM     10  C   UNL     1       1.492  -0.807   0.104  0.00  0.00    -0.000 A 
ATOM     11  C   UNL     1       1.969  -2.076  -0.146  0.00  0.00    +0.027 A 
ATOM     12  C   UNL     1       1.037  -3.110  -0.153  0.00  0.00    +0.041 A 
ATOM     13  C   UNL     1      -0.303  -2.872   0.080  0.00  0.00    +0.022 A 
ATOM     14  C   UNL     1      -0.788  -1.598   0.333  0.00  0.00    +0.025 A 
ATOM     15  C   UNL     1       0.137  -0.552   0.343  0.00  0.00    +0.038 A 
ATOM     16  N   UNL     1      -0.067   0.799   0.565  0.00  0.00    -0.284 N 
ATOM     17  C   UNL     1       1.082   1.502   0.494  0.00  0.00    +0.237 C 
ATOM     18  O   UNL     1       1.206   2.699   0.647  0.00  0.00    -0.274 OA
ATOM     19 CL   UNL     1       1.571  -4.733  -0.461  0.00  0.00    -0.084 Cl
ATOM     20  C   UNL     1       3.201   0.517   1.298  0.00  0.00    +0.117 C 
ATOM     21  C   UNL     1       4.533   0.481   1.031  0.00  0.00    +0.196 C 
ATOM     22  O   UNL     1       5.003   0.440  -0.227  0.00  0.00    -0.441 OA
ATOM     23  H   UNL     1      -1.080   1.176   0.769  0.00  0.00    +0.155 HD
ENDROOT
BRANCH  21  24
ATOM     24  N   UNL     1       5.421   0.486   2.073  0.00  0.00    -0.329 N 
ATOM     25  H   UNL     1       6.502   0.457   1.875  0.00  0.00    +0.145 HD
ATOM     26  H   UNL     1       5.053   0.519   3.109  0.00  0.00    +0.145 HD
ENDBRANCH  21  24
BRANCH  20  27
ATOM     27  C   UNL     1       2.764   0.557   2.631  0.00  0.00    +0.341 C 
ATOM     28  O   UNL     1       3.569   0.450   3.539  0.00  0.00    -0.245 OA
BRANCH  27  29
ATOM     29  O   UNL     1       1.452   0.716   2.907  0.00  0.00    -0.465 OA
ATOM     30  C   UNL     1       1.078   0.748   4.286  0.00  0.00    +0.280 C 
ENDBRANCH  27  29
ENDBRANCH  20  27
TORSDOF 3
