REMARK  Name = ZINC41282426
REMARK  9 active torsions:
REMARK  status: ('A' for Active; 'I' for Inactive)
REMARK    1  A    between atoms: C_1  and  C_2
REMARK    2  A    between atoms: C_2  and  C_3
REMARK    3  A    between atoms: C_6  and  C_9
REMARK    4  A    between atoms: C_12  and  C_14
REMARK    5  A    between atoms: C_14  and  N_15
REMARK    6  A    between atoms: C_18  and  C_21
REMARK    7  A    between atoms: N_23  and  C_24
REMARK    8  A    between atoms: C_24  and  C_25
REMARK    9  A    between atoms: C_25  and  N_26
REMARK                            x       y       z     vdW  Elec       q    Type
REMARK                         _______ _______ _______ _____ _____    ______ ____
ROOT
ATOM      1  N   UNL     1      -9.378  -1.991  -1.669  0.00  0.00    +0.386 N 
ATOM      2  C   UNL     1      -8.648  -1.022  -2.496  0.00  0.00    -0.077 C 
ATOM      3  C   UNL     1      -9.512   0.221  -2.714  0.00  0.00    -0.006 C 
ATOM      4  C   UNL     1     -10.809  -0.183  -3.422  0.00  0.00    +0.071 C 
ATOM      5  C   UNL     1     -11.525  -1.248  -2.587  0.00  0.00    -0.006 C 
ATOM      6  C   UNL     1     -10.586  -2.437  -2.373  0.00  0.00    -0.077 C 
ATOM      7  H   UNL     1      -9.640  -1.555  -0.797  0.00  0.00    -0.081 HD
ENDROOT
BRANCH   4   8
ATOM      8  C   UNL     1     -11.699   1.024  -3.571  0.00  0.00    +0.216 C 
ATOM      9  O   UNL     1     -11.334   2.102  -3.152  0.00  0.00    -0.276 OA
ATOM     10  N   UNL     1     -12.901   0.905  -4.169  0.00  0.00    -0.314 N 
ATOM     11  H   UNL     1     -13.193   0.043  -4.504  0.00  0.00    +0.149 HD
BRANCH  10  12
ATOM     12  C   UNL     1     -13.767   2.079  -4.313  0.00  0.00    +0.123 C 
BRANCH  12  13
ATOM     13  C   UNL     1     -15.061   1.673  -5.021  0.00  0.00    +0.124 C 
BRANCH  13  14
ATOM     14  N   UNL     1     -15.927   2.846  -5.165  0.00  0.00    -0.328 N 
ATOM     15  C   UNL     1     -16.896   3.193  -4.116  0.00  0.00    +0.105 C 
ATOM     16  C   UNL     1     -18.222   3.545  -4.802  0.00  0.00    +0.024 C 
ATOM     17  C   UNL     1     -18.014   4.782  -5.675  0.00  0.00    +0.038 C 
ATOM     18  C   UNL     1     -16.827   4.592  -6.583  0.00  0.00    -0.026 A 
ATOM     19  C   UNL     1     -15.840   3.659  -6.301  0.00  0.00    +0.033 A 
ATOM     20  C   UNL     1     -14.752   3.515  -7.154  0.00  0.00    +0.023 A 
ATOM     21  C   UNL     1     -14.649   4.305  -8.282  0.00  0.00    +0.002 A 
ATOM     22  C   UNL     1     -15.631   5.237  -8.562  0.00  0.00    +0.000 A 
ATOM     23  C   UNL     1     -16.721   5.376  -7.720  0.00  0.00    +0.005 A 
ENDBRANCH  13  14
ENDBRANCH  12  13
ENDBRANCH  10  12
ENDBRANCH   4   8
BRANCH   1  24
ATOM     24  C   UNL     1      -8.516  -3.148  -1.397  0.00  0.00    +0.021 C 
BRANCH  24  28
ATOM     25  C   UNL     1      -5.396  -1.996   0.043  0.00  0.00    +0.248 A 
ATOM     26  N   UNL     1      -6.120  -2.262   1.105  0.00  0.00    -0.107 NA
ATOM     27  N   UNL     1      -7.276  -2.689   0.735  0.00  0.00    -0.114 NA
ATOM     28  C   UNL     1      -7.335  -2.712  -0.568  0.00  0.00    +0.202 A 
ATOM     29  O   UNL     1      -6.155  -2.272  -1.037  0.00  0.00    -0.422 OA
BRANCH  25  33
ATOM     30  C   UNL     1      -1.412  -0.526   0.013  0.00  0.00    -0.048 A 
ATOM     31  C   UNL     1      -2.048  -0.765   1.218  0.00  0.00    +0.004 A 
ATOM     32  C   UNL     1      -3.343  -1.243   1.234  0.00  0.00    +0.013 A 
ATOM     33  C   UNL     1      -4.010  -1.484   0.032  0.00  0.00    +0.038 A 
ATOM     34  C   UNL     1      -3.362  -1.240  -1.179  0.00  0.00    +0.013 A 
ATOM     35  C   UNL     1      -2.069  -0.758  -1.182  0.00  0.00    +0.004 A 
BRANCH  30  37
ATOM     36  C   UNL     1      -0.019   1.526   0.010  0.00  0.00    +0.009 C 
ATOM     37  C   UNL     1       0.002  -0.004   0.002  0.00  0.00    +0.032 C 
ENDBRANCH  30  37
ENDBRANCH  25  33
ENDBRANCH  24  28
ENDBRANCH   1  24
TORSDOF 8
