REMARK  Name = ZINC59762832
REMARK  5 active torsions:
REMARK  status: ('A' for Active; 'I' for Inactive)
REMARK    1  A    between atoms: C_1  and  C_2
REMARK    2  A    between atoms: C_7  and  N_8
REMARK    3  A    between atoms: N_8  and  C_9
REMARK    4  A    between atoms: N_8  and  C_10
REMARK    5  A    between atoms: C_15  and  N_16
REMARK                            x       y       z     vdW  Elec       q    Type
REMARK                         _______ _______ _______ _____ _____    ______ ____
ROOT
ATOM      1  C   UNL     1      -1.387   0.188   3.118  0.00  0.00    +0.057 A 
ATOM      2  C   UNL     1      -1.783  -0.710   4.100  0.00  0.00    +0.074 A 
ATOM      3  C   UNL     1      -3.062  -0.639   4.629  0.00  0.00    +0.164 A 
ATOM      4  C   UNL     1      -3.947   0.332   4.175  0.00  0.00    +0.164 A 
ATOM      5  C   UNL     1      -3.549   1.227   3.193  0.00  0.00    +0.072 A 
ATOM      6  C   UNL     1      -2.272   1.159   2.669  0.00  0.00    +0.034 A 
ATOM      7  O   UNL     1      -5.206   0.422   4.688  0.00  0.00    -0.485 OA
ATOM      8  C   UNL     1      -5.694  -0.721   5.399  0.00  0.00    +0.270 C 
ATOM      9  C   UNL     1      -4.595  -1.193   6.361  0.00  0.00    +0.270 C 
ATOM     10  O   UNL     1      -3.437  -1.529   5.588  0.00  0.00    -0.485 OA
ENDROOT
BRANCH   6  11
ATOM     11  N   UNL     1      -1.872   2.066   1.683  0.00  0.00    -0.415 NA
ATOM     12  H   UNL     1      -2.099   1.695   0.773  0.00  0.00    +0.121 HD
ATOM     13  H   UNL     1      -2.353   2.943   1.818  0.00  0.00    +0.121 HD
ATOM     14  H   UNL     1      -0.876   2.216   1.747  0.00  0.00    +0.121 HD
ENDBRANCH   6  11
BRANCH   1  15
ATOM     15  N   UNL     1      -0.095   0.118   2.586  0.00  0.00    -0.301 N 
ATOM     16  C   UNL     1       1.000   0.857   3.220  0.00  0.00    +0.135 C 
BRANCH  15  23
ATOM     17  C   UNL     1       0.795  -2.559   2.952  0.00  0.00    +0.045 C 
ATOM     18  C   UNL     1       0.587  -1.968   1.581  0.00  0.00    -0.029 A 
ATOM     19  C   UNL     1       0.824  -2.732   0.456  0.00  0.00    +0.005 A 
ATOM     20  C   UNL     1       0.633  -2.191  -0.802  0.00  0.00    +0.000 A 
ATOM     21  C   UNL     1       0.205  -0.882  -0.938  0.00  0.00    +0.002 A 
ATOM     22  C   UNL     1      -0.033  -0.113   0.183  0.00  0.00    +0.024 A 
ATOM     23  C   UNL     1       0.151  -0.656   1.449  0.00  0.00    +0.037 A 
ENDBRANCH  15  23
ENDBRANCH   1  15
TORSDOF 3
