REMARK  Name = ZINC16840386
REMARK  10 active torsions:
REMARK  status: ('A' for Active; 'I' for Inactive)
REMARK    1  A    between atoms: C_1  and  C_2
REMARK    2  A    between atoms: C_4  and  C_34
REMARK    3  A    between atoms: N_5  and  C_21
REMARK    4  A    between atoms: C_8  and  C_9
REMARK    5  A    between atoms: C_11  and  C_14
REMARK    6  A    between atoms: C_21  and  C_22
REMARK    7  A    between atoms: N_24  and  C_25
REMARK    8  A    between atoms: C_29  and  C_30
REMARK    9  A    between atoms: C_30  and  O_32
REMARK   10  A    between atoms: O_32  and  C_33
REMARK                            x       y       z     vdW  Elec       q    Type
REMARK                         _______ _______ _______ _____ _____    ______ ____
ROOT
ATOM      1  C   UNL     1       6.037  -1.742   0.055  0.00  0.00    +0.045 C 
ATOM      2  C   UNL     1       6.692  -0.385   0.034  0.00  0.00    -0.031 A 
ATOM      3  C   UNL     1       8.082  -0.271  -0.025  0.00  0.00    +0.025 A 
ATOM      4  C   UNL     1       8.664   0.955  -0.038  0.00  0.00    +0.020 A 
ATOM      5  N   UNL     1       7.919   2.087  -0.000  0.00  0.00    -0.303 N 
ATOM      6  C   UNL     1       6.575   2.031   0.051  0.00  0.00    +0.265 A 
ATOM      7  O   UNL     1       5.921   3.060   0.084  0.00  0.00    -0.267 OA
ATOM      8  C   UNL     1       5.921   0.772   0.067  0.00  0.00    +0.107 A 
ATOM      9  C   UNL     1      10.167   1.060  -0.096  0.00  0.00    +0.063 C 
ENDROOT
BRANCH   8  10
ATOM     10  C   UNL     1       4.452   0.692   0.123  0.00  0.00    +0.264 A 
ATOM     11  N   UNL     1       3.608   1.709   0.164  0.00  0.00    -0.187 NA
ATOM     12  C   UNL     1       2.378   1.156   0.207  0.00  0.00    +0.202 A 
ATOM     13  N   UNL     1       2.534  -0.144   0.196  0.00  0.00    -0.056 NA
ATOM     14  O   UNL     1       3.711  -0.428   0.143  0.00  0.00    -0.332 OA
BRANCH  12  15
ATOM     15  C   UNL     1       1.087   1.886   0.262  0.00  0.00    +0.023 A 
ATOM     16  C   UNL     1      -0.113   1.180   0.302  0.00  0.00    +0.014 A 
ATOM     17  C   UNL     1      -1.311   1.863   0.349  0.00  0.00    +0.039 A 
ATOM     18  C   UNL     1      -1.321   3.248   0.366  0.00  0.00    +0.123 A 
ATOM     19  C   UNL     1      -0.129   3.954   0.326  0.00  0.00    +0.039 A 
ATOM     20  C   UNL     1       1.073   3.279   0.274  0.00  0.00    +0.014 A 
ATOM     21  F   UNL     1      -2.496   3.913   0.417  0.00  0.00    -0.205 F 
ENDBRANCH  12  15
ENDBRANCH   8  10
BRANCH   5  22
ATOM     22  C   UNL     1       8.587   3.390  -0.016  0.00  0.00    +0.221 C 
BRANCH  22  23
ATOM     23  C   UNL     1       8.770   3.879   1.398  0.00  0.00    +0.237 C 
ATOM     24  O   UNL     1       8.380   3.204   2.327  0.00  0.00    -0.274 OA
ATOM     25  N   UNL     1       9.366   5.065   1.630  0.00  0.00    -0.283 N 
ATOM     26  H   UNL     1       9.626   5.630   0.886  0.00  0.00    +0.155 HD
BRANCH  25  27
ATOM     27  C   UNL     1       9.608   5.480   2.939  0.00  0.00    +0.055 A 
ATOM     28  C   UNL     1       8.753   5.154   3.971  0.00  0.00    +0.032 A 
ATOM     29  C   UNL     1       9.036   5.583   5.226  0.00  0.00    +0.048 A 
ATOM     30  S   UNL     1      10.515   6.465   5.027  0.00  0.00    -0.088 S 
ATOM     31  C   UNL     1      10.730   6.240   3.270  0.00  0.00    +0.117 A 
BRANCH  31  32
ATOM     32  C   UNL     1      11.767   6.711   2.431  0.00  0.00    +0.347 C 
ATOM     33  O   UNL     1      11.748   6.459   1.240  0.00  0.00    -0.244 OA
BRANCH  32  34
ATOM     34  O   UNL     1      12.777   7.439   2.951  0.00  0.00    -0.464 OA
ATOM     35  C   UNL     1      13.790   7.882   2.046  0.00  0.00    +0.280 C 
ENDBRANCH  32  34
ENDBRANCH  31  32
ENDBRANCH  25  27
ENDBRANCH  22  23
ENDBRANCH   5  22
TORSDOF 7
