REMARK  Name = ZINC30027390
REMARK  12 active torsions:
REMARK  status: ('A' for Active; 'I' for Inactive)
REMARK    1  A    between atoms: C_1  and  C_2
REMARK    2  A    between atoms: C_2  and  C_4
REMARK    3  A    between atoms: C_2  and  N_13
REMARK    4  A    between atoms: C_7  and  C_10
REMARK    5  A    between atoms: C_10  and  C_11
REMARK    6  A    between atoms: C_10  and  C_12
REMARK    7  A    between atoms: N_13  and  C_14
REMARK    8  A    between atoms: C_14  and  C_16
REMARK    9  A    between atoms: C_14  and  C_17
REMARK   10  A    between atoms: N_19  and  C_20
REMARK   11  A    between atoms: C_23  and  S_26
REMARK   12  A    between atoms: S_26  and  N_29
REMARK                            x       y       z     vdW  Elec       q    Type
REMARK                         _______ _______ _______ _____ _____    ______ ____
ROOT
ATOM      1  C   UNL     1      -2.028  -0.297  -1.352  0.00  0.00    +0.014 C 
ATOM      2  C   UNL     1      -1.884   1.213  -1.549  0.00  0.00    -0.004 C 
ENDROOT
BRANCH   1   3
ATOM      3  C   UNL     1      -3.482  -0.681  -1.453  0.00  0.00    +0.203 C 
ATOM      4  O   UNL     1      -4.036  -1.212  -0.514  0.00  0.00    -0.277 OA
ATOM      5  N   UNL     1      -4.166  -0.434  -2.588  0.00  0.00    -0.287 N 
ATOM      6  H   UNL     1      -3.705  -0.080  -3.365  0.00  0.00    +0.155 HD
BRANCH   5   7
ATOM      7  C   UNL     1      -5.541  -0.689  -2.646  0.00  0.00    +0.033 A 
ATOM      8  C   UNL     1      -6.120  -1.117  -3.833  0.00  0.00    +0.025 A 
ATOM      9  C   UNL     1      -7.477  -1.368  -3.887  0.00  0.00    +0.030 A 
ATOM     10  C   UNL     1      -8.259  -1.193  -2.760  0.00  0.00    +0.105 A 
ATOM     11  C   UNL     1      -7.685  -0.767  -1.576  0.00  0.00    +0.030 A 
ATOM     12  C   UNL     1      -6.328  -0.520  -1.514  0.00  0.00    +0.025 A 
BRANCH  10  13
ATOM     13  S   UNL     1      -9.990  -1.514  -2.832  0.00  0.00    +0.056 S 
ATOM     14  O   UNL     1     -10.588  -0.752  -1.792  0.00  0.00    -0.153 OA
ATOM     15  O   UNL     1     -10.372  -1.377  -4.194  0.00  0.00    -0.153 OA
BRANCH  13  16
ATOM     16  N   UNL     1     -10.209  -3.108  -2.438  0.00  0.00    -0.204 NA
ATOM     17  H   UNL     1      -9.444  -3.664  -2.224  0.00  0.00    +0.144 HD
ATOM     18  H   UNL     1     -11.103  -3.484  -2.420  0.00  0.00    +0.144 HD
ENDBRANCH  13  16
ENDBRANCH  10  13
ENDBRANCH   5   7
ENDBRANCH   1   3
BRANCH   1  19
ATOM     19  N   UNL     1      -1.515  -0.669  -0.026  0.00  0.00    +0.391 N 
ATOM     20  H   UNL     1      -1.698  -1.647   0.143  0.00  0.00    -0.084 HD
ATOM     21  H   UNL     1      -1.975  -0.114   0.680  0.00  0.00    -0.084 HD
BRANCH  19  23
ATOM     22  C   UNL     1       0.442  -0.676   1.445  0.00  0.00    -0.009 C 
ATOM     23  C   UNL     1      -0.067  -0.425   0.025  0.00  0.00    -0.043 C 
BRANCH  23  24
ATOM     24  C   UNL     1       0.633  -1.355  -0.932  0.00  0.00    -0.062 A 
ATOM     25  C   UNL     1       0.211  -2.666  -1.054  0.00  0.00    +0.002 A 
ATOM     26  C   UNL     1       0.854  -3.520  -1.932  0.00  0.00    +0.004 A 
ATOM     27  C   UNL     1       1.917  -3.062  -2.687  0.00  0.00    -0.045 A 
ATOM     28  C   UNL     1       2.338  -1.752  -2.565  0.00  0.00    +0.004 A 
ATOM     29  C   UNL     1       1.693  -0.897  -1.690  0.00  0.00    +0.002 A 
BRANCH  27  30
ATOM     30  C   UNL     1       2.618  -3.993  -3.642  0.00  0.00    +0.013 C 
ATOM     31  C   UNL     1       2.514  -3.438  -5.064  0.00  0.00    +0.012 C 
ATOM     32  C   UNL     1       4.092  -4.113  -3.249  0.00  0.00    +0.012 C 
ENDBRANCH  27  30
ENDBRANCH  23  24
ENDBRANCH  19  23
ENDBRANCH   1  19
TORSDOF 8
