REMARK  Name = ZINC09329438
REMARK  3 active torsions:
REMARK  status: ('A' for Active; 'I' for Inactive)
REMARK    1  A    between atoms: C_8  and  C_26
REMARK    2  A    between atoms: C_26  and  C_28
REMARK    3  A    between atoms: C_32  and  N_34
REMARK                            x       y       z     vdW  Elec       q    Type
REMARK                         _______ _______ _______ _____ _____    ______ ____
ROOT
ATOM      1  C   UNL     1      -4.110   1.194  -2.578  0.00  0.00    +0.000 A 
ATOM      2  C   UNL     1      -4.134   1.821  -3.811  0.00  0.00    +0.002 A 
ATOM      3  C   UNL     1      -3.677   3.115  -3.943  0.00  0.00    +0.023 A 
ATOM      4  C   UNL     1      -3.189   3.803  -2.834  0.00  0.00    +0.038 A 
ATOM      5  C   UNL     1      -3.171   3.163  -1.599  0.00  0.00    -0.011 A 
ATOM      6  C   UNL     1      -3.626   1.869  -1.472  0.00  0.00    +0.006 A 
ATOM      7  C   UNL     1      -2.599   4.158  -0.629  0.00  0.00    +0.085 C 
ATOM      8  C   UNL     1      -1.315   3.623   0.028  0.00  0.00    +0.066 C 
ATOM      9  C   UNL     1      -1.411   4.162   1.476  0.00  0.00    -0.055 C 
ATOM     10  C   UNL     1      -0.753   3.156   2.435  0.00  0.00    -0.016 C 
ATOM     11  C   UNL     1      -1.879   2.197   2.866  0.00  0.00    -0.020 C 
ATOM     12  C   UNL     1      -3.137   2.675   2.097  0.00  0.00    -0.076 C 
ATOM     13  C   UNL     1      -3.560   4.452   0.517  0.00  0.00    +0.060 C 
ATOM     14  C   UNL     1      -3.988   5.896   0.522  0.00  0.00    -0.024 A 
ATOM     15  C   UNL     1      -3.299   7.083   0.625  0.00  0.00    +0.043 A 
ATOM     16  C   UNL     1      -3.985   8.287   0.598  0.00  0.00    +0.124 A 
ATOM     17  C   UNL     1      -5.364   8.289   0.465  0.00  0.00    +0.040 A 
ATOM     18  C   UNL     1      -6.055   7.101   0.360  0.00  0.00    +0.026 A 
ATOM     19  C   UNL     1      -5.372   5.887   0.387  0.00  0.00    +0.036 A 
ATOM     20  N   UNL     1      -5.840   4.574   0.300  0.00  0.00    -0.286 N 
ATOM     21  C   UNL     1      -4.843   3.673   0.369  0.00  0.00    +0.212 C 
ATOM     22  O   UNL     1      -4.954   2.466   0.320  0.00  0.00    -0.277 OA
ATOM     23  F   UNL     1      -3.312   9.453   0.699  0.00  0.00    -0.205 F 
ATOM     24  C   UNL     1      -2.314   5.385  -1.451  0.00  0.00    +0.228 C 
ATOM     25  O   UNL     1      -1.845   6.430  -1.053  0.00  0.00    -0.275 OA
ATOM     26  N   UNL     1      -2.681   5.098  -2.715  0.00  0.00    -0.285 N 
ATOM     27  H   UNL     1      -6.776   4.338   0.202  0.00  0.00    +0.155 HD
ATOM     28  H   UNL     1      -2.602   5.719  -3.456  0.00  0.00    +0.155 HD
ATOM     29  N   UNL     1      -2.839   4.077   1.743  0.00  0.00    +0.395 N 
ATOM     30  H   UNL     1      -3.102   4.703   2.514  0.00  0.00    -0.079 HD
ENDROOT
BRANCH   8  31
ATOM     31  C   UNL     1      -1.299   2.116   0.020  0.00  0.00    +0.166 C 
ATOM     32  O   UNL     1      -1.766   1.500   0.954  0.00  0.00    -0.292 OA
BRANCH  31  33
ATOM     33  C   UNL     1      -0.716   1.393  -1.122  0.00  0.00    +0.020 A 
ATOM     34  C   UNL     1      -0.181   2.100  -2.203  0.00  0.00    +0.011 A 
ATOM     35  C   UNL     1       0.357   1.415  -3.272  0.00  0.00    +0.003 A 
ATOM     36  C   UNL     1       0.370   0.031  -3.275  0.00  0.00    +0.033 A 
ATOM     37  C   UNL     1      -0.157  -0.676  -2.209  0.00  0.00    +0.127 A 
ATOM     38  C   UNL     1      -0.700  -0.005  -1.133  0.00  0.00    +0.044 A 
BRANCH  37  39
ATOM     39  N   UNL     1      -0.138  -2.156  -2.223  0.00  0.00    +0.056 N 
ATOM     40  O   UNL     1      -0.601  -2.780  -1.285  0.00  0.00    -0.126 OA
ATOM     41  O   UNL     1       0.341  -2.750  -3.172  0.00  0.00    -0.126 OA
ENDBRANCH  37  39
ENDBRANCH  31  33
ENDBRANCH   8  31
TORSDOF 3
