REMARK  Name = ZINC44915956
REMARK  7 active torsions:
REMARK  status: ('A' for Active; 'I' for Inactive)
REMARK    1  A    between atoms: C_1  and  C_2
REMARK    2  A    between atoms: N_8  and  S_30
REMARK    3  A    between atoms: C_10  and  C_13
REMARK    4  A    between atoms: N_15  and  C_16
REMARK    5  A    between atoms: C_21  and  C_22
REMARK    6  A    between atoms: C_22  and  C_24
REMARK    7  A    between atoms: S_30  and  C_33
REMARK                            x       y       z     vdW  Elec       q    Type
REMARK                         _______ _______ _______ _____ _____    ______ ____
ROOT
ATOM      1  C   UNL     1       0.161  -6.270   1.064  0.00  0.00    +0.260 C 
ATOM      2  O   UNL     1      -0.451  -6.675   0.098  0.00  0.00    -0.271 OA
ATOM      3  N   UNL     1       0.594  -7.138   2.000  0.00  0.00    -0.282 N 
ATOM      4  H   UNL     1       1.155  -6.827   2.727  0.00  0.00    +0.155 HD
ENDROOT
BRANCH   1  14
ATOM      5  C   UNL     1      -0.200   1.539   0.244  0.00  0.00    +0.044 C 
ATOM      6  C   UNL     1      -0.151   0.033   0.202  0.00  0.00    -0.048 A 
ATOM      7  C   UNL     1      -0.134  -0.624  -1.014  0.00  0.00    +0.007 A 
ATOM      8  C   UNL     1      -0.091  -2.005  -1.061  0.00  0.00    +0.048 A 
ATOM      9  C   UNL     1      -0.064  -2.739   0.116  0.00  0.00    +0.144 A 
ATOM     10  C   UNL     1      -0.078  -2.075   1.339  0.00  0.00    +0.093 A 
ATOM     11  C   UNL     1      -0.118  -0.690   1.380  0.00  0.00    +0.031 A 
ATOM     12  N   UNL     1      -0.043  -2.813   2.533  0.00  0.00    -0.200 N 
ATOM     13  C   UNL     1      -0.305  -4.260   2.450  0.00  0.00    +0.185 C 
ATOM     14  C   UNL     1       0.437  -4.797   1.218  0.00  0.00    +0.278 C 
ATOM     15  O   UNL     1      -0.025  -4.096   0.061  0.00  0.00    -0.476 OA
BRANCH  12  16
ATOM     16  S   UNL     1       0.283  -2.083   3.983  0.00  0.00    +0.043 S 
ATOM     17  O   UNL     1       0.833  -3.113   4.792  0.00  0.00    -0.155 OA
ATOM     18  O   UNL     1       1.054  -0.937   3.647  0.00  0.00    -0.155 OA
ATOM     19  C   UNL     1      -1.337  -1.580   4.626  0.00  0.00    +0.218 C 
ENDBRANCH  12  16
ENDBRANCH   1  14
BRANCH   3  20
ATOM     20  C   UNL     1       0.235  -8.481   1.922  0.00  0.00    +0.044 A 
ATOM     21  C   UNL     1      -0.921  -8.857   1.251  0.00  0.00    +0.024 A 
ATOM     22  C   UNL     1      -1.275 -10.189   1.175  0.00  0.00    +0.002 A 
ATOM     23  C   UNL     1      -0.483 -11.161   1.767  0.00  0.00    +0.001 A 
ATOM     24  C   UNL     1       0.667 -10.807   2.438  0.00  0.00    +0.013 A 
ATOM     25  C   UNL     1       1.042  -9.463   2.518  0.00  0.00    +0.043 A 
BRANCH  25  26
ATOM     26  C   UNL     1       2.275  -9.078   3.228  0.00  0.00    +0.195 C 
ATOM     27  O   UNL     1       2.327  -9.154   4.441  0.00  0.00    -0.287 OA
BRANCH  26  28
ATOM     28  C   UNL     1       3.448  -8.600   2.467  0.00  0.00    +0.022 A 
ATOM     29  C   UNL     1       3.429  -8.607   1.071  0.00  0.00    +0.012 A 
ATOM     30  C   UNL     1       4.527  -8.160   0.367  0.00  0.00    +0.001 A 
ATOM     31  C   UNL     1       5.647  -7.705   1.041  0.00  0.00    +0.000 A 
ATOM     32  C   UNL     1       5.673  -7.696   2.424  0.00  0.00    +0.001 A 
ATOM     33  C   UNL     1       4.579  -8.134   3.141  0.00  0.00    +0.012 A 
ENDBRANCH  26  28
ENDBRANCH  25  26
ENDBRANCH   3  20
TORSDOF 5
