REMARK  Name = ZINC41020315
REMARK  11 active torsions:
REMARK  status: ('A' for Active; 'I' for Inactive)
REMARK    1  A    between atoms: C_1  and  C_2
REMARK    2  A    between atoms: C_2  and  O_3
REMARK    3  A    between atoms: O_3  and  C_4
REMARK    4  A    between atoms: C_9  and  N_10
REMARK    5  A    between atoms: C_11  and  C_13
REMARK    6  A    between atoms: C_14  and  C_35
REMARK    7  A    between atoms: C_18  and  S_32
REMARK    8  A    between atoms: C_21  and  C_23
REMARK    9  A    between atoms: C_28  and  C_29
REMARK   10  A    between atoms: S_32  and  C_33
REMARK   11  A    between atoms: C_33  and  C_34
REMARK                            x       y       z     vdW  Elec       q    Type
REMARK                         _______ _______ _______ _____ _____    ______ ____
ROOT
ATOM      1  C   UNL     1      -6.484  -1.242   0.210  0.00  0.00    +0.060 C 
ATOM      2  C   UNL     1      -7.656  -1.890   0.285  0.00  0.00    +0.018 C 
ATOM      3  N   UNL     1      -8.860  -1.232   0.226  0.00  0.00    -0.287 N 
ATOM      4  C   UNL     1      -8.840   0.150   0.352  0.00  0.00    +0.219 A 
ATOM      5  N   UNL     1      -9.819   0.990   0.551  0.00  0.00    -0.187 NA
ATOM      6  C   UNL     1      -9.334   2.238   0.612  0.00  0.00    +0.210 A 
ATOM      7  N   UNL     1      -8.029   2.199   0.449  0.00  0.00    -0.141 NA
ATOM      8  N   UNL     1      -7.687   0.859   0.275  0.00  0.00    -0.220 N 
ATOM      9  C   UNL     1      -6.379   0.251   0.051  0.00  0.00    +0.178 C 
ATOM     10  C   UNL     1      -7.651  -3.389   0.437  0.00  0.00    +0.061 C 
ATOM     11  H   UNL     1      -9.692  -1.715   0.102  0.00  0.00    +0.155 HD
ENDROOT
BRANCH   9  12
ATOM     12  C   UNL     1      -5.911   0.576  -1.344  0.00  0.00    -0.004 A 
ATOM     13  C   UNL     1      -6.746   0.363  -2.420  0.00  0.00    +0.007 A 
ATOM     14  C   UNL     1      -6.318   0.661  -3.702  0.00  0.00    +0.000 A 
ATOM     15  C   UNL     1      -5.051   1.175  -3.914  0.00  0.00    +0.001 A 
ATOM     16  C   UNL     1      -4.204   1.393  -2.847  0.00  0.00    +0.015 A 
ATOM     17  C   UNL     1      -4.632   1.100  -1.549  0.00  0.00    +0.069 A 
BRANCH  17  18
ATOM     18  C   UNL     1      -3.735   1.338  -0.402  0.00  0.00    +0.387 C 
ATOM     19  O   UNL     1      -2.694   1.959  -0.558  0.00  0.00    -0.241 OA
ATOM     20  O   UNL     1      -4.033   0.912   0.706  0.00  0.00    -0.241 OA
ENDBRANCH  17  18
ENDBRANCH   9  12
BRANCH   1  22
ATOM     21  N   UNL     1      -4.792  -2.590  -0.813  0.00  0.00    -0.279 N 
ATOM     22  C   UNL     1      -5.290  -1.997   0.290  0.00  0.00    +0.248 C 
ATOM     23  O   UNL     1      -4.712  -2.112   1.356  0.00  0.00    -0.270 OA
ATOM     24  H   UNL     1      -5.207  -2.434  -1.676  0.00  0.00    +0.155 HD
BRANCH  21  30
ATOM     25  C   UNL     1      -2.862  -3.644  -1.824  0.00  0.00    +0.142 A 
ATOM     26  C   UNL     1      -1.756  -4.472  -1.719  0.00  0.00    +0.047 A 
ATOM     27  C   UNL     1      -1.465  -5.087  -0.515  0.00  0.00    +0.004 A 
ATOM     28  C   UNL     1      -2.275  -4.879   0.586  0.00  0.00    +0.002 A 
ATOM     29  C   UNL     1      -3.381  -4.056   0.489  0.00  0.00    +0.027 A 
ATOM     30  C   UNL     1      -3.676  -3.430  -0.714  0.00  0.00    +0.076 A 
BRANCH  25  31
ATOM     31  O   UNL     1      -3.150  -3.039  -3.007  0.00  0.00    -0.490 OA
BRANCH  31  33
ATOM     32  C   UNL     1      -2.752  -2.542  -5.339  0.00  0.00    +0.048 C 
ATOM     33  C   UNL     1      -2.271  -3.305  -4.103  0.00  0.00    +0.226 C 
ENDBRANCH  31  33
ENDBRANCH  25  31
ENDBRANCH  21  30
ENDBRANCH   1  22
BRANCH   6  34
ATOM     34  S   UNL     1     -10.289   3.696   0.870  0.00  0.00    -0.085 S 
BRANCH  34  35
ATOM     35  C   UNL     1     -11.990   3.086   1.020  0.00  0.00    +0.074 C 
ATOM     36  C   UNL     1     -12.937   4.265   1.250  0.00  0.00    +0.016 C 
ENDBRANCH  34  35
ENDBRANCH   6  34
TORSDOF 8
