REMARK  Name = ZINC53603584
REMARK  5 active torsions:
REMARK  status: ('A' for Active; 'I' for Inactive)
REMARK    1  A    between atoms: C_2  and  C_3
REMARK    2  A    between atoms: C_3  and  N_4
REMARK    3  A    between atoms: C_8  and  C_24
REMARK    4  A    between atoms: C_9  and  C_12
REMARK    5  A    between atoms: N_14  and  C_15
REMARK                            x       y       z     vdW  Elec       q    Type
REMARK                         _______ _______ _______ _____ _____    ______ ____
ROOT
ATOM      1  N   UNL     1       1.372  -1.673   1.137  0.00  0.00    -0.321 N 
ATOM      2  C   UNL     1       2.482  -2.461   1.318  0.00  0.00    +0.149 C 
ATOM      3  N   UNL     1       3.509  -2.382   0.496  0.00  0.00    -0.258 N 
ATOM      4  N   UNL     1       4.567  -3.075   0.584  0.00  0.00    -0.175 NA
ATOM      5  C   UNL     1       4.770  -4.181   1.212  0.00  0.00    +0.091 C 
ATOM      6  C   UNL     1       3.673  -4.890   1.973  0.00  0.00    +0.190 C 
ATOM      7  S   UNL     1       2.576  -3.605   2.666  0.00  0.00    -0.072 S 
ATOM      8  H   UNL     1       0.625  -1.739   1.753  0.00  0.00    +0.148 HD
ATOM      9  H   UNL     1       3.450  -1.745  -0.233  0.00  0.00    +0.191 HD
ENDROOT
BRANCH   5  10
ATOM     10  C   UNL     1       6.115  -4.776   1.186  0.00  0.00    -0.000 A 
ATOM     11  C   UNL     1       6.365  -5.979   1.853  0.00  0.00    +0.010 A 
ATOM     12  C   UNL     1       7.628  -6.530   1.825  0.00  0.00    +0.001 A 
ATOM     13  C   UNL     1       8.649  -5.896   1.139  0.00  0.00    +0.000 A 
ATOM     14  C   UNL     1       8.410  -4.704   0.476  0.00  0.00    +0.001 A 
ATOM     15  C   UNL     1       7.151  -4.144   0.490  0.00  0.00    +0.010 A 
ENDBRANCH   5  10
BRANCH   6  16
ATOM     16  C   UNL     1       2.898  -5.785   1.040  0.00  0.00    +0.237 C 
ATOM     17  O   UNL     1       2.790  -5.492  -0.132  0.00  0.00    -0.274 OA
ATOM     18  N   UNL     1       2.325  -6.912   1.508  0.00  0.00    -0.284 N 
ATOM     19  H   UNL     1       2.467  -7.182   2.429  0.00  0.00    +0.155 HD
BRANCH  18  20
ATOM     20  C   UNL     1       1.525  -7.693   0.665  0.00  0.00    +0.037 A 
ATOM     21  C   UNL     1       0.410  -8.346   1.175  0.00  0.00    +0.027 A 
ATOM     22  C   UNL     1      -0.381  -9.117   0.344  0.00  0.00    +0.051 A 
ATOM     23  C   UNL     1      -0.064  -9.241  -0.999  0.00  0.00    +0.166 A 
ATOM     24  C   UNL     1       1.054  -8.587  -1.513  0.00  0.00    +0.168 A 
ATOM     25  C   UNL     1       1.842  -7.810  -0.681  0.00  0.00    +0.072 A 
ATOM     26  O   UNL     1       1.148  -8.866  -2.846  0.00  0.00    -0.453 OA
ATOM     27  C   UNL     1       0.316 -10.022  -3.057  0.00  0.00    +0.466 C 
ATOM     28  O   UNL     1      -0.670  -9.930  -2.011  0.00  0.00    -0.453 OA
ENDBRANCH  18  20
ENDBRANCH   6  16
BRANCH   1  29
ATOM     29  C   UNL     1       1.316  -0.733   0.015  0.00  0.00    +0.130 C 
BRANCH  29  31
ATOM     30  C   UNL     1      -0.014   1.314   0.055  0.00  0.00    +0.005 C 
ATOM     31  C   UNL     1       0.002   0.005   0.043  0.00  0.00    -0.016 C 
ENDBRANCH  29  31
ENDBRANCH   1  29
TORSDOF 5
