REMARK  Name = ZINC03571211
REMARK  9 active torsions:
REMARK  status: ('A' for Active; 'I' for Inactive)
REMARK    1  A    between atoms: C_1  and  C_2
REMARK    2  A    between atoms: C_2  and  O_3
REMARK    3  A    between atoms: O_3  and  C_4
REMARK    4  A    between atoms: C_4  and  C_6
REMARK    5  A    between atoms: C_10  and  N_11
REMARK    6  A    between atoms: C_12  and  C_14
REMARK    7  A    between atoms: C_14  and  S_15
REMARK    8  A    between atoms: S_15  and  C_16
REMARK    9  A    between atoms: C_19  and  C_21
REMARK                            x       y       z     vdW  Elec       q    Type
REMARK                         _______ _______ _______ _____ _____    ______ ____
ROOT
ATOM      1  N   UNL     1      -7.423  -4.593   0.054  0.00  0.00    -0.279 N 
ATOM      2  C   UNL     1      -6.080  -4.708   0.039  0.00  0.00    +0.228 C 
ATOM      3  O   UNL     1      -5.565  -5.806   0.027  0.00  0.00    -0.275 OA
ATOM      4  H   UNL     1      -7.834  -3.715   0.064  0.00  0.00    +0.155 HD
ENDROOT
BRANCH   1   9
ATOM      5  C   UNL     1      -9.601  -5.815   0.075  0.00  0.00    +0.091 A 
ATOM      6  C   UNL     1     -10.192  -7.144   0.068  0.00  0.00    -0.021 A 
ATOM      7  C   UNL     1      -9.309  -8.165   0.053  0.00  0.00    -0.004 A 
ATOM      8  S   UNL     1      -7.718  -7.389   0.041  0.00  0.00    -0.077 S 
ATOM      9  C   UNL     1      -8.215  -5.730   0.056  0.00  0.00    +0.086 A 
ATOM     10  C   UNL     1      -9.623  -9.630   0.049  0.00  0.00    +0.043 C 
ATOM     11  C   UNL     1     -11.096  -9.810   0.441  0.00  0.00    +0.005 C 
ATOM     12  C   UNL     1     -11.948  -8.839  -0.381  0.00  0.00    +0.005 C 
ATOM     13  C   UNL     1     -11.693  -7.404   0.081  0.00  0.00    +0.037 C 
BRANCH   5  14
ATOM     14  C   UNL     1     -10.437  -4.613   0.099  0.00  0.00    +0.342 C 
ATOM     15  O   UNL     1     -10.800  -4.104  -0.945  0.00  0.00    -0.245 OA
BRANCH  14  16
ATOM     16  O   UNL     1     -10.803  -4.069   1.278  0.00  0.00    -0.461 OA
BRANCH  16  18
ATOM     17  C   UNL     1     -11.943  -2.410   2.648  0.00  0.00    +0.048 C 
ATOM     18  C   UNL     1     -11.631  -2.878   1.225  0.00  0.00    +0.229 C 
ENDBRANCH  16  18
ENDBRANCH  14  16
ENDBRANCH   5  14
ENDBRANCH   1   9
BRANCH   2  19
ATOM     19  C   UNL     1      -5.218  -3.471   0.037  0.00  0.00    +0.175 C 
BRANCH  19  20
ATOM     20  S   UNL     1      -3.473  -3.953   0.016  0.00  0.00    -0.056 S 
BRANCH  20  21
ATOM     21  C   UNL     1      -2.717  -2.361   0.017  0.00  0.00    +0.278 A 
ATOM     22  N   UNL     1      -3.339  -1.206   0.030  0.00  0.00    -0.101 NA
ATOM     23  N   UNL     1      -2.474  -0.253   0.031  0.00  0.00    -0.106 NA
ATOM     24  C   UNL     1      -1.266  -0.762   0.011  0.00  0.00    +0.249 A 
ATOM     25  O   UNL     1      -1.394  -2.107   0.005  0.00  0.00    -0.411 OA
BRANCH  24  26
ATOM     26  C   UNL     1       0.002  -0.004   0.002  0.00  0.00    +0.042 A 
ATOM     27  C   UNL     1       1.223  -0.682  -0.013  0.00  0.00    +0.017 A 
ATOM     28  C   UNL     1       2.405   0.027  -0.021  0.00  0.00    +0.050 A 
ATOM     29  C   UNL     1       2.388   1.415  -0.014  0.00  0.00    +0.166 A 
ATOM     30  C   UNL     1       1.172   2.098   0.002  0.00  0.00    +0.167 A 
ATOM     31  C   UNL     1      -0.017   1.392   0.010  0.00  0.00    +0.062 A 
ATOM     32  O   UNL     1       1.426   3.439   0.006  0.00  0.00    -0.453 OA
ATOM     33  C   UNL     1       2.803   3.568   0.406  0.00  0.00    +0.466 C 
ATOM     34  O   UNL     1       3.401   2.329  -0.019  0.00  0.00    -0.453 OA
ENDBRANCH  24  26
ENDBRANCH  20  21
ENDBRANCH  19  20
ENDBRANCH   2  19
TORSDOF 8
