REMARK  Name = ZINC28055958
REMARK  4 active torsions:
REMARK  status: ('A' for Active; 'I' for Inactive)
REMARK    1  A    between atoms: C_1  and  O_2
REMARK    2  A    between atoms: O_2  and  C_3
REMARK    3  A    between atoms: C_6  and  C_9
REMARK    4  A    between atoms: C_20  and  C_22
REMARK                            x       y       z     vdW  Elec       q    Type
REMARK                         _______ _______ _______ _____ _____    ______ ____
ROOT
ATOM      1  C   UNL     1       3.159   2.177   1.748  0.00  0.00    +0.174 C 
ATOM      2  C   UNL     1       2.107   1.352   1.048  0.00  0.00    +0.025 C 
ATOM      3  C   UNL     1       1.923   0.057   1.312  0.00  0.00    +0.050 C 
ATOM      4  C   UNL     1       0.851  -0.666   0.587  0.00  0.00    +0.038 A 
ATOM      5  C   UNL     1       0.806  -2.054   0.553  0.00  0.00    +0.013 A 
ATOM      6  C   UNL     1      -0.214  -2.686  -0.133  0.00  0.00    +0.001 A 
ATOM      7  C   UNL     1      -1.184  -1.942  -0.783  0.00  0.00    +0.004 A 
ATOM      8  C   UNL     1      -1.145  -0.559  -0.755  0.00  0.00    +0.046 A 
ATOM      9  C   UNL     1      -0.131   0.086  -0.072  0.00  0.00    +0.131 A 
ATOM     10  O   UNL     1      -0.058   1.440  -0.021  0.00  0.00    -0.479 OA
ATOM     11  C   UNL     1       1.245   2.021   0.001  0.00  0.00    +0.234 C 
ATOM     12  N   UNL     1       2.709  -0.636   2.240  0.00  0.00    -0.282 N 
ATOM     13  C   UNL     1       3.861  -0.012   2.689  0.00  0.00    +0.240 A 
ATOM     14  N   UNL     1       4.086   1.308   2.458  0.00  0.00    -0.201 N 
ATOM     15  N   UNL     1       5.326   1.580   3.036  0.00  0.00    -0.042 NA
ATOM     16  N   UNL     1       5.743   0.470   3.553  0.00  0.00    -0.021 NA
ATOM     17  N   UNL     1       4.883  -0.470   3.353  0.00  0.00    -0.092 NA
ATOM     18  H   UNL     1       2.402  -1.635   2.584  0.00  0.00    +0.155 HD
ENDROOT
BRANCH  11  19
ATOM     19  C   UNL     1       1.887   1.853  -1.352  0.00  0.00    -0.002 A 
ATOM     20  C   UNL     1       1.806   0.640  -2.010  0.00  0.00    +0.007 A 
ATOM     21  C   UNL     1       2.390   0.487  -3.254  0.00  0.00    +0.001 A 
ATOM     22  C   UNL     1       3.063   1.545  -3.836  0.00  0.00    +0.015 A 
ATOM     23  C   UNL     1       3.149   2.757  -3.175  0.00  0.00    +0.018 A 
ATOM     24  C   UNL     1       2.560   2.911  -1.933  0.00  0.00    +0.022 A 
ATOM     25 BR   UNL     1       4.071   4.204  -3.971  0.00  0.00    -0.050 Br
ENDBRANCH  11  19
BRANCH   1  29
ATOM     26  C   UNL     1       1.270   4.812   4.532  0.00  0.00    +0.120 A 
ATOM     27  C   UNL     1       2.025   5.329   3.490  0.00  0.00    +0.046 A 
ATOM     28  C   UNL     1       2.635   4.475   2.591  0.00  0.00    +0.009 A 
ATOM     29  C   UNL     1       2.493   3.106   2.730  0.00  0.00    -0.018 A 
ATOM     30  C   UNL     1       1.736   2.589   3.765  0.00  0.00    +0.009 A 
ATOM     31  C   UNL     1       1.129   3.439   4.670  0.00  0.00    +0.046 A 
BRANCH  26  33
ATOM     32  C   UNL     1      -0.093   5.048   6.465  0.00  0.00    +0.277 C 
ATOM     33  O   UNL     1       0.669   5.650   5.417  0.00  0.00    -0.495 OA
ENDBRANCH  26  33
ENDBRANCH   1  29
TORSDOF 3
