REMARK  Name = ZINC09076300
REMARK  5 active torsions:
REMARK  status: ('A' for Active; 'I' for Inactive)
REMARK    1  A    between atoms: C_4  and  C_28
REMARK    2  A    between atoms: C_6  and  N_7
REMARK    3  A    between atoms: C_11  and  N_58
REMARK    4  A    between atoms: C_17  and  C_20
REMARK    5  A    between atoms: C_17  and  N_60
REMARK                            x       y       z     vdW  Elec       q    Type
REMARK                         _______ _______ _______ _____ _____    ______ ____
ROOT
ATOM      1  C   UNL     1       2.120   0.964   1.056  0.00  0.00    -0.079 C 
ATOM      2  C   UNL     1       3.363   1.857   1.057  0.00  0.00    -0.021 C 
ATOM      3  C   UNL     1       4.274   1.457  -0.108  0.00  0.00    +0.009 C 
ATOM      4  C   UNL     1       3.493   1.577  -1.420  0.00  0.00    -0.021 C 
ATOM      5  C   UNL     1       2.247   0.692  -1.349  0.00  0.00    -0.079 C 
ATOM      6  N   UNL     1       1.401   1.144  -0.223  0.00  0.00    +0.388 N 
ATOM      7  H   UNL     1       1.186   2.140  -0.347  0.00  0.00    -0.081 HD
ENDROOT
BRANCH   6  12
ATOM      8  N   UNL     1      -1.867   1.320  -0.921  0.00  0.00    -0.212 N 
ATOM      9  C   UNL     1      -1.963   1.367   0.413  0.00  0.00    +0.225 C 
ATOM     10  O   UNL     1      -2.905   1.809   1.034  0.00  0.00    -0.275 OA
ATOM     11  C   UNL     1      -0.705   0.779   1.025  0.00  0.00    +0.090 C 
ATOM     12  C   UNL     1       0.137   0.380  -0.203  0.00  0.00    +0.029 C 
ATOM     13  C   UNL     1      -0.728   0.784  -1.377  0.00  0.00    +0.213 C 
ATOM     14  O   UNL     1      -0.435   0.645  -2.546  0.00  0.00    -0.277 OA
BRANCH   8  20
ATOM     15  C   UNL     1      -4.100   1.140  -1.829  0.00  0.00    +0.025 A 
ATOM     16  C   UNL     1      -5.093   1.608  -2.667  0.00  0.00    +0.022 A 
ATOM     17  C   UNL     1      -4.869   2.728  -3.449  0.00  0.00    +0.053 A 
ATOM     18  C   UNL     1      -3.650   3.381  -3.393  0.00  0.00    +0.075 A 
ATOM     19  C   UNL     1      -2.656   2.919  -2.554  0.00  0.00    +0.037 A 
ATOM     20  C   UNL     1      -2.876   1.793  -1.772  0.00  0.00    +0.044 A 
ATOM     21 CL   UNL     1      -6.119   3.314  -4.501  0.00  0.00    -0.083 Cl
BRANCH  18  22
ATOM     22  C   UNL     1      -3.410   4.600  -4.246  0.00  0.00    +0.419 C 
ATOM     23  F   UNL     1      -2.116   5.081  -4.018  0.00  0.00    -0.166 F 
ATOM     24  F   UNL     1      -3.550   4.261  -5.596  0.00  0.00    -0.166 F 
ATOM     25  F   UNL     1      -4.340   5.591  -3.915  0.00  0.00    -0.166 F 
ENDBRANCH  18  22
ENDBRANCH   8  20
ENDBRANCH   6  12
BRANCH   3  31
ATOM     26  C   UNL     1       6.290   2.053  -1.308  0.00  0.00    -0.077 C 
ATOM     27  C   UNL     1       7.411   3.090  -1.399  0.00  0.00    -0.019 C 
ATOM     28  C   UNL     1       8.241   3.050  -0.113  0.00  0.00    -0.004 C 
ATOM     29  C   UNL     1       7.325   3.313   1.085  0.00  0.00    -0.019 C 
ATOM     30  C   UNL     1       6.205   2.270   1.104  0.00  0.00    -0.077 C 
ATOM     31  N   UNL     1       5.429   2.376  -0.150  0.00  0.00    +0.389 N 
ATOM     32  H   UNL     1       5.086   3.339  -0.249  0.00  0.00    -0.080 HD
ENDBRANCH   3  31
BRANCH   3  33
ATOM     33  C   UNL     1       4.732   0.033   0.077  0.00  0.00    +0.200 C 
ATOM     34  O   UNL     1       4.665  -0.750  -0.846  0.00  0.00    -0.278 OA
ATOM     35  N   UNL     1       5.217  -0.369   1.269  0.00  0.00    -0.330 N 
ATOM     36  H   UNL     1       5.199   0.234   2.028  0.00  0.00    +0.145 HD
ATOM     37  H   UNL     1       5.583  -1.262   1.367  0.00  0.00    +0.145 HD
ENDBRANCH   3  33
TORSDOF 5
