REMARK  Name = ZINC59831423
REMARK  12 active torsions:
REMARK  status: ('A' for Active; 'I' for Inactive)
REMARK    1  A    between atoms: C_1  and  C_2
REMARK    2  A    between atoms: C_3  and  C_11
REMARK    3  A    between atoms: C_4  and  C_10
REMARK    4  A    between atoms: N_5  and  C_7
REMARK    5  A    between atoms: C_7  and  C_8
REMARK    6  A    between atoms: N_12  and  N_13
REMARK    7  A    between atoms: C_16  and  S_19
REMARK    8  A    between atoms: S_19  and  C_20
REMARK    9  A    between atoms: C_20  and  C_21
REMARK   10  A    between atoms: N_23  and  C_24
REMARK   11  A    between atoms: C_24  and  C_25
REMARK   12  A    between atoms: C_24  and  C_31
REMARK                            x       y       z     vdW  Elec       q    Type
REMARK                         _______ _______ _______ _____ _____    ______ ____
ROOT
ATOM      1  N   UNL     1      -0.034   1.333  -4.151  0.00  0.00    -0.205 N 
ATOM      2  C   UNL     1      -0.053   2.685  -4.438  0.00  0.00    +0.232 A 
ATOM      3  N   UNL     1      -0.057   3.663  -3.556  0.00  0.00    -0.186 NA
ATOM      4  C   UNL     1      -0.076   4.840  -4.191  0.00  0.00    +0.211 A 
ATOM      5  N   UNL     1      -0.086   4.626  -5.485  0.00  0.00    -0.144 NA
ATOM      6  N   UNL     1      -0.067   3.235  -5.671  0.00  0.00    -0.245 N 
ATOM      7  H   UNL     1      -0.029   0.684  -4.872  0.00  0.00    +0.177 HD
ATOM      8  H   UNL     1      -0.065   2.761  -6.517  0.00  0.00    +0.192 HD
ENDROOT
BRANCH   1  10
ATOM      9  C   UNL     1      -0.004  -0.369  -2.549  0.00  0.00    +0.141 C 
ATOM     10  N   UNL     1      -0.022   0.899  -2.818  0.00  0.00    -0.187 NA
BRANCH   9  13
ATOM     11  C   UNL     1      -0.018   1.503   0.010  0.00  0.00    +0.068 C 
ATOM     12  C   UNL     1       0.002  -0.004   0.002  0.00  0.00    +0.069 A 
ATOM     13  C   UNL     1       0.008  -0.826  -1.145  0.00  0.00    +0.038 A 
ATOM     14  C   UNL     1       0.028  -2.134  -0.712  0.00  0.00    +0.045 A 
ATOM     15  N   UNL     1       0.034  -2.111   0.636  0.00  0.00    -0.264 N 
ATOM     16  N   UNL     1       0.023  -0.776   1.055  0.00  0.00    -0.175 NA
ATOM     17  C   UNL     1       0.041  -3.363  -1.584  0.00  0.00    +0.066 C 
BRANCH  15  18
ATOM     18  C   UNL     1       0.053  -3.285   1.513  0.00  0.00    +0.170 C 
BRANCH  18  19
ATOM     19  C   UNL     1       1.481  -3.668   1.808  0.00  0.00    -0.012 C 
ATOM     20  C   UNL     1       1.889  -3.772   3.048  0.00  0.00    +0.006 C 
ENDBRANCH  18  19
ENDBRANCH  15  18
ENDBRANCH   9  13
ENDBRANCH   1  10
BRANCH   4  21
ATOM     21  S   UNL     1      -0.088   6.422  -3.415  0.00  0.00    -0.075 S 
BRANCH  21  22
ATOM     22  C   UNL     1      -0.115   7.591  -4.801  0.00  0.00    +0.173 C 
BRANCH  22  23
ATOM     23  C   UNL     1      -0.127   9.001  -4.270  0.00  0.00    +0.224 C 
ATOM     24  O   UNL     1      -0.118   9.198  -3.073  0.00  0.00    -0.275 OA
ATOM     25  N   UNL     1      -0.147  10.043  -5.124  0.00  0.00    -0.304 N 
ATOM     26  H   UNL     1      -0.153   9.886  -6.081  0.00  0.00    +0.150 HD
BRANCH  25  27
ATOM     27  C   UNL     1      -0.158  11.414  -4.607  0.00  0.00    +0.134 C 
BRANCH  27  28
ATOM     28  C   UNL     1       1.254  11.857  -4.326  0.00  0.00    -0.023 A 
ATOM     29  C   UNL     1       2.271  11.522  -5.201  0.00  0.00    +0.006 A 
ATOM     30  C   UNL     1       3.567  11.928  -4.944  0.00  0.00    +0.000 A 
ATOM     31  C   UNL     1       3.846  12.671  -3.812  0.00  0.00    +0.000 A 
ATOM     32  C   UNL     1       2.830  13.007  -2.937  0.00  0.00    +0.000 A 
ATOM     33  C   UNL     1       1.533  12.604  -3.197  0.00  0.00    +0.006 A 
ENDBRANCH  27  28
BRANCH  27  34
ATOM     34  C   UNL     1      -0.779  12.331  -5.629  0.00  0.00    -0.023 A 
ATOM     35  C   UNL     1      -0.500  12.159  -6.972  0.00  0.00    +0.006 A 
ATOM     36  C   UNL     1      -1.070  13.000  -7.909  0.00  0.00    +0.000 A 
ATOM     37  C   UNL     1      -1.918  14.014  -7.504  0.00  0.00    +0.000 A 
ATOM     38  C   UNL     1      -2.197  14.185  -6.161  0.00  0.00    +0.000 A 
ATOM     39  C   UNL     1      -1.631  13.341  -5.224  0.00  0.00    +0.006 A 
ENDBRANCH  27  34
ENDBRANCH  25  27
ENDBRANCH  22  23
ENDBRANCH  21  22
ENDBRANCH   4  21
TORSDOF 10
