REMARK  Name = ZINC46749129
REMARK  13 active torsions:
REMARK  status: ('A' for Active; 'I' for Inactive)
REMARK    1  A    between atoms: C_1  and  C_2
REMARK    2  A    between atoms: C_2  and  C_3
REMARK    3  A    between atoms: C_3  and  C_4
REMARK    4  A    between atoms: C_4  and  N_5
REMARK    5  A    between atoms: C_6  and  C_27
REMARK    6  A    between atoms: C_8  and  C_14
REMARK    7  A    between atoms: N_16  and  C_17
REMARK    8  A    between atoms: C_17  and  C_18
REMARK    9  A    between atoms: C_23  and  N_24
REMARK   10  A    between atoms: N_24  and  C_25
REMARK   11  A    between atoms: N_24  and  C_26
REMARK   12  A    between atoms: C_32  and  O_33
REMARK   13  A    between atoms: O_33  and  C_34
REMARK                            x       y       z     vdW  Elec       q    Type
REMARK                         _______ _______ _______ _____ _____    ______ ____
ROOT
ATOM      1  N   UNL     1      -2.627  -2.468  -0.148  0.00  0.00    -0.294 N 
ATOM      2  C   UNL     1      -3.343  -2.864   1.058  0.00  0.00    +0.122 C 
ATOM      3  C   UNL     1      -4.479  -3.828   0.713  0.00  0.00    +0.100 C 
ATOM      4  C   UNL     1      -5.317  -3.216  -0.416  0.00  0.00    +0.024 C 
ATOM      5  C   UNL     1      -4.464  -3.179  -1.686  0.00  0.00    +0.097 C 
ATOM      6  C   UNL     1      -3.123  -2.577  -1.382  0.00  0.00    +0.216 C 
ATOM      7  O   UNL     1      -2.452  -2.171  -2.308  0.00  0.00    -0.276 OA
ENDROOT
BRANCH   2   8
ATOM      8  C   UNL     1      -2.388  -3.545   2.003  0.00  0.00    +0.015 A 
ATOM      9  C   UNL     1      -1.222  -4.108   1.521  0.00  0.00    +0.009 A 
ATOM     10  C   UNL     1      -0.345  -4.733   2.388  0.00  0.00    +0.001 A 
ATOM     11  C   UNL     1      -0.632  -4.796   3.740  0.00  0.00    +0.004 A 
ATOM     12  C   UNL     1      -1.796  -4.234   4.226  0.00  0.00    +0.046 A 
ATOM     13  C   UNL     1      -2.675  -3.601   3.359  0.00  0.00    +0.125 A 
BRANCH  13  14
ATOM     14  O   UNL     1      -3.818  -3.042   3.837  0.00  0.00    -0.495 OA
ATOM     15  C   UNL     1      -4.048  -3.138   5.244  0.00  0.00    +0.277 C 
ENDBRANCH  13  14
ENDBRANCH   2   8
BRANCH   3  16
ATOM     16  C   UNL     1      -3.905  -5.147   0.263  0.00  0.00    +0.218 C 
ATOM     17  O   UNL     1      -2.703  -5.302   0.222  0.00  0.00    -0.275 OA
ATOM     18  N   UNL     1      -4.727  -6.154  -0.093  0.00  0.00    -0.311 N 
ATOM     19  H   UNL     1      -5.688  -6.029  -0.059  0.00  0.00    +0.149 HD
BRANCH  18  20
ATOM     20  C   UNL     1      -4.168  -7.435  -0.530  0.00  0.00    +0.143 C 
BRANCH  20  21
ATOM     21  C   UNL     1      -5.290  -8.383  -0.869  0.00  0.00    +0.008 A 
ATOM     22  C   UNL     1      -5.687  -9.351   0.036  0.00  0.00    +0.010 A 
ATOM     23  C   UNL     1      -6.725 -10.203  -0.318  0.00  0.00    +0.018 A 
ATOM     24  C   UNL     1      -7.326 -10.060  -1.552  0.00  0.00    +0.084 A 
ATOM     25  N   UNL     1      -6.927  -9.127  -2.396  0.00  0.00    -0.349 N 
ATOM     26  C   UNL     1      -5.944  -8.292  -2.093  0.00  0.00    +0.103 A 
ATOM     27  H   UNL     1      -7.366  -9.049  -3.257  0.00  0.00    +0.167 HD
BRANCH  26  28
ATOM     28  N   UNL     1      -5.560  -7.320  -3.009  0.00  0.00    -0.323 N 
ATOM     29  C   UNL     1      -4.438  -7.572  -3.917  0.00  0.00    +0.130 C 
ATOM     30  C   UNL     1      -6.276  -6.043  -3.067  0.00  0.00    +0.130 C 
ENDBRANCH  26  28
ENDBRANCH  20  21
ENDBRANCH  18  20
ENDBRANCH   3  16
BRANCH   1  31
ATOM     31  C   UNL     1      -1.282  -1.909   0.004  0.00  0.00    +0.108 C 
BRANCH  31  32
ATOM     32  C   UNL     1      -1.360  -0.381   0.002  0.00  0.00    +0.019 C 
BRANCH  32  34
ATOM     33  C   UNL     1      -0.033   1.730   0.159  0.00  0.00    +0.004 C 
ATOM     34  C   UNL     1       0.045   0.202   0.161  0.00  0.00    -0.002 C 
ENDBRANCH  32  34
ENDBRANCH  31  32
ENDBRANCH   1  31
TORSDOF 9
