REMARK  Name = ZINC38915648
REMARK  3 active torsions:
REMARK  status: ('A' for Active; 'I' for Inactive)
REMARK    1  A    between atoms: C_5  and  C_7
REMARK    2  A    between atoms: N_12  and  C_13
REMARK    3  A    between atoms: N_15  and  C_16
REMARK                            x       y       z     vdW  Elec       q    Type
REMARK                         _______ _______ _______ _____ _____    ______ ____
ROOT
ATOM      1  C   UNL     1       1.228  -2.183  -0.024  0.00  0.00    +0.194 C 
ATOM      2  N   UNL     1      -0.069  -2.750  -0.466  0.00  0.00    -0.289 N 
ATOM      3  N   UNL     1      -0.093  -3.414  -1.477  0.00  0.00    -0.153 NA
ATOM      4  C   UNL     1       1.008  -3.689  -2.259  0.00  0.00    +0.203 C 
ATOM      5  N   UNL     1       1.085  -4.397  -3.371  0.00  0.00    -0.136 NA
ATOM      6  S   UNL     1       2.309  -2.831  -1.370  0.00  0.00    -0.056 S 
ATOM      7  H   UNL     1      -0.879  -2.592   0.044  0.00  0.00    +0.184 HD
ENDROOT
BRANCH   1  12
ATOM      8  C   UNL     1      -0.041   1.372   0.006  0.00  0.00    +0.000 A 
ATOM      9  C   UNL     1       1.142   2.088  -0.007  0.00  0.00    +0.001 A 
ATOM     10  C   UNL     1       2.353   1.421  -0.026  0.00  0.00    +0.015 A 
ATOM     11  C   UNL     1       2.381   0.038  -0.031  0.00  0.00    +0.019 A 
ATOM     12  C   UNL     1       1.197  -0.677  -0.018  0.00  0.00    -0.000 A 
ATOM     13  C   UNL     1      -0.013  -0.010   0.001  0.00  0.00    +0.007 A 
ATOM     14  I   UNL     1       4.215  -0.972  -0.059  0.00  0.00    -0.043 I 
ENDBRANCH   1  12
BRANCH   5  15
ATOM     15  C   UNL     1       2.268  -4.547  -3.991  0.00  0.00    +0.330 C 
ATOM     16  O   UNL     1       3.268  -4.030  -3.528  0.00  0.00    -0.250 OA
ATOM     17  N   UNL     1       2.346  -5.270  -5.126  0.00  0.00    -0.268 N 
ATOM     18  H   UNL     1       1.564  -5.737  -5.459  0.00  0.00    +0.156 HD
BRANCH  17  19
ATOM     19  C   UNL     1       3.556  -5.347  -5.824  0.00  0.00    +0.036 A 
ATOM     20  C   UNL     1       3.557  -5.399  -7.212  0.00  0.00    +0.025 A 
ATOM     21  C   UNL     1       4.752  -5.475  -7.899  0.00  0.00    +0.023 A 
ATOM     22  C   UNL     1       5.950  -5.500  -7.206  0.00  0.00    +0.059 A 
ATOM     23  C   UNL     1       5.953  -5.448  -5.822  0.00  0.00    +0.061 A 
ATOM     24  C   UNL     1       4.759  -5.365  -5.130  0.00  0.00    +0.044 A 
ATOM     25 CL   UNL     1       7.457  -5.480  -4.956  0.00  0.00    -0.082 Cl
ATOM     26 CL   UNL     1       7.451  -5.596  -8.073  0.00  0.00    -0.082 Cl
ENDBRANCH  17  19
ENDBRANCH   5  15
TORSDOF 3
