REMARK  Name = ZINC20467916
REMARK  8 active torsions:
REMARK  status: ('A' for Active; 'I' for Inactive)
REMARK    1  A    between atoms: C_1  and  C_2
REMARK    2  A    between atoms: C_2  and  C_3
REMARK    3  A    between atoms: C_2  and  C_4
REMARK    4  A    between atoms: C_2  and  N_5
REMARK    5  A    between atoms: N_5  and  C_6
REMARK    6  A    between atoms: C_6  and  C_7
REMARK    7  A    between atoms: C_9  and  C_12
REMARK    8  A    between atoms: N_21  and  C_22
REMARK                            x       y       z     vdW  Elec       q    Type
REMARK                         _______ _______ _______ _____ _____    ______ ____
ROOT
ATOM      1  N   UNL     1      -0.125   1.310   0.534  0.00  0.00    -0.271 N 
ATOM      2  C   UNL     1      -0.200  -0.018   0.322  0.00  0.00    +0.307 C 
ATOM      3  O   UNL     1       0.789  -0.712   0.460  0.00  0.00    -0.252 OA
ATOM      4  N   UNL     1      -1.370  -0.578  -0.044  0.00  0.00    -0.269 N 
ATOM      5  H   UNL     1      -2.234   0.059  -0.281  0.00  0.00    +0.156 HD
ENDROOT
BRANCH   4   6
ATOM      6  C   UNL     1      -1.485  -1.968  -0.121  0.00  0.00    +0.042 A 
ATOM      7  C   UNL     1      -0.382  -2.742  -0.406  0.00  0.00    +0.024 A 
ATOM      8  C   UNL     1      -0.486  -4.128  -0.486  0.00  0.00    +0.002 A 
ATOM      9  C   UNL     1      -1.677  -4.756  -0.284  0.00  0.00    +0.008 A 
ATOM     10  C   UNL     1      -2.826  -4.003   0.009  0.00  0.00    -0.016 A 
ATOM     11  C   UNL     1      -2.732  -2.592   0.097  0.00  0.00    +0.003 A 
ATOM     12  C   UNL     1      -3.882  -1.840   0.386  0.00  0.00    +0.010 A 
ATOM     13  C   UNL     1      -5.069  -2.475   0.586  0.00  0.00    +0.001 A 
ATOM     14  C   UNL     1      -5.162  -3.864   0.505  0.00  0.00    +0.001 A 
ATOM     15  C   UNL     1      -4.069  -4.624   0.222  0.00  0.00    +0.008 A 
ENDBRANCH   4   6
BRANCH   1  17
ATOM     16  C   UNL     1       2.267   1.619   0.133  0.00  0.00    +0.031 C 
ATOM     17  C   UNL     1       1.100   1.897   1.082  0.00  0.00    +0.031 C 
ATOM     18  C   UNL     1       0.917   3.408   1.236  0.00  0.00    +0.031 C 
ATOM     19  C   UNL     1       1.395   1.277   2.450  0.00  0.00    +0.031 C 
ENDBRANCH   1  17
BRANCH   1  20
ATOM     20  C   UNL     1      -1.268   2.169   0.211  0.00  0.00    +0.208 C 
BRANCH  20  21
ATOM     21  C   UNL     1      -2.168   2.281   1.414  0.00  0.00    +0.245 A 
ATOM     22  N   UNL     1      -2.091   3.183   2.361  0.00  0.00    -0.190 NA
ATOM     23  C   UNL     1      -3.093   2.892   3.221  0.00  0.00    +0.202 A 
ATOM     24  N   UNL     1      -3.714   1.842   2.751  0.00  0.00    -0.056 NA
ATOM     25  O   UNL     1      -3.198   1.484   1.713  0.00  0.00    -0.336 OA
BRANCH  23  26
ATOM     26  C   UNL     1      -3.426   3.628   4.467  0.00  0.00    +0.023 A 
ATOM     27  C   UNL     1      -2.669   4.733   4.850  0.00  0.00    +0.013 A 
ATOM     28  C   UNL     1      -2.986   5.417   6.005  0.00  0.00    +0.021 A 
ATOM     29  C   UNL     1      -4.048   4.999   6.790  0.00  0.00    +0.041 A 
ATOM     30  C   UNL     1      -4.800   3.898   6.417  0.00  0.00    +0.021 A 
ATOM     31  C   UNL     1      -4.494   3.212   5.260  0.00  0.00    +0.013 A 
ATOM     32 CL   UNL     1      -4.437   5.859   8.247  0.00  0.00    -0.084 Cl
ENDBRANCH  23  26
ENDBRANCH  20  21
ENDBRANCH   1  20
TORSDOF 5
