REMARK  Name = ZINC12561598
REMARK  6 active torsions:
REMARK  status: ('A' for Active; 'I' for Inactive)
REMARK    1  A    between atoms: C_3  and  O_32
REMARK    2  A    between atoms: C_6  and  C_7
REMARK    3  A    between atoms: C_20  and  C_22
REMARK    4  A    between atoms: C_25  and  O_28
REMARK    5  A    between atoms: O_28  and  C_29
REMARK    6  A    between atoms: O_32  and  C_33
REMARK                            x       y       z     vdW  Elec       q    Type
REMARK                         _______ _______ _______ _____ _____    ______ ____
ROOT
ATOM      1  C   UNL     1      -1.262  -0.760   0.011  0.00  0.00    +0.013 C 
ATOM      2  C   UNL     1      -1.245  -2.099  -0.098  0.00  0.00    -0.023 C 
ATOM      3  C   UNL     1       0.061  -2.864  -0.112  0.00  0.00    +0.037 C 
ATOM      4  C   UNL     1      -0.054  -3.944  -1.197  0.00  0.00    +0.009 C 
ATOM      5  C   UNL     1      -1.179  -4.907  -0.821  0.00  0.00    +0.035 C 
ATOM      6  C   UNL     1      -2.459  -4.174  -0.551  0.00  0.00    -0.020 C 
ATOM      7  C   UNL     1      -2.503  -2.873  -0.203  0.00  0.00    +0.046 C 
ATOM      8  N   UNL     1      -3.685  -2.244   0.053  0.00  0.00    -0.326 N 
ATOM      9  C   UNL     1      -4.862  -2.814  -0.010  0.00  0.00    +0.215 C 
ATOM     10  N   UNL     1      -6.109  -2.343   0.211  0.00  0.00    -0.206 NA
ATOM     11  C   UNL     1      -6.991  -3.286   0.025  0.00  0.00    +0.203 C 
ATOM     12  N   UNL     1      -6.356  -4.437  -0.331  0.00  0.00    -0.251 N 
ATOM     13  N   UNL     1      -4.990  -4.145  -0.355  0.00  0.00    -0.210 N 
ATOM     14  C   UNL     1      -3.779  -4.918  -0.663  0.00  0.00    +0.155 C 
ATOM     15  H   UNL     1      -6.770  -5.292  -0.528  0.00  0.00    +0.171 HD
ATOM     16  H   UNL     1      -3.651  -1.306   0.300  0.00  0.00    +0.169 HD
ENDROOT
BRANCH   1  22
ATOM     17  C   UNL     1       0.179   1.252  -0.246  0.00  0.00    +0.011 A 
ATOM     18  C   UNL     1       1.348   1.933   0.013  0.00  0.00    +0.046 A 
ATOM     19  C   UNL     1       2.334   1.352   0.800  0.00  0.00    +0.127 A 
ATOM     20  C   UNL     1       2.147   0.081   1.329  0.00  0.00    +0.046 A 
ATOM     21  C   UNL     1       0.981  -0.608   1.076  0.00  0.00    +0.011 A 
ATOM     22  C   UNL     1      -0.014  -0.027   0.284  0.00  0.00    -0.024 A 
BRANCH  19  23
ATOM     23  O   UNL     1       3.485   2.028   1.053  0.00  0.00    -0.434 OA
BRANCH  23  24
ATOM     24  C   UNL     1       4.457   1.372   1.869  0.00  0.00    +0.541 C 
ATOM     25  F   UNL     1       3.901   1.094   3.123  0.00  0.00    -0.166 F 
ATOM     26  F   UNL     1       4.849   0.176   1.258  0.00  0.00    -0.166 F 
ENDBRANCH  23  24
ENDBRANCH  19  23
ENDBRANCH   1  22
BRANCH  14  27
ATOM     27  C   UNL     1      -3.894  -5.459  -2.065  0.00  0.00    -0.021 A 
ATOM     28  C   UNL     1      -4.290  -4.626  -3.095  0.00  0.00    +0.009 A 
ATOM     29  C   UNL     1      -4.397  -5.120  -4.381  0.00  0.00    +0.046 A 
ATOM     30  C   UNL     1      -4.106  -6.452  -4.638  0.00  0.00    +0.127 A 
ATOM     31  C   UNL     1      -3.710  -7.285  -3.602  0.00  0.00    +0.046 A 
ATOM     32  C   UNL     1      -3.599  -6.786  -2.319  0.00  0.00    +0.009 A 
BRANCH  30  33
ATOM     33  O   UNL     1      -4.211  -6.940  -5.902  0.00  0.00    -0.434 OA
BRANCH  33  34
ATOM     34  C   UNL     1      -3.897  -8.320  -6.093  0.00  0.00    +0.541 C 
ATOM     35  F   UNL     1      -2.572  -8.555  -5.708  0.00  0.00    -0.166 F 
ATOM     36  F   UNL     1      -4.754  -9.106  -5.315  0.00  0.00    -0.166 F 
ENDBRANCH  33  34
ENDBRANCH  30  33
ENDBRANCH  14  27
TORSDOF 6
