REMARK  Name = ZINC13443658
REMARK  11 active torsions:
REMARK  status: ('A' for Active; 'I' for Inactive)
REMARK    1  A    between atoms: C_1  and  C_2
REMARK    2  A    between atoms: C_2  and  C_4
REMARK    3  A    between atoms: C_2  and  N_6
REMARK    4  A    between atoms: C_7  and  C_28
REMARK    5  A    between atoms: C_10  and  S_11
REMARK    6  A    between atoms: S_11  and  C_12
REMARK    7  A    between atoms: C_12  and  C_13
REMARK    8  A    between atoms: N_15  and  C_16
REMARK    9  A    between atoms: C_16  and  C_17
REMARK   10  A    between atoms: C_22  and  O_23
REMARK   11  A    between atoms: O_23  and  C_24
REMARK                            x       y       z     vdW  Elec       q    Type
REMARK                         _______ _______ _______ _____ _____    ______ ____
ROOT
ATOM      1  C   UNL     1      -5.589   1.582   2.934  0.00  0.00    +0.173 C 
ENDROOT
BRANCH   1   2
ATOM      2  C   UNL     1      -4.389   2.456   3.192  0.00  0.00    +0.224 C 
ATOM      3  O   UNL     1      -4.528   3.652   3.330  0.00  0.00    -0.275 OA
ATOM      4  N   UNL     1      -3.160   1.907   3.271  0.00  0.00    -0.310 N 
ATOM      5  H   UNL     1      -3.049   0.949   3.161  0.00  0.00    +0.149 HD
BRANCH   4   6
ATOM      6  C   UNL     1      -1.993   2.756   3.522  0.00  0.00    +0.143 C 
BRANCH   6   7
ATOM      7  C   UNL     1      -0.751   1.903   3.563  0.00  0.00    +0.012 A 
ATOM      8  C   UNL     1      -0.207   1.531   4.777  0.00  0.00    +0.009 A 
ATOM      9  C   UNL     1       0.932   0.749   4.816  0.00  0.00    +0.001 A 
ATOM     10  C   UNL     1       1.530   0.336   3.639  0.00  0.00    +0.004 A 
ATOM     11  C   UNL     1       0.987   0.701   2.422  0.00  0.00    +0.046 A 
ATOM     12  C   UNL     1      -0.153   1.491   2.381  0.00  0.00    +0.135 A 
BRANCH  12  13
ATOM     13  O   UNL     1      -0.686   1.856   1.185  0.00  0.00    -0.405 OA
BRANCH  13  14
ATOM     14  C   UNL     1      -0.017   1.395   0.010  0.00  0.00    +0.575 C 
ATOM     15  F   UNL     1       0.002  -0.004   0.002  0.00  0.00    -0.133 F 
ATOM     16  F   UNL     1       1.296   1.879  -0.000  0.00  0.00    -0.133 F 
ATOM     17  F   UNL     1      -0.694   1.858  -1.124  0.00  0.00    -0.133 F 
ENDBRANCH  13  14
ENDBRANCH  12  13
ENDBRANCH   6   7
ENDBRANCH   4   6
ENDBRANCH   1   2
BRANCH   1  18
ATOM     18  S   UNL     1      -7.081   2.606   2.885  0.00  0.00    -0.077 S 
BRANCH  18  23
ATOM     19  N   UNL     1      -9.640   1.563   2.445  0.00  0.00    -0.288 N 
ATOM     20  C   UNL     1     -10.177   0.316   2.212  0.00  0.00    +0.172 A 
ATOM     21  N   UNL     1      -9.179  -0.540   2.224  0.00  0.00    -0.128 NA
ATOM     22  N   UNL     1      -8.073   0.078   2.438  0.00  0.00    -0.122 NA
ATOM     23  C   UNL     1      -8.294   1.365   2.577  0.00  0.00    +0.193 A 
BRANCH  20  24
ATOM     24  C   UNL     1     -11.598   0.000   1.999  0.00  0.00    +0.056 A 
ATOM     25  C   UNL     1     -12.229  -1.217   2.040  0.00  0.00    +0.019 A 
ATOM     26  C   UNL     1     -13.586  -1.266   1.810  0.00  0.00    +0.008 A 
ATOM     27  C   UNL     1     -14.254  -0.115   1.538  0.00  0.00    +0.046 A 
ATOM     28  S   UNL     1     -12.949   1.101   1.612  0.00  0.00    -0.094 S 
ENDBRANCH  20  24
BRANCH  19  30
ATOM     29  C   UNL     1     -10.134   3.460   3.906  0.00  0.00    +0.043 C 
ATOM     30  C   UNL     1     -10.361   2.835   2.528  0.00  0.00    +0.201 C 
BRANCH  30  31
ATOM     31  C   UNL     1      -9.853   3.772   1.462  0.00  0.00    +0.378 C 
ATOM     32  O   UNL     1      -9.360   4.830   1.773  0.00  0.00    -0.244 OA
ATOM     33  O   UNL     1      -9.948   3.430   0.168  0.00  0.00    -0.244 OA
ENDBRANCH  30  31
ENDBRANCH  19  30
ENDBRANCH  18  23
ENDBRANCH   1  18
TORSDOF 10
