REMARK  Name = ZINC66773936
REMARK  6 active torsions:
REMARK  status: ('A' for Active; 'I' for Inactive)
REMARK    1  A    between atoms: C_1  and  C_2
REMARK    2  A    between atoms: C_3  and  C_26
REMARK    3  A    between atoms: N_5  and  C_25
REMARK    4  A    between atoms: C_6  and  N_7
REMARK    5  A    between atoms: C_8  and  C_10
REMARK    6  A    between atoms: C_13  and  C_15
REMARK                            x       y       z     vdW  Elec       q    Type
REMARK                         _______ _______ _______ _____ _____    ______ ____
ROOT
ATOM      1  C   UNL     1       0.041  -0.790   4.821  0.00  0.00    +0.134 A 
ATOM      2  C   UNL     1       0.174  -1.684   5.850  0.00  0.00    +0.080 A 
ATOM      3  S   UNL     1      -0.024  -0.709   7.207  0.00  0.00    -0.075 S 
ATOM      4  C   UNL     1      -0.275   0.846   6.370  0.00  0.00    +0.109 A 
ATOM      5  N   UNL     1      -0.180   0.488   5.102  0.00  0.00    -0.234 NA
ENDROOT
BRANCH   4   6
ATOM      6  C   UNL     1      -0.519   2.186   6.944  0.00  0.00    +0.011 A 
ATOM      7  C   UNL     1      -0.698   3.286   6.104  0.00  0.00    +0.014 A 
ATOM      8  C   UNL     1      -0.924   4.535   6.642  0.00  0.00    +0.050 A 
ATOM      9  C   UNL     1      -0.977   4.704   8.020  0.00  0.00    +0.162 A 
ATOM     10  C   UNL     1      -0.802   3.611   8.863  0.00  0.00    +0.163 A 
ATOM     11  C   UNL     1      -0.577   2.354   8.328  0.00  0.00    +0.060 A 
ATOM     12  O   UNL     1      -0.858   3.759  10.215  0.00  0.00    -0.485 OA
ATOM     13  C   UNL     1      -0.719   5.090  10.724  0.00  0.00    +0.270 C 
ATOM     14  C   UNL     1      -1.619   6.017   9.895  0.00  0.00    +0.270 C 
ATOM     15  O   UNL     1      -1.198   5.947   8.529  0.00  0.00    -0.485 OA
ENDBRANCH   4   6
BRANCH   1  17
ATOM     16  N   UNL     1       0.022  -0.350   2.418  0.00  0.00    -0.265 N 
ATOM     17  C   UNL     1       0.149  -1.239   3.423  0.00  0.00    +0.268 C 
ATOM     18  O   UNL     1       0.352  -2.413   3.175  0.00  0.00    -0.268 OA
ATOM     19  H   UNL     1      -0.098   0.592   2.615  0.00  0.00    +0.157 HD
BRANCH  16  25
ATOM     20  C   UNL     1       2.083   0.592   0.339  0.00  0.00    +0.049 C 
ATOM     21  C   UNL     1       0.958  -0.392   0.145  0.00  0.00    +0.012 A 
ATOM     22  C   UNL     1       0.652  -1.068  -1.039  0.00  0.00    +0.065 A 
ATOM     23  N   UNL     1      -0.386  -1.834  -0.821  0.00  0.00    -0.175 NA
ATOM     24  N   UNL     1      -0.782  -1.675   0.513  0.00  0.00    -0.253 N 
ATOM     25  C   UNL     1       0.064  -0.785   1.094  0.00  0.00    +0.126 A 
ATOM     26  C   UNL     1      -1.904  -2.352   1.168  0.00  0.00    +0.174 C 
ATOM     27  C   UNL     1       1.391  -0.936  -2.345  0.00  0.00    +0.068 C 
ENDBRANCH  16  25
ENDBRANCH   1  17
TORSDOF 3
