REMARK  Name = ZINC15772151
REMARK  7 active torsions:
REMARK  status: ('A' for Active; 'I' for Inactive)
REMARK    1  A    between atoms: C_1  and  N_2
REMARK    2  A    between atoms: C_4  and  C_11
REMARK    3  A    between atoms: C_11  and  C_13
REMARK    4  A    between atoms: C_11  and  N_27
REMARK    5  A    between atoms: C_13  and  C_14
REMARK    6  A    between atoms: C_13  and  C_20
REMARK    7  A    between atoms: C_13  and  O_26
REMARK                            x       y       z     vdW  Elec       q    Type
REMARK                         _______ _______ _______ _____ _____    ______ ____
ROOT
ATOM      1  C   UNL     1       2.544   5.305  -0.544  0.00  0.00    +0.182 C 
ENDROOT
BRANCH   1   5
ATOM      2  C   UNL     1       3.690   4.001  -5.261  0.00  0.00    +0.149 C 
ATOM      3  N   UNL     1       3.006   4.645  -4.136  0.00  0.00    -0.349 N 
ATOM      4  C   UNL     1       3.336   4.482  -2.818  0.00  0.00    +0.092 A 
ATOM      5  C   UNL     1       2.514   5.211  -2.047  0.00  0.00    +0.006 A 
ATOM      6  C   UNL     1       1.578   5.893  -2.945  0.00  0.00    +0.005 A 
ATOM      7  C   UNL     1       1.937   5.505  -4.249  0.00  0.00    +0.049 A 
ATOM      8  C   UNL     1       1.218   6.003  -5.330  0.00  0.00    +0.026 A 
ATOM      9  C   UNL     1       0.170   6.871  -5.114  0.00  0.00    +0.002 A 
ATOM     10  C   UNL     1      -0.177   7.255  -3.826  0.00  0.00    +0.001 A 
ATOM     11  C   UNL     1       0.516   6.777  -2.749  0.00  0.00    +0.010 A 
ENDBRANCH   1   5
BRANCH   1  12
ATOM     12  N   UNL     1       3.869   5.754  -0.109  0.00  0.00    -0.233 N 
ATOM     13  C   UNL     1       4.158   6.893   0.605  0.00  0.00    +0.090 A 
ATOM     14  C   UNL     1       3.390   7.929   1.123  0.00  0.00    +0.029 A 
ATOM     15  C   UNL     1       3.995   8.948   1.805  0.00  0.00    +0.002 A 
ATOM     16  C   UNL     1       5.372   8.957   1.986  0.00  0.00    +0.002 A 
ATOM     17  C   UNL     1       6.147   7.948   1.494  0.00  0.00    +0.032 A 
ATOM     18  C   UNL     1       5.552   6.895   0.786  0.00  0.00    +0.113 A 
ATOM     19  N   UNL     1       6.045   5.793   0.185  0.00  0.00    -0.129 NA
ATOM     20  N   UNL     1       5.093   5.109  -0.344  0.00  0.00    -0.064 NA
ENDBRANCH   1  12
BRANCH   1  21
ATOM     21  C   UNL     1       2.248   3.930   0.059  0.00  0.00    +0.142 C 
BRANCH  21  22
ATOM     22  C   UNL     1       0.898   3.455  -0.413  0.00  0.00    -0.009 A 
ATOM     23  C   UNL     1       0.652   2.102  -0.553  0.00  0.00    +0.007 A 
ATOM     24  C   UNL     1      -0.586   1.665  -0.986  0.00  0.00    +0.000 A 
ATOM     25  C   UNL     1      -1.576   2.582  -1.284  0.00  0.00    +0.000 A 
ATOM     26  C   UNL     1      -1.332   3.935  -1.139  0.00  0.00    +0.000 A 
ATOM     27  C   UNL     1      -0.094   4.371  -0.705  0.00  0.00    +0.007 A 
ENDBRANCH  21  22
BRANCH  21  28
ATOM     28  C   UNL     1       2.247   4.031   1.563  0.00  0.00    -0.009 A 
ATOM     29  C   UNL     1       1.879   5.214   2.176  0.00  0.00    +0.007 A 
ATOM     30  C   UNL     1       1.874   5.305   3.556  0.00  0.00    +0.000 A 
ATOM     31  C   UNL     1       2.247   4.216   4.322  0.00  0.00    +0.000 A 
ATOM     32  C   UNL     1       2.620   3.035   3.708  0.00  0.00    +0.000 A 
ATOM     33  C   UNL     1       2.620   2.942   2.329  0.00  0.00    +0.007 A 
ENDBRANCH  21  28
BRANCH  21  34
ATOM     34  O   UNL     1       3.252   3.002  -0.355  0.00  0.00    -0.377 OA
ATOM     35  H   UNL     1       3.234   2.800  -1.301  0.00  0.00    +0.211 HD
ENDBRANCH  21  34
ENDBRANCH   1  21
TORSDOF 6
