REMARK  Name = ZINC01936917
REMARK  11 active torsions:
REMARK  status: ('A' for Active; 'I' for Inactive)
REMARK    1  A    between atoms: C_1  and  C_2
REMARK    2  A    between atoms: C_7  and  C_8
REMARK    3  A    between atoms: C_8  and  O_9
REMARK    4  A    between atoms: O_9  and  C_10
REMARK    5  A    between atoms: C_13  and  C_18
REMARK    6  A    between atoms: C_15  and  O_16
REMARK    7  A    between atoms: O_16  and  C_17
REMARK    8  A    between atoms: C_19  and  C_20
REMARK    9  A    between atoms: N_22  and  C_23
REMARK   10  A    between atoms: C_24  and  C_34
REMARK   11  A    between atoms: C_29  and  C_33
REMARK                            x       y       z     vdW  Elec       q    Type
REMARK                         _______ _______ _______ _____ _____    ______ ____
ROOT
ATOM      1  C   UNL     1       0.070   1.229   8.772  0.00  0.00    +0.013 C 
ATOM      2  C   UNL     1       0.049   2.567   8.953  0.00  0.00    +0.068 C 
ENDROOT
BRANCH   1   6
ATOM      3  C   UNL     1       0.053  -0.377   4.843  0.00  0.00    +0.162 A 
ATOM      4  C   UNL     1       0.031   0.999   5.030  0.00  0.00    +0.050 A 
ATOM      5  C   UNL     1       0.036   1.524   6.304  0.00  0.00    +0.012 A 
ATOM      6  C   UNL     1       0.064   0.671   7.412  0.00  0.00    -0.021 A 
ATOM      7  C   UNL     1       0.086  -0.716   7.223  0.00  0.00    +0.057 A 
ATOM      8  C   UNL     1       0.075  -1.234   5.943  0.00  0.00    +0.162 A 
BRANCH   8   9
ATOM      9  O   UNL     1       0.092  -2.581   5.755  0.00  0.00    -0.491 OA
ATOM     10  C   UNL     1       0.114  -3.399   6.926  0.00  0.00    +0.277 C 
ENDBRANCH   8   9
BRANCH   3  11
ATOM     11  O   UNL     1       0.048  -0.889   3.585  0.00  0.00    -0.484 OA
BRANCH  11  12
ATOM     12  C   UNL     1       0.025   0.045   2.504  0.00  0.00    +0.265 C 
BRANCH  12  19
ATOM     13  C   UNL     1      -0.018   1.503   0.010  0.00  0.00    +0.044 C 
ATOM     14  C   UNL     1       0.002  -0.004   0.002  0.00  0.00    -0.044 A 
ATOM     15  C   UNL     1       0.006  -0.689  -1.199  0.00  0.00    +0.004 A 
ATOM     16  C   UNL     1       0.025  -2.071  -1.207  0.00  0.00    +0.000 A 
ATOM     17  C   UNL     1       0.040  -2.768  -0.013  0.00  0.00    +0.000 A 
ATOM     18  C   UNL     1       0.037  -2.084   1.188  0.00  0.00    +0.007 A 
ATOM     19  C   UNL     1       0.023  -0.702   1.195  0.00  0.00    -0.007 A 
ENDBRANCH  12  19
ENDBRANCH  11  12
ENDBRANCH   3  11
ENDBRANCH   1   6
BRANCH   2  20
ATOM     20  C   UNL     1       0.055   3.122  10.305  0.00  0.00    +0.241 C 
ATOM     21  O   UNL     1       0.080   2.378  11.268  0.00  0.00    -0.270 OA
ATOM     22  N   UNL     1       0.034   4.457  10.486  0.00  0.00    -0.276 N 
ATOM     23  H   UNL     1       0.015   5.050   9.718  0.00  0.00    +0.156 HD
BRANCH  22  24
ATOM     24  C   UNL     1       0.040   4.983  11.767  0.00  0.00    +0.085 A 
ATOM     25  C   UNL     1       0.016   6.318  12.141  0.00  0.00    +0.068 A 
ATOM     26  C   UNL     1       0.029   6.609  13.564  0.00  0.00    -0.023 A 
ATOM     27  C   UNL     1       0.064   5.513  14.352  0.00  0.00    -0.004 A 
ATOM     28  S   UNL     1       0.071   4.150  13.225  0.00  0.00    -0.077 S 
ATOM     29  C   UNL     1       0.087   5.482  15.849  0.00  0.00    +0.046 C 
ATOM     30  C   UNL     1       0.445   6.887  16.355  0.00  0.00    -0.009 C 
ATOM     31  C   UNL     1      -0.425   7.914  15.623  0.00  0.00    +0.008 C 
ATOM     32  C   UNL     1       0.005   8.010  14.158  0.00  0.00    +0.037 C 
ATOM     33  C   UNL     1       0.184   6.971  17.860  0.00  0.00    +0.008 C 
BRANCH  25  34
ATOM     34  C   UNL     1      -0.021   7.390  11.142  0.00  0.00    +0.244 C 
ATOM     35  O   UNL     1      -1.090   7.813  10.741  0.00  0.00    -0.270 OA
ATOM     36  N   UNL     1       1.129   7.909  10.667  0.00  0.00    -0.325 N 
ATOM     37  H   UNL     1       1.981   7.572  10.986  0.00  0.00    +0.145 HD
ATOM     38  H   UNL     1       1.105   8.618  10.006  0.00  0.00    +0.145 HD
ENDBRANCH  25  34
ENDBRANCH  22  24
ENDBRANCH   2  20
TORSDOF 8
