REMARK  Name = ZINC63514062
REMARK  8 active torsions:
REMARK  status: ('A' for Active; 'I' for Inactive)
REMARK    1  A    between atoms: C_7  and  C_10
REMARK    2  A    between atoms: C_10  and  C_11
REMARK    3  A    between atoms: C_11  and  N_12
REMARK    4  A    between atoms: N_12  and  S_13
REMARK    5  A    between atoms: S_13  and  C_16
REMARK    6  A    between atoms: C_19  and  O_22
REMARK    7  A    between atoms: O_22  and  C_23
REMARK    8  A    between atoms: C_26  and  N_29
REMARK                            x       y       z     vdW  Elec       q    Type
REMARK                         _______ _______ _______ _____ _____    ______ ____
ROOT
ATOM      1  S   UNL     1      -1.989  -5.775  -3.812  0.00  0.00    +0.058 S 
ATOM      2  O   UNL     1      -2.574  -6.997  -3.385  0.00  0.00    -0.153 OA
ATOM      3  O   UNL     1      -2.662  -4.869  -4.675  0.00  0.00    -0.153 OA
ENDROOT
BRANCH   1   4
ATOM      4  C   UNL     1      -0.472  -6.193  -4.605  0.00  0.00    +0.105 A 
ATOM      5  C   UNL     1       0.083  -5.330  -5.532  0.00  0.00    +0.032 A 
ATOM      6  C   UNL     1       1.272  -5.655  -6.155  0.00  0.00    +0.048 A 
ATOM      7  C   UNL     1       1.910  -6.849  -5.850  0.00  0.00    +0.129 A 
ATOM      8  C   UNL     1       1.351  -7.713  -4.919  0.00  0.00    +0.048 A 
ATOM      9  C   UNL     1       0.164  -7.381  -4.295  0.00  0.00    +0.032 A 
BRANCH   7  10
ATOM     10  O   UNL     1       3.080  -7.172  -6.462  0.00  0.00    -0.456 OA
BRANCH  10  11
ATOM     11  C   UNL     1       3.593  -6.292  -7.361  0.00  0.00    +0.129 A 
ATOM     12  C   UNL     1       4.466  -5.299  -6.941  0.00  0.00    +0.048 A 
ATOM     13  C   UNL     1       4.987  -4.406  -7.857  0.00  0.00    +0.036 A 
ATOM     14  C   UNL     1       4.638  -4.500  -9.192  0.00  0.00    +0.126 A 
ATOM     15  C   UNL     1       3.767  -5.489  -9.613  0.00  0.00    +0.036 A 
ATOM     16  C   UNL     1       3.249  -6.388  -8.702  0.00  0.00    +0.048 A 
BRANCH  14  17
ATOM     17  N   UNL     1       5.197  -3.542 -10.171  0.00  0.00    +0.056 N 
ATOM     18  O   UNL     1       5.958  -2.677  -9.804  0.00  0.00    -0.126 OA
ATOM     19  O   UNL     1       4.892  -3.623 -11.339  0.00  0.00    -0.126 OA
ENDBRANCH  14  17
ENDBRANCH  10  11
ENDBRANCH   7  10
ENDBRANCH   1   4
BRANCH   1  20
ATOM     20  N   UNL     1      -1.607  -4.928  -2.441  0.00  0.00    -0.190 NA
ATOM     21  H   UNL     1      -1.814  -5.298  -1.569  0.00  0.00    +0.148 HD
BRANCH  20  22
ATOM     22  C   UNL     1      -0.958  -3.619  -2.546  0.00  0.00    +0.110 C 
BRANCH  22  23
ATOM     23  C   UNL     1      -1.053  -2.894  -1.202  0.00  0.00    +0.050 C 
BRANCH  23  30
ATOM     24  C   UNL     1      -2.670   1.307  -2.091  0.00  0.00    +0.001 A 
ATOM     25  C   UNL     1      -1.681   2.301  -2.097  0.00  0.00    +0.002 A 
ATOM     26  C   UNL     1      -0.379   2.035  -1.861  0.00  0.00    +0.026 A 
ATOM     27  C   UNL     1       0.046   0.704  -1.593  0.00  0.00    +0.043 A 
ATOM     28  N   UNL     1       1.229   0.200  -1.339  0.00  0.00    -0.380 N 
ATOM     29  C   UNL     1       1.088  -1.246  -1.137  0.00  0.00    +0.144 C 
ATOM     30  C   UNL     1      -0.384  -1.547  -1.309  0.00  0.00    -0.040 C 
ATOM     31  C   UNL     1      -0.980  -0.363  -1.581  0.00  0.00    -0.001 A 
ATOM     32  C   UNL     1      -2.374   0.011  -1.846  0.00  0.00    +0.010 A 
ATOM     33  H   UNL     1       2.059   0.700  -1.292  0.00  0.00    +0.160 HD
ENDBRANCH  23  30
ENDBRANCH  22  23
ENDBRANCH  20  22
ENDBRANCH   1  20
TORSDOF 8
