REMARK  Name = ZINC35621723
REMARK  18 active torsions:
REMARK  status: ('A' for Active; 'I' for Inactive)
REMARK    1  A    between atoms: C_1  and  C_2
REMARK    2  A    between atoms: C_2  and  C_3
REMARK    3  A    between atoms: C_4  and  C_13
REMARK    4  A    between atoms: C_5  and  O_12
REMARK    5  A    between atoms: N_6  and  C_8
REMARK    6  A    between atoms: C_8  and  C_9
REMARK    7  A    between atoms: C_8  and  C_10
REMARK    8  A    between atoms: C_8  and  C_11
REMARK    9  A    between atoms: C_14  and  N_30
REMARK   10  A    between atoms: N_17  and  C_20
REMARK   11  A    between atoms: C_23  and  O_28
REMARK   12  A    between atoms: C_25  and  O_26
REMARK   13  A    between atoms: O_26  and  C_27
REMARK   14  A    between atoms: O_28  and  C_29
REMARK   15  A    between atoms: N_30  and  C_31
REMARK   16  A    between atoms: N_30  and  C_33
REMARK   17  A    between atoms: C_31  and  C_32
REMARK   18  A    between atoms: C_33  and  C_34
REMARK                            x       y       z     vdW  Elec       q    Type
REMARK                         _______ _______ _______ _____ _____    ______ ____
ROOT
ATOM      1  C   UNL     1      -1.250  -0.400  -2.862  0.00  0.00    +0.078 C 
ATOM      2  C   UNL     1      -1.805   0.726  -3.409  0.00  0.00    +0.106 C 
ATOM      3  C   UNL     1      -3.256   0.473  -3.503  0.00  0.00    +0.272 C 
ATOM      4  O   UNL     1      -4.084   1.247  -3.941  0.00  0.00    -0.268 OA
ATOM      5  N   UNL     1      -3.508  -0.758  -3.025  0.00  0.00    -0.198 N 
ATOM      6  C   UNL     1      -2.365  -1.343  -2.629  0.00  0.00    +0.260 C 
ATOM      7  O   UNL     1      -2.264  -2.458  -2.156  0.00  0.00    -0.269 OA
ENDROOT
BRANCH   5   8
ATOM      8  C   UNL     1      -4.781  -1.349  -2.954  0.00  0.00    +0.086 A 
ATOM      9  C   UNL     1      -5.256  -2.104  -4.016  0.00  0.00    +0.031 A 
ATOM     10  C   UNL     1      -6.508  -2.684  -3.947  0.00  0.00    +0.048 A 
ATOM     11  C   UNL     1      -7.292  -2.514  -2.816  0.00  0.00    +0.124 A 
ATOM     12  C   UNL     1      -6.822  -1.760  -1.751  0.00  0.00    +0.093 A 
ATOM     13  C   UNL     1      -5.565  -1.181  -1.815  0.00  0.00    +0.145 A 
BRANCH  13  14
ATOM     14  O   UNL     1      -5.099  -0.446  -0.770  0.00  0.00    -0.493 OA
ATOM     15  C   UNL     1      -5.957  -0.317   0.365  0.00  0.00    +0.277 C 
ENDBRANCH  13  14
BRANCH  11  16
ATOM     16  O   UNL     1      -8.524  -3.086  -2.751  0.00  0.00    -0.495 OA
ATOM     17  C   UNL     1      -8.945  -3.849  -3.883  0.00  0.00    +0.277 C 
ENDBRANCH  11  16
ENDBRANCH   5   8
BRANCH   1  19
ATOM     18  C   UNL     1       1.125  -1.229  -3.429  0.00  0.00    +0.074 A 
ATOM     19  C   UNL     1       0.179  -0.630  -2.570  0.00  0.00    +0.073 A 
ATOM     20  C   UNL     1       0.845  -0.296  -1.399  0.00  0.00    +0.220 A 
ATOM     21  N   UNL     1       2.131  -0.678  -1.548  0.00  0.00    -0.227 N 
ATOM     22  N   UNL     1       2.276  -1.258  -2.813  0.00  0.00    -0.172 NA
BRANCH  21  23
ATOM     23  C   UNL     1       3.195  -0.516  -0.553  0.00  0.00    +0.059 C 
ATOM     24  C   UNL     1       2.818  -1.272   0.723  0.00  0.00    +0.036 C 
ATOM     25  C   UNL     1       4.504  -1.078  -1.111  0.00  0.00    +0.036 C 
ATOM     26  C   UNL     1       3.372   0.969  -0.233  0.00  0.00    +0.036 C 
ENDBRANCH  21  23
BRANCH  18  28
ATOM     27  C   UNL     1       0.564  -3.253  -4.748  0.00  0.00    +0.010 C 
ATOM     28  C   UNL     1       0.852  -1.752  -4.816  0.00  0.00    +0.054 C 
ENDBRANCH  18  28
BRANCH  20  29
ATOM     29  O   UNL     1       0.305   0.302  -0.309  0.00  0.00    -0.492 OA
ATOM     30  H   UNL     1       0.019  -0.316   0.378  0.00  0.00    +0.294 HD
ENDBRANCH  20  29
ENDBRANCH   1  19
BRANCH   2  31
ATOM     31  N   UNL     1      -1.135   1.879  -3.796  0.00  0.00    -0.326 N 
BRANCH  31  32
ATOM     32  C   UNL     1      -1.857   2.945  -4.495  0.00  0.00    +0.102 C 
ATOM     33  C   UNL     1      -2.428   3.929  -3.471  0.00  0.00    +0.024 C 
ENDBRANCH  31  32
BRANCH  31  34
ATOM     34  C   UNL     1       0.293   2.028  -3.508  0.00  0.00    +0.102 C 
ATOM     35  C   UNL     1       1.109   1.569  -4.718  0.00  0.00    +0.024 C 
ENDBRANCH  31  34
ENDBRANCH   2  31
TORSDOF 10
