REMARK  Name = ZINC09949814
REMARK  8 active torsions:
REMARK  status: ('A' for Active; 'I' for Inactive)
REMARK    1  A    between atoms: C_1  and  C_2
REMARK    2  A    between atoms: C_2  and  C_4
REMARK    3  A    between atoms: C_2  and  N_59
REMARK    4  A    between atoms: C_7  and  C_19
REMARK    5  A    between atoms: C_10  and  C_12
REMARK    6  A    between atoms: C_24  and  N_59
REMARK    7  A    between atoms: C_25  and  C_26
REMARK    8  A    between atoms: C_25  and  N_59
REMARK                            x       y       z     vdW  Elec       q    Type
REMARK                         _______ _______ _______ _____ _____    ______ ____
ROOT
ATOM      1  C   UNL     1       2.249   1.489  -1.012  0.00  0.00    +0.222 C 
ATOM      2  O   UNL     1       1.895   1.020  -2.073  0.00  0.00    -0.276 OA
ATOM      3  N   UNL     1       1.398   1.511   0.033  0.00  0.00    -0.183 N 
ATOM      4  C   UNL     1       0.018   1.001   0.023  0.00  0.00    +0.172 C 
ATOM      5  C   UNL     1      -0.480   1.278   1.456  0.00  0.00    +0.090 C 
ATOM      6  C   UNL     1       0.704   1.929   2.133  0.00  0.00    +0.069 C 
ATOM      7  N   UNL     1       1.681   2.021   1.299  0.00  0.00    -0.181 NA
ENDROOT
BRANCH   6   8
ATOM      8  C   UNL     1       0.736   2.391   3.534  0.00  0.00    -0.002 A 
ATOM      9  C   UNL     1      -0.392   2.244   4.346  0.00  0.00    +0.011 A 
ATOM     10  C   UNL     1      -0.354   2.672   5.656  0.00  0.00    +0.020 A 
ATOM     11  C   UNL     1       0.794   3.258   6.164  0.00  0.00    +0.041 A 
ATOM     12  C   UNL     1       1.913   3.411   5.362  0.00  0.00    +0.020 A 
ATOM     13  C   UNL     1       1.891   2.981   4.052  0.00  0.00    +0.011 A 
ATOM     14 CL   UNL     1       0.831   3.801   7.812  0.00  0.00    -0.084 Cl
ENDBRANCH   6   8
BRANCH   4  15
ATOM     15  C   UNL     1      -0.816   1.748  -0.985  0.00  0.00    +0.128 A 
ATOM     16  C   UNL     1      -1.786   1.218  -1.752  0.00  0.00    +0.046 A 
ATOM     17  C   UNL     1      -2.301   2.268  -2.546  0.00  0.00    +0.041 A 
ATOM     18  C   UNL     1      -1.616   3.378  -2.216  0.00  0.00    +0.195 A 
ATOM     19  O   UNL     1      -0.722   3.058  -1.266  0.00  0.00    -0.466 OA
ENDBRANCH   4  15
BRANCH   1  21
ATOM     20  C   UNL     1       3.580   3.577  -0.873  0.00  0.00    -0.004 C 
ATOM     21  C   UNL     1       3.641   2.048  -0.862  0.00  0.00    +0.018 C 
BRANCH  21  23
ATOM     22  C   UNL     1       5.904   1.771  -1.676  0.00  0.00    -0.095 C 
ATOM     23  N   UNL     1       4.474   1.555  -1.978  0.00  0.00    +0.390 N 
ATOM     24  H   UNL     1       4.307   0.549  -2.100  0.00  0.00    -0.081 HD
BRANCH  23  25
ATOM     25  C   UNL     1       4.110   2.256  -3.228  0.00  0.00    -0.003 C 
BRANCH  25  26
ATOM     26  C   UNL     1       4.810   1.586  -4.382  0.00  0.00    +0.094 A 
ATOM     27  N   UNL     1       4.591   2.065  -5.635  0.00  0.00    -0.312 N 
ATOM     28  H   UNL     1       3.995   2.820  -5.763  0.00  0.00    +0.170 HD
ATOM     29  C   UNL     1       5.199   1.502  -6.704  0.00  0.00    +0.259 A 
ATOM     30  O   UNL     1       5.015   1.923  -7.831  0.00  0.00    -0.267 OA
ATOM     31  C   UNL     1       6.087   0.357  -6.453  0.00  0.00    +0.065 A 
ATOM     32  C   UNL     1       6.757  -0.297  -7.485  0.00  0.00    +0.015 A 
ATOM     33  C   UNL     1       7.576  -1.365  -7.192  0.00  0.00    +0.001 A 
ATOM     34  C   UNL     1       7.739  -1.793  -5.881  0.00  0.00    +0.002 A 
ATOM     35  C   UNL     1       7.086  -1.160  -4.847  0.00  0.00    +0.028 A 
ATOM     36  C   UNL     1       6.250  -0.075  -5.118  0.00  0.00    +0.078 A 
ATOM     37  N   UNL     1       5.588   0.578  -4.130  0.00  0.00    -0.236 NA
ENDBRANCH  25  26
ENDBRANCH  23  25
ENDBRANCH  21  23
ENDBRANCH   1  21
TORSDOF 6
