REMARK  Name = ZINC20412410
REMARK  8 active torsions:
REMARK  status: ('A' for Active; 'I' for Inactive)
REMARK    1  A    between atoms: C_1  and  C_2
REMARK    2  A    between atoms: C_8  and  C_42
REMARK    3  A    between atoms: C_9  and  O_41
REMARK    4  A    between atoms: C_19  and  C_21
REMARK    5  A    between atoms: C_21  and  N_22
REMARK    6  A    between atoms: N_25  and  C_28
REMARK    7  A    between atoms: C_28  and  C_29
REMARK    8  A    between atoms: C_28  and  C_35
REMARK                            x       y       z     vdW  Elec       q    Type
REMARK                         _______ _______ _______ _____ _____    ______ ____
ROOT
ATOM      1  N   UNL     1      -2.592   3.808   1.969  0.00  0.00    +0.382 N 
ATOM      2  C   UNL     1      -3.236   2.682   2.661  0.00  0.00    -0.063 C 
ATOM      3  C   UNL     1      -3.924   3.193   3.929  0.00  0.00    +0.067 C 
ATOM      4  N   UNL     1      -4.911   4.220   3.568  0.00  0.00    -0.295 NA
ATOM      5  C   UNL     1      -4.268   5.345   2.876  0.00  0.00    +0.067 C 
ATOM      6  C   UNL     1      -3.579   4.835   1.608  0.00  0.00    -0.063 C 
ATOM      7  H   UNL     1      -1.867   4.262   2.661  0.00  0.00    -0.082 HD
ENDROOT
BRANCH   1   8
ATOM      8  C   UNL     1      -1.855   3.346   0.785  0.00  0.00    -0.064 C 
BRANCH   8  23
ATOM      9  C   UNL     1      -0.328   2.866   6.415  0.00  0.00    +0.008 C 
ATOM     10  C   UNL     1       1.006   3.064   5.690  0.00  0.00    -0.001 C 
ATOM     11  C   UNL     1       2.083   2.285   6.444  0.00  0.00    +0.008 C 
ATOM     12  C   UNL     1       3.433   2.539   5.766  0.00  0.00    +0.027 C 
ATOM     13  C   UNL     1       3.318   2.133   4.324  0.00  0.00    -0.027 C 
ATOM     14  C   UNL     1       2.198   2.175   3.667  0.00  0.00    -0.061 C 
ATOM     15  C   UNL     1       0.872   2.574   4.250  0.00  0.00    +0.018 C 
ATOM     16  C   UNL     1       0.272   3.687   3.394  0.00  0.00    +0.132 C 
ATOM     17  C   UNL     1       0.395   3.527   1.910  0.00  0.00    +0.071 C 
ATOM     18  C   UNL     1       1.753   3.030   1.390  0.00  0.00    +0.187 C 
ATOM     19  C   UNL     1       2.221   1.810   2.195  0.00  0.00    +0.076 C 
ATOM     20  O   UNL     1       1.429   2.527   0.047  0.00  0.00    -0.460 OA
ATOM     21  C   UNL     1       0.159   2.097   0.001  0.00  0.00    +0.309 C 
ATOM     22  O   UNL     1      -0.330   1.441  -0.893  0.00  0.00    -0.251 OA
ATOM     23  C   UNL     1      -0.599   2.584   1.229  0.00  0.00    +0.090 C 
ATOM     24  C   UNL     1      -0.062   1.363   4.263  0.00  0.00    +0.018 C 
BRANCH  16  25
ATOM     25  O   UNL     1      -1.115   3.834   3.723  0.00  0.00    -0.391 OA
ATOM     26  H   UNL     1      -1.725   4.591   3.208  0.00  0.00    +0.210 HD
ENDBRANCH  16  25
ENDBRANCH   8  23
ENDBRANCH   1   8
BRANCH   4  27
ATOM     27  C   UNL     1      -5.648   4.681   4.752  0.00  0.00    +0.117 C 
BRANCH  27  28
ATOM     28  C   UNL     1      -6.719   5.654   4.330  0.00  0.00    -0.026 A 
ATOM     29  C   UNL     1      -7.520   5.369   3.239  0.00  0.00    +0.005 A 
ATOM     30  C   UNL     1      -8.505   6.259   2.855  0.00  0.00    +0.000 A 
ATOM     31  C   UNL     1      -8.684   7.438   3.555  0.00  0.00    +0.000 A 
ATOM     32  C   UNL     1      -7.880   7.724   4.642  0.00  0.00    +0.000 A 
ATOM     33  C   UNL     1      -6.897   6.832   5.029  0.00  0.00    +0.005 A 
ENDBRANCH  27  28
BRANCH  27  34
ATOM     34  C   UNL     1      -6.284   3.501   5.440  0.00  0.00    -0.026 A 
ATOM     35  C   UNL     1      -6.861   2.493   4.690  0.00  0.00    +0.005 A 
ATOM     36  C   UNL     1      -7.441   1.408   5.321  0.00  0.00    +0.000 A 
ATOM     37  C   UNL     1      -7.451   1.335   6.702  0.00  0.00    +0.000 A 
ATOM     38  C   UNL     1      -6.878   2.346   7.451  0.00  0.00    +0.000 A 
ATOM     39  C   UNL     1      -6.295   3.429   6.820  0.00  0.00    +0.005 A 
ENDBRANCH  27  34
ENDBRANCH   4  27
TORSDOF 6
