REMARK  Name = ZINC67352526
REMARK  7 active torsions:
REMARK  status: ('A' for Active; 'I' for Inactive)
REMARK    1  A    between atoms: C_1  and  N_2
REMARK    2  A    between atoms: N_2  and  C_3
REMARK    3  A    between atoms: C_4  and  C_6
REMARK    4  A    between atoms: C_9  and  N_13
REMARK    5  A    between atoms: C_14  and  C_16
REMARK    6  A    between atoms: N_18  and  C_19
REMARK    7  A    between atoms: C_19  and  C_20
REMARK                            x       y       z     vdW  Elec       q    Type
REMARK                         _______ _______ _______ _____ _____    ______ ____
ROOT
ATOM      1  N   UNL     1       0.281  -6.523  -0.602  0.00  0.00    -0.278 N 
ATOM      2  C   UNL     1       0.347  -7.269  -1.723  0.00  0.00    +0.303 C 
ATOM      3  O   UNL     1       0.428  -6.729  -2.807  0.00  0.00    -0.265 OA
ATOM      4  H   UNL     1       0.303  -6.952   0.268  0.00  0.00    +0.155 HD
ENDROOT
BRANCH   1   8
ATOM      5  C   UNL     1      -0.017  -2.378  -0.874  0.00  0.00    +0.055 A 
ATOM      6  C   UNL     1      -0.482  -3.184  -1.917  0.00  0.00    +0.016 A 
ATOM      7  C   UNL     1      -0.381  -4.553  -1.824  0.00  0.00    +0.024 A 
ATOM      8  C   UNL     1       0.182  -5.137  -0.692  0.00  0.00    +0.035 A 
ATOM      9  C   UNL     1       0.645  -4.339   0.349  0.00  0.00    +0.044 A 
ATOM     10  C   UNL     1       0.553  -2.966   0.260  0.00  0.00    +0.055 A 
ATOM     11 CL   UNL     1       1.139  -1.970   1.555  0.00  0.00    -0.083 Cl
BRANCH   5  15
ATOM     12  C   UNL     1       0.393   1.201  -2.074  0.00  0.00    +0.132 C 
ATOM     13  N   UNL     1       0.406  -0.264  -2.028  0.00  0.00    -0.304 N 
ATOM     14  C   UNL     1       0.997  -1.026  -3.131  0.00  0.00    +0.132 C 
ATOM     15  C   UNL     1      -0.124  -0.910  -0.970  0.00  0.00    +0.248 C 
ATOM     16  O   UNL     1      -0.690  -0.282  -0.096  0.00  0.00    -0.270 OA
ENDBRANCH   5  15
ENDBRANCH   1   8
BRANCH   2  17
ATOM     17  C   UNL     1       0.320  -8.759  -1.631  0.00  0.00    +0.300 C 
ATOM     18  O   UNL     1       0.239  -9.299  -0.547  0.00  0.00    -0.265 OA
ATOM     19  N   UNL     1       0.386  -9.505  -2.752  0.00  0.00    -0.303 N 
ATOM     20  H   UNL     1       0.451  -9.073  -3.619  0.00  0.00    +0.149 HD
BRANCH  19  21
ATOM     21  C   UNL     1       0.360 -10.967  -2.662  0.00  0.00    +0.140 C 
BRANCH  21  22
ATOM     22  C   UNL     1       0.446 -11.556  -4.046  0.00  0.00    -0.030 A 
ATOM     23  C   UNL     1      -0.708 -11.806  -4.765  0.00  0.00    +0.005 A 
ATOM     24  C   UNL     1      -0.627 -12.347  -6.033  0.00  0.00    +0.004 A 
ATOM     25  C   UNL     1       0.607 -12.640  -6.588  0.00  0.00    -0.044 A 
ATOM     26  C   UNL     1       1.761 -12.391  -5.870  0.00  0.00    -0.044 A 
ATOM     27  C   UNL     1       1.678 -11.843  -4.600  0.00  0.00    +0.009 A 
ATOM     28  C   UNL     1       2.970 -12.795  -6.687  0.00  0.00    +0.036 C 
ATOM     29  C   UNL     1       2.418 -13.717  -7.795  0.00  0.00    +0.009 C 
ATOM     30  C   UNL     1       0.961 -13.229  -7.937  0.00  0.00    +0.036 C 
ENDBRANCH  21  22
ENDBRANCH  19  21
ENDBRANCH   2  17
TORSDOF 5
