REMARK  Name = ZINC13461955
REMARK  10 active torsions:
REMARK  status: ('A' for Active; 'I' for Inactive)
REMARK    1  A    between atoms: C_1  and  N_2
REMARK    2  A    between atoms: N_2  and  C_3
REMARK    3  A    between atoms: N_2  and  S_4
REMARK    4  A    between atoms: S_4  and  C_7
REMARK    5  A    between atoms: C_10  and  C_12
REMARK    6  A    between atoms: C_12  and  N_13
REMARK    7  A    between atoms: N_13  and  C_14
REMARK    8  A    between atoms: C_17  and  S_22
REMARK    9  A    between atoms: C_19  and  C_20
REMARK   10  A    between atoms: S_22  and  N_25
REMARK                            x       y       z     vdW  Elec       q    Type
REMARK                         _______ _______ _______ _____ _____    ______ ____
ROOT
ATOM      1  C   UNL     1      -1.313   1.929   0.041  0.00  0.00    +0.042 A 
ATOM      2  C   UNL     1      -0.208   1.088   0.002  0.00  0.00    +0.025 A 
ATOM      3  C   UNL     1       1.065   1.620  -0.029  0.00  0.00    +0.030 A 
ATOM      4  C   UNL     1       1.252   2.994  -0.017  0.00  0.00    +0.106 A 
ATOM      5  C   UNL     1       0.169   3.843   0.027  0.00  0.00    +0.045 A 
ATOM      6  C   UNL     1      -1.127   3.320   0.060  0.00  0.00    +0.086 A 
ENDROOT
BRANCH   6   7
ATOM      7  C   UNL     1      -2.290   4.223   0.107  0.00  0.00    +0.388 C 
ATOM      8  O   UNL     1      -3.414   3.770   0.028  0.00  0.00    -0.241 OA
ATOM      9  O   UNL     1      -2.106   5.552   0.237  0.00  0.00    -0.241 OA
ENDBRANCH   6   7
BRANCH   4  10
ATOM     10  S   UNL     1       2.884   3.656  -0.057  0.00  0.00    +0.061 S 
ATOM     11  O   UNL     1       2.810   4.955   0.513  0.00  0.00    -0.153 OA
ATOM     12  O   UNL     1       3.744   2.647   0.455  0.00  0.00    -0.153 OA
BRANCH  10  13
ATOM     13  N   UNL     1       3.291   3.860  -1.649  0.00  0.00    -0.172 NA
ATOM     14  C   UNL     1       3.955   2.787  -2.405  0.00  0.00    +0.137 C 
ATOM     15  C   UNL     1       3.179   2.572  -3.715  0.00  0.00    +0.177 C 
ATOM     16  O   UNL     1       3.036   3.826  -4.386  0.00  0.00    -0.377 OA
ATOM     17  C   UNL     1       2.278   4.796  -3.659  0.00  0.00    +0.177 C 
ATOM     18  C   UNL     1       3.003   5.123  -2.348  0.00  0.00    +0.137 C 
ENDBRANCH  10  13
ENDBRANCH   4  10
BRANCH   1  19
ATOM     19  N   UNL     1      -2.595   1.396   0.067  0.00  0.00    -0.339 N 
ATOM     20  H   UNL     1      -3.365   1.983   0.011  0.00  0.00    +0.146 HD
BRANCH  19  21
ATOM     21  C   UNL     1      -2.784  -0.052   0.179  0.00  0.00    +0.144 C 
BRANCH  21  25
ATOM     22  C   UNL     1      -6.860  -0.888   0.664  0.00  0.00    +0.143 A 
ATOM     23  C   UNL     1      -6.413  -0.896  -0.616  0.00  0.00    +0.037 A 
ATOM     24  C   UNL     1      -5.079  -0.630  -0.861  0.00  0.00    +0.015 A 
ATOM     25  C   UNL     1      -4.258  -0.368   0.185  0.00  0.00    +0.009 A 
ATOM     26  S   UNL     1      -5.373  -0.502   1.573  0.00  0.00    -0.072 S 
BRANCH  22  27
ATOM     27  S   UNL     1      -8.486  -1.188   1.273  0.00  0.00    +0.067 S 
ATOM     28  O   UNL     1      -8.574  -0.539   2.534  0.00  0.00    -0.152 OA
ATOM     29  O   UNL     1      -9.379  -0.902   0.205  0.00  0.00    -0.152 OA
BRANCH  27  31
ATOM     30  C   UNL     1      -8.250  -3.347   2.884  0.00  0.00    +0.131 C 
ATOM     31  N   UNL     1      -8.607  -2.813   1.567  0.00  0.00    -0.182 NA
ATOM     32  C   UNL     1      -9.070  -3.717   0.511  0.00  0.00    +0.131 C 
ENDBRANCH  27  31
ENDBRANCH  22  27
ENDBRANCH  21  25
ENDBRANCH  19  21
ENDBRANCH   1  19
TORSDOF 8
