REMARK  Name = ZINC39757729
REMARK  12 active torsions:
REMARK  status: ('A' for Active; 'I' for Inactive)
REMARK    1  A    between atoms: C_1  and  C_2
REMARK    2  A    between atoms: C_5  and  C_33
REMARK    3  A    between atoms: C_6  and  N_8
REMARK    4  A    between atoms: C_9  and  C_11
REMARK    5  A    between atoms: C_11  and  C_12
REMARK    6  A    between atoms: C_15  and  S_20
REMARK    7  A    between atoms: N_16  and  C_17
REMARK    8  A    between atoms: C_17  and  C_18
REMARK    9  A    between atoms: S_20  and  C_21
REMARK   10  A    between atoms: C_21  and  C_22
REMARK   11  A    between atoms: C_22  and  C_24
REMARK   12  A    between atoms: C_27  and  N_30
REMARK                            x       y       z     vdW  Elec       q    Type
REMARK                         _______ _______ _______ _____ _____    ______ ____
ROOT
ATOM      1  C   UNL     1       0.372  -1.932   6.005  0.00  0.00    +0.143 A 
ATOM      2  N   UNL     1       1.464  -1.416   6.494  0.00  0.00    -0.133 NA
ATOM      3  N   UNL     1       1.181  -0.629   7.470  0.00  0.00    -0.122 NA
ATOM      4  C   UNL     1      -0.118  -0.600   7.658  0.00  0.00    +0.192 A 
ATOM      5  N   UNL     1      -0.675  -1.427   6.724  0.00  0.00    -0.302 N 
ENDROOT
BRANCH   1   6
ATOM      6  C   UNL     1       0.280  -2.900   4.854  0.00  0.00    +0.172 C 
BRANCH   6   8
ATOM      7  N   UNL     1       0.052  -2.797   2.393  0.00  0.00    -0.285 N 
ATOM      8  C   UNL     1       0.150  -2.135   3.562  0.00  0.00    +0.225 C 
ATOM      9  O   UNL     1       0.134  -0.922   3.575  0.00  0.00    -0.275 OA
ATOM     10  H   UNL     1      -0.016  -3.765   2.388  0.00  0.00    +0.155 HD
BRANCH   7  16
ATOM     11  C   UNL     1       1.264   1.227  -0.158  0.00  0.00    +0.044 C 
ATOM     12  C   UNL     1       0.628  -0.137  -0.079  0.00  0.00    -0.049 A 
ATOM     13  C   UNL     1       0.039  -0.690  -1.201  0.00  0.00    +0.004 A 
ATOM     14  C   UNL     1      -0.546  -1.941  -1.133  0.00  0.00    +0.005 A 
ATOM     15  C   UNL     1      -0.543  -2.643   0.057  0.00  0.00    -0.029 A 
ATOM     16  C   UNL     1       0.048  -2.090   1.185  0.00  0.00    +0.037 A 
ATOM     17  C   UNL     1       0.639  -0.835   1.112  0.00  0.00    +0.027 A 
ATOM     18  C   UNL     1      -1.181  -4.006   0.131  0.00  0.00    +0.045 C 
ENDBRANCH   7  16
ENDBRANCH   6   8
ENDBRANCH   1   6
BRANCH   5  19
ATOM     19  C   UNL     1      -2.099  -1.715   6.536  0.00  0.00    +0.152 C 
BRANCH  19  20
ATOM     20  C   UNL     1      -2.487  -2.902   7.379  0.00  0.00    -0.013 C 
ATOM     21  C   UNL     1      -3.476  -2.803   8.233  0.00  0.00    +0.005 C 
ENDBRANCH  19  20
ENDBRANCH   5  19
BRANCH   4  22
ATOM     22  S   UNL     1      -0.980   0.334   8.878  0.00  0.00    -0.078 S 
BRANCH  22  23
ATOM     23  C   UNL     1       0.335   1.208   9.771  0.00  0.00    +0.157 C 
BRANCH  23  24
ATOM     24  C   UNL     1      -0.274   2.056  10.858  0.00  0.00    +0.173 C 
ATOM     25  O   UNL     1      -1.476   2.069  11.015  0.00  0.00    -0.291 OA
BRANCH  24  26
ATOM     26  C   UNL     1       0.590   2.868  11.729  0.00  0.00    +0.018 A 
ATOM     27  C   UNL     1       1.977   2.861  11.547  0.00  0.00    +0.013 A 
ATOM     28  C   UNL     1       2.780   3.624  12.368  0.00  0.00    +0.033 A 
ATOM     29  C   UNL     1       2.217   4.396  13.369  0.00  0.00    +0.126 A 
ATOM     30  C   UNL     1       0.846   4.409  13.555  0.00  0.00    +0.033 A 
ATOM     31  C   UNL     1       0.029   3.656  12.739  0.00  0.00    +0.013 A 
BRANCH  29  32
ATOM     32  N   UNL     1       3.087   5.213  14.246  0.00  0.00    +0.056 N 
ATOM     33  O   UNL     1       4.285   5.203  14.086  0.00  0.00    -0.126 OA
ATOM     34  O   UNL     1       2.599   5.888  15.121  0.00  0.00    -0.126 OA
ENDBRANCH  29  32
ENDBRANCH  24  26
ENDBRANCH  23  24
ENDBRANCH  22  23
ENDBRANCH   4  22
TORSDOF 10
