REMARK  Name = ZINC36557877
REMARK  9 active torsions:
REMARK  status: ('A' for Active; 'I' for Inactive)
REMARK    1  A    between atoms: C_1  and  O_2
REMARK    2  A    between atoms: O_2  and  C_3
REMARK    3  A    between atoms: C_6  and  C_11
REMARK    4  A    between atoms: C_8  and  O_9
REMARK    5  A    between atoms: O_9  and  C_10
REMARK    6  A    between atoms: C_24  and  C_27
REMARK    7  A    between atoms: N_29  and  C_30
REMARK    8  A    between atoms: C_33  and  N_36
REMARK    9  A    between atoms: N_36  and  C_37
REMARK                            x       y       z     vdW  Elec       q    Type
REMARK                         _______ _______ _______ _____ _____    ______ ____
ROOT
ATOM      1  C   UNL     1       2.472  -2.196  -4.816  0.00  0.00    +0.105 C 
ATOM      2  C   UNL     1       1.561  -2.259  -6.029  0.00  0.00    +0.029 C 
ATOM      3  C   UNL     1       0.173  -2.883  -5.833  0.00  0.00    +0.033 C 
ATOM      4  C   UNL     1      -0.650  -2.139  -6.887  0.00  0.00    -0.030 C 
ATOM      5  C   UNL     1      -0.102  -0.957  -7.140  0.00  0.00    -0.023 C 
ATOM      6  C   UNL     1       1.116  -0.788  -6.290  0.00  0.00    +0.049 C 
ATOM      7  C   UNL     1       2.306  -0.027  -6.728  0.00  0.00    -0.019 A 
ATOM      8  C   UNL     1       2.235   0.985  -7.660  0.00  0.00    +0.006 A 
ATOM      9  C   UNL     1       3.372   1.681  -8.035  0.00  0.00    +0.001 A 
ATOM     10  C   UNL     1       4.592   1.370  -7.475  0.00  0.00    +0.015 A 
ATOM     11  C   UNL     1       4.686   0.346  -6.531  0.00  0.00    +0.058 A 
ATOM     12  C   UNL     1       3.537  -0.370  -6.157  0.00  0.00    +0.044 A 
ATOM     13  N   UNL     1       3.655  -1.417  -5.243  0.00  0.00    -0.336 N 
ATOM     14  H   UNL     1       4.527  -1.640  -4.880  0.00  0.00    +0.147 HD
ENDROOT
BRANCH   1  18
ATOM     15  C   UNL     1       0.492  -0.215  -1.584  0.00  0.00    +0.162 A 
ATOM     16  C   UNL     1       1.267   0.510  -2.475  0.00  0.00    +0.050 A 
ATOM     17  C   UNL     1       1.905  -0.133  -3.518  0.00  0.00    +0.009 A 
ATOM     18  C   UNL     1       1.774  -1.500  -3.676  0.00  0.00    -0.023 A 
ATOM     19  C   UNL     1       1.002  -2.230  -2.791  0.00  0.00    +0.055 A 
ATOM     20  C   UNL     1       0.364  -1.592  -1.740  0.00  0.00    +0.162 A 
BRANCH  15  22
ATOM     21  C   UNL     1       0.040   1.830  -0.458  0.00  0.00    +0.277 C 
ATOM     22  O   UNL     1      -0.136   0.415  -0.556  0.00  0.00    -0.491 OA
ENDBRANCH  15  22
BRANCH  20  23
ATOM     23  O   UNL     1      -0.390  -2.310  -0.864  0.00  0.00    -0.491 OA
ATOM     24  C   UNL     1      -0.476  -3.719  -1.086  0.00  0.00    +0.277 C 
ENDBRANCH  20  23
ENDBRANCH   1  18
BRANCH  11  25
ATOM     25  C   UNL     1       5.989   0.017  -5.927  0.00  0.00    +0.250 C 
ATOM     26  O   UNL     1       6.088  -0.933  -5.173  0.00  0.00    -0.270 OA
ATOM     27  N   UNL     1       7.072   0.768  -6.209  0.00  0.00    -0.281 N 
ATOM     28  H   UNL     1       6.980   1.565  -6.755  0.00  0.00    +0.155 HD
BRANCH  27  29
ATOM     29  C   UNL     1       8.329   0.398  -5.715  0.00  0.00    +0.034 A 
ATOM     30  C   UNL     1       9.270   1.374  -5.410  0.00  0.00    +0.025 A 
ATOM     31  C   UNL     1      10.509   1.010  -4.923  0.00  0.00    +0.025 A 
ATOM     32  C   UNL     1      10.815  -0.333  -4.737  0.00  0.00    +0.031 A 
ATOM     33  C   UNL     1       9.874  -1.308  -5.041  0.00  0.00    +0.025 A 
ATOM     34  C   UNL     1       8.633  -0.943  -5.523  0.00  0.00    +0.025 A 
BRANCH  32  35
ATOM     35  N   UNL     1      12.071  -0.702  -4.244  0.00  0.00    -0.314 N 
ATOM     36  H   UNL     1      12.543  -0.116  -3.631  0.00  0.00    +0.152 HD
BRANCH  35  37
ATOM     37  C   UNL     1      12.646  -1.914  -4.635  0.00  0.00    +0.031 A 
ATOM     38  C   UNL     1      12.389  -2.432  -5.898  0.00  0.00    +0.023 A 
ATOM     39  C   UNL     1      12.959  -3.630  -6.281  0.00  0.00    +0.002 A 
ATOM     40  C   UNL     1      13.785  -4.314  -5.408  0.00  0.00    +0.000 A 
ATOM     41  C   UNL     1      14.043  -3.802  -4.150  0.00  0.00    +0.002 A 
ATOM     42  C   UNL     1      13.482  -2.601  -3.763  0.00  0.00    +0.023 A 
ENDBRANCH  35  37
ENDBRANCH  32  35
ENDBRANCH  27  29
ENDBRANCH  11  25
TORSDOF 7
