REMARK  Name = ZINC57709837
REMARK  4 active torsions:
REMARK  status: ('A' for Active; 'I' for Inactive)
REMARK    1  A    between atoms: C_6  and  C_7
REMARK    2  A    between atoms: C_12  and  N_16
REMARK    3  A    between atoms: N_16  and  C_17
REMARK    4  A    between atoms: C_17  and  C_18
REMARK                            x       y       z     vdW  Elec       q    Type
REMARK                         _______ _______ _______ _____ _____    ______ ____
ROOT
ATOM      1  C   UNL     1      -1.270  -0.758   0.011  0.00  0.00    +0.139 A 
ATOM      2  N   UNL     1      -1.371  -2.065   0.010  0.00  0.00    -0.228 NA
ATOM      3  C   UNL     1      -2.680  -2.421   0.019  0.00  0.00    +0.090 A 
ATOM      4  C   UNL     1      -3.338  -3.655   0.023  0.00  0.00    +0.032 A 
ATOM      5  C   UNL     1      -4.702  -3.701   0.033  0.00  0.00    +0.025 A 
ATOM      6  C   UNL     1      -5.452  -2.525   0.039  0.00  0.00    +0.029 A 
ATOM      7  C   UNL     1      -4.819  -1.293   0.035  0.00  0.00    +0.050 A 
ATOM      8  C   UNL     1      -3.433  -1.233   0.026  0.00  0.00    +0.068 A 
ATOM      9  N   UNL     1      -2.519  -0.197   0.026  0.00  0.00    -0.338 N 
ATOM     10  H   UNL     1      -2.724   0.751   0.033  0.00  0.00    +0.167 HD
ENDROOT
BRANCH   1  16
ATOM     11  C   UNL     1      -0.017   1.396   0.010  0.00  0.00    +0.013 A 
ATOM     12  C   UNL     1       1.151   2.104   0.002  0.00  0.00    +0.028 A 
ATOM     13  C   UNL     1       2.370   1.439  -0.013  0.00  0.00    +0.066 A 
ATOM     14  C   UNL     1       2.408   0.033  -0.021  0.00  0.00    +0.089 A 
ATOM     15  C   UNL     1       1.213  -0.687  -0.013  0.00  0.00    +0.041 A 
ATOM     16  C   UNL     1       0.002  -0.004   0.002  0.00  0.00    +0.019 A 
ATOM     17  N   UNL     1       3.717  -0.329  -0.036  0.00  0.00    -0.236 NA
ATOM     18  C   UNL     1       4.464   0.737  -0.038  0.00  0.00    +0.197 A 
ATOM     19  N   UNL     1       3.686   1.853  -0.024  0.00  0.00    -0.344 N 
ATOM     20  H   UNL     1       3.999   2.772  -0.022  0.00  0.00    +0.167 HD
ENDBRANCH   1  16
BRANCH   6  21
ATOM     21  N   UNL     1      -6.848  -2.591   0.048  0.00  0.00    -0.339 N 
ATOM     22  H   UNL     1      -7.372  -1.774   0.052  0.00  0.00    +0.146 HD
BRANCH  21  23
ATOM     23  C   UNL     1      -7.521  -3.892   0.051  0.00  0.00    +0.142 C 
BRANCH  23  24
ATOM     24  C   UNL     1      -9.013  -3.686   0.061  0.00  0.00    +0.034 A 
ATOM     25  C   UNL     1      -9.706  -3.700  -1.107  0.00  0.00    +0.020 A 
ATOM     26  C   UNL     1     -11.153  -3.497  -1.064  0.00  0.00    +0.003 A 
ATOM     27  C   UNL     1     -11.918  -3.500  -2.237  0.00  0.00    +0.059 A 
ATOM     28  C   UNL     1     -13.279  -3.305  -2.166  0.00  0.00    +0.167 A 
ATOM     29  C   UNL     1     -13.899  -3.105  -0.926  0.00  0.00    +0.168 A 
ATOM     30  C   UNL     1     -13.152  -3.101   0.238  0.00  0.00    +0.075 A 
ATOM     31  C   UNL     1     -11.778  -3.296   0.182  0.00  0.00    +0.053 A 
ATOM     32  N   UNL     1     -11.016  -3.293   1.333  0.00  0.00    -0.322 N 
ATOM     33  H   UNL     1     -11.447  -3.155   2.191  0.00  0.00    +0.169 HD
ATOM     34  C   UNL     1      -9.686  -3.486   1.283  0.00  0.00    +0.254 A 
ATOM     35  O   UNL     1      -9.046  -3.481   2.320  0.00  0.00    -0.268 OA
ATOM     36  O   UNL     1     -15.238  -2.939  -1.133  0.00  0.00    -0.453 OA
ATOM     37  C   UNL     1     -15.376  -2.629  -2.532  0.00  0.00    +0.466 C 
ATOM     38  O   UNL     1     -14.235  -3.262  -3.140  0.00  0.00    -0.453 OA
ENDBRANCH  23  24
ENDBRANCH  21  23
ENDBRANCH   6  21
TORSDOF 4
