REMARK  Name = ZINC02864435
REMARK  7 active torsions:
REMARK  status: ('A' for Active; 'I' for Inactive)
REMARK    1  A    between atoms: C_1  and  C_2
REMARK    2  A    between atoms: C_2  and  C_4
REMARK    3  A    between atoms: C_2  and  N_10
REMARK    4  A    between atoms: C_11  and  C_13
REMARK    5  A    between atoms: C_13  and  S_14
REMARK    6  A    between atoms: S_14  and  C_15
REMARK    7  A    between atoms: N_25  and  C_26
REMARK                            x       y       z     vdW  Elec       q    Type
REMARK                         _______ _______ _______ _____ _____    ______ ____
ROOT
ATOM      1  C   UNL     1       1.139  -0.590   0.487  0.00  0.00    +0.177 A 
ATOM      2  N   UNL     1       2.300   0.015   0.511  0.00  0.00    -0.223 NA
ATOM      3  C   UNL     1       2.449   1.279   0.049  0.00  0.00    +0.079 A 
ATOM      4  C   UNL     1       3.688   1.927   0.073  0.00  0.00    +0.028 A 
ATOM      5  C   UNL     1       3.793   3.203  -0.404  0.00  0.00    +0.002 A 
ATOM      6  C   UNL     1       2.686   3.869  -0.914  0.00  0.00    +0.001 A 
ATOM      7  C   UNL     1       1.461   3.261  -0.951  0.00  0.00    +0.015 A 
ATOM      8  C   UNL     1       1.324   1.960  -0.470  0.00  0.00    +0.065 A 
ATOM      9  C   UNL     1       0.034   1.258  -0.485  0.00  0.00    +0.267 A 
ATOM     10  O   UNL     1      -0.969   1.791  -0.924  0.00  0.00    -0.267 OA
ATOM     11  N   UNL     1       0.002  -0.004   0.002  0.00  0.00    -0.255 N 
ENDROOT
BRANCH  11  12
ATOM     12  C   UNL     1      -1.205  -0.716   0.010  0.00  0.00    +0.052 A 
ATOM     13  C   UNL     1      -1.559  -1.496  -1.083  0.00  0.00    +0.026 A 
ATOM     14  C   UNL     1      -2.747  -2.201  -1.069  0.00  0.00    +0.002 A 
ATOM     15  C   UNL     1      -3.588  -2.121   0.025  0.00  0.00    +0.000 A 
ATOM     16  C   UNL     1      -3.240  -1.340   1.112  0.00  0.00    +0.002 A 
ATOM     17  C   UNL     1      -2.051  -0.637   1.107  0.00  0.00    +0.026 A 
ENDBRANCH  11  12
BRANCH   1  18
ATOM     18  S   UNL     1       1.036  -2.236   1.108  0.00  0.00    -0.078 S 
BRANCH  18  19
ATOM     19  C   UNL     1       2.759  -2.495   1.598  0.00  0.00    +0.173 C 
BRANCH  19  21
ATOM     20  N   UNL     1       4.120  -4.296   2.609  0.00  0.00    -0.308 N 
ATOM     21  C   UNL     1       2.914  -3.879   2.174  0.00  0.00    +0.224 C 
ATOM     22  O   UNL     1       1.955  -4.617   2.247  0.00  0.00    -0.275 OA
ATOM     23  H   UNL     1       4.888  -3.706   2.550  0.00  0.00    +0.149 HD
BRANCH  20  25
ATOM     24  C   UNL     1       3.907  -5.618   4.655  0.00  0.00    +0.033 C 
ATOM     25  C   UNL     1       4.271  -5.641   3.170  0.00  0.00    +0.100 C 
BRANCH  25  26
ATOM     26  C   UNL     1       5.700  -6.095   3.010  0.00  0.00    -0.027 A 
ATOM     27  C   UNL     1       6.735  -5.200   3.209  0.00  0.00    +0.005 A 
ATOM     28  C   UNL     1       8.045  -5.617   3.066  0.00  0.00    +0.000 A 
ATOM     29  C   UNL     1       8.320  -6.926   2.715  0.00  0.00    +0.000 A 
ATOM     30  C   UNL     1       7.284  -7.819   2.511  0.00  0.00    +0.000 A 
ATOM     31  C   UNL     1       5.974  -7.403   2.658  0.00  0.00    +0.005 A 
ENDBRANCH  25  26
ENDBRANCH  20  25
ENDBRANCH  19  21
ENDBRANCH  18  19
ENDBRANCH   1  18
TORSDOF 6
