REMARK  Name = ZINC02633767
REMARK  7 active torsions:
REMARK  status: ('A' for Active; 'I' for Inactive)
REMARK    1  A    between atoms: C_4  and  O_31
REMARK    2  A    between atoms: C_5  and  C_7
REMARK    3  A    between atoms: C_7  and  O_9
REMARK    4  A    between atoms: O_9  and  C_10
REMARK    5  A    between atoms: C_10  and  C_11
REMARK    6  A    between atoms: C_14  and  C_26
REMARK    7  A    between atoms: C_17  and  C_19
REMARK                            x       y       z     vdW  Elec       q    Type
REMARK                         _______ _______ _______ _____ _____    ______ ____
ROOT
ATOM      1  C   UNL     1      -1.184  -4.881  -0.013  0.00  0.00    +0.270 C 
ATOM      2  O   UNL     1      -2.159  -4.160   0.001  0.00  0.00    -0.270 OA
ATOM      3  N   UNL     1      -1.335  -6.220  -0.019  0.00  0.00    -0.205 N 
ATOM      4  C   UNL     1      -2.603  -6.968  -0.016  0.00  0.00    +0.187 C 
ATOM      5  C   UNL     1      -2.192  -8.423  -0.026  0.00  0.00    +0.030 C 
ATOM      6  C   UNL     1      -0.862  -8.460  -0.034  0.00  0.00    +0.050 C 
ATOM      7  N   UNL     1      -0.317  -7.184  -0.035  0.00  0.00    -0.261 N 
ATOM      8  H   UNL     1       0.632  -6.986  -0.044  0.00  0.00    +0.170 HD
ENDROOT
BRANCH   6   9
ATOM      9  C   UNL     1      -0.063  -9.707  -0.045  0.00  0.00    -0.003 A 
ATOM     10  C   UNL     1      -0.702 -10.947  -0.054  0.00  0.00    +0.011 A 
ATOM     11  C   UNL     1       0.047 -12.106  -0.064  0.00  0.00    +0.020 A 
ATOM     12  C   UNL     1       1.430 -12.039  -0.066  0.00  0.00    +0.041 A 
ATOM     13  C   UNL     1       2.069 -10.811  -0.057  0.00  0.00    +0.020 A 
ATOM     14  C   UNL     1       1.330  -9.646  -0.052  0.00  0.00    +0.011 A 
ATOM     15 CL   UNL     1       2.366 -13.501  -0.079  0.00  0.00    -0.084 Cl
ENDBRANCH   6   9
BRANCH   4  16
ATOM     16  C   UNL     1      -3.409  -6.639  -1.246  0.00  0.00    +0.131 A 
ATOM     17  C   UNL     1      -4.741  -6.455  -1.288  0.00  0.00    +0.047 A 
ATOM     18  C   UNL     1      -5.073  -6.168  -2.632  0.00  0.00    +0.041 A 
ATOM     19  C   UNL     1      -3.924  -6.193  -3.331  0.00  0.00    +0.195 A 
ATOM     20  O   UNL     1      -2.918  -6.473  -2.485  0.00  0.00    -0.466 OA
ENDBRANCH   4  16
BRANCH   1  21
ATOM     21  C   UNL     1       0.198  -4.279  -0.023  0.00  0.00    +0.329 C 
BRANCH  21  22
ATOM     22  O   UNL     1       0.097  -2.853  -0.014  0.00  0.00    -0.452 OA
BRANCH  22  23
ATOM     23  C   UNL     1       1.251  -2.158  -0.022  0.00  0.00    +0.343 C 
ATOM     24  O   UNL     1       2.314  -2.746  -0.036  0.00  0.00    -0.245 OA
BRANCH  23  29
ATOM     25  C   UNL     1      -0.017   1.373   0.010  0.00  0.00    +0.001 A 
ATOM     26  C   UNL     1       1.170   2.089   0.002  0.00  0.00    +0.004 A 
ATOM     27  C   UNL     1       2.383   1.430  -0.013  0.00  0.00    +0.046 A 
ATOM     28  C   UNL     1       2.421   0.043  -0.021  0.00  0.00    +0.131 A 
ATOM     29  C   UNL     1       1.223  -0.684  -0.013  0.00  0.00    +0.100 A 
ATOM     30  C   UNL     1       0.002  -0.004   0.002  0.00  0.00    +0.018 A 
BRANCH  28  31
ATOM     31  O   UNL     1       3.612  -0.605  -0.037  0.00  0.00    -0.506 OA
ATOM     32  H   UNL     1       3.967  -0.798   0.842  0.00  0.00    +0.292 HD
ENDBRANCH  28  31
ENDBRANCH  23  29
ENDBRANCH  22  23
ENDBRANCH  21  22
ENDBRANCH   1  21
TORSDOF 7
