REMARK  Name = ZINC03846570
REMARK  4 active torsions:
REMARK  status: ('A' for Active; 'I' for Inactive)
REMARK    1  A    between atoms: C_1  and  N_2
REMARK    2  A    between atoms: C_9  and  O_10
REMARK    3  A    between atoms: C_11  and  C_12
REMARK    4  A    between atoms: C_14  and  C_21
REMARK                            x       y       z     vdW  Elec       q    Type
REMARK                         _______ _______ _______ _____ _____    ______ ____
ROOT
ATOM      1  C   UNL     1       2.570  -2.603  -0.126  0.00  0.00    +0.049 C 
ATOM      2  C   UNL     1       3.704  -1.896  -0.176  0.00  0.00    +0.022 C 
ATOM      3  C   UNL     1       5.020  -2.617  -0.165  0.00  0.00    +0.127 C 
ATOM      4  N   UNL     1       5.187  -3.384   1.053  0.00  0.00    -0.228 NA
ATOM      5  N   UNL     1       4.527  -4.540   1.131  0.00  0.00    -0.234 N 
ATOM      6  C   UNL     1       3.319  -4.782   0.632  0.00  0.00    +0.318 C 
ATOM      7  O   UNL     1       2.890  -5.904   0.820  0.00  0.00    -0.251 OA
ATOM      8  N   UNL     1       2.521  -3.975  -0.033  0.00  0.00    -0.268 N 
ATOM      9  H   UNL     1       6.164  -3.510   1.270  0.00  0.00    +0.145 HD
ATOM     10  H   UNL     1       4.968  -5.270   1.593  0.00  0.00    +0.171 HD
ATOM     11  H   UNL     1       1.805  -4.405  -0.525  0.00  0.00    +0.156 HD
ENDROOT
BRANCH   1  21
ATOM     12  C   UNL     1      -1.710  -1.466   2.036  0.00  0.00    +0.152 C 
ATOM     13  N   UNL     1      -0.798  -1.315   0.899  0.00  0.00    -0.310 N 
ATOM     14  C   UNL     1      -1.161  -0.500  -0.153  0.00  0.00    +0.055 A 
ATOM     15  C   UNL     1      -2.378   0.175  -0.143  0.00  0.00    +0.026 A 
ATOM     16  C   UNL     1      -2.721   0.984  -1.205  0.00  0.00    +0.002 A 
ATOM     17  C   UNL     1      -1.865   1.134  -2.287  0.00  0.00    +0.001 A 
ATOM     18  C   UNL     1      -0.665   0.481  -2.318  0.00  0.00    +0.013 A 
ATOM     19  C   UNL     1      -0.297  -0.345  -1.252  0.00  0.00    +0.041 A 
ATOM     20  C   UNL     1       0.985  -1.059  -1.256  0.00  0.00    +0.140 A 
ATOM     21  C   UNL     1       1.291  -1.864  -0.166  0.00  0.00    +0.102 A 
ATOM     22  C   UNL     1       0.375  -1.969   0.908  0.00  0.00    +0.264 A 
ATOM     23  O   UNL     1       0.656  -2.674   1.862  0.00  0.00    -0.267 OA
BRANCH  20  24
ATOM     24  O   UNL     1       1.845  -0.936  -2.293  0.00  0.00    -0.505 OA
ATOM     25  H   UNL     1       1.532  -0.351  -2.997  0.00  0.00    +0.292 HD
ENDBRANCH  20  24
ENDBRANCH   1  21
BRANCH   3  26
ATOM     26  C   UNL     1       5.083  -3.549  -1.347  0.00  0.00    -0.021 A 
ATOM     27  C   UNL     1       4.348  -3.271  -2.485  0.00  0.00    +0.009 A 
ATOM     28  C   UNL     1       4.403  -4.122  -3.572  0.00  0.00    +0.050 A 
ATOM     29  C   UNL     1       5.195  -5.258  -3.524  0.00  0.00    +0.166 A 
ATOM     30  C   UNL     1       5.935  -5.538  -2.378  0.00  0.00    +0.167 A 
ATOM     31  C   UNL     1       5.880  -4.677  -1.294  0.00  0.00    +0.055 A 
ATOM     32  O   UNL     1       6.626  -6.698  -2.578  0.00  0.00    -0.453 OA
ATOM     33  C   UNL     1       5.986  -7.339  -3.698  0.00  0.00    +0.466 C 
ATOM     34  O   UNL     1       5.421  -6.242  -4.442  0.00  0.00    -0.453 OA
ENDBRANCH   3  26
TORSDOF 3
