REMARK  Name = ZINC00736936
REMARK  6 active torsions:
REMARK  status: ('A' for Active; 'I' for Inactive)
REMARK    1  A    between atoms: C_1  and  C_2
REMARK    2  A    between atoms: C_2  and  C_3
REMARK    3  A    between atoms: C_3  and  C_5
REMARK    4  A    between atoms: C_3  and  N_40
REMARK    5  A    between atoms: N_15  and  C_16
REMARK    6  A    between atoms: C_23  and  N_40
REMARK                            x       y       z     vdW  Elec       q    Type
REMARK                         _______ _______ _______ _____ _____    ______ ____
ROOT
ATOM      1  C   UNL     1      -0.312  -1.049  -1.449  0.00  0.00    +0.103 A 
ATOM      2  N   UNL     1      -1.017  -0.470  -2.373  0.00  0.00    -0.235 NA
ATOM      3  C   UNL     1      -0.556  -0.340  -3.642  0.00  0.00    +0.078 A 
ATOM      4  C   UNL     1      -1.314   0.283  -4.636  0.00  0.00    +0.028 A 
ATOM      5  C   UNL     1      -0.807   0.394  -5.911  0.00  0.00    +0.002 A 
ATOM      6  C   UNL     1       0.450  -0.107  -6.223  0.00  0.00    +0.001 A 
ATOM      7  C   UNL     1       1.216  -0.726  -5.260  0.00  0.00    +0.015 A 
ATOM      8  C   UNL     1       0.722  -0.848  -3.963  0.00  0.00    +0.065 A 
ATOM      9  C   UNL     1       1.495  -1.498  -2.894  0.00  0.00    +0.266 A 
ATOM     10  O   UNL     1       2.602  -1.957  -3.105  0.00  0.00    -0.267 OA
ATOM     11  N   UNL     1       0.929  -1.562  -1.666  0.00  0.00    -0.266 N 
ENDROOT
BRANCH  11  12
ATOM     12  C   UNL     1       1.625  -2.166  -0.612  0.00  0.00    +0.051 A 
ATOM     13  C   UNL     1       2.456  -1.405   0.200  0.00  0.00    +0.027 A 
ATOM     14  C   UNL     1       3.137  -2.002   1.242  0.00  0.00    +0.017 A 
ATOM     15  C   UNL     1       3.001  -3.360   1.472  0.00  0.00    +0.018 A 
ATOM     16  C   UNL     1       2.178  -4.122   0.661  0.00  0.00    +0.017 A 
ATOM     17  C   UNL     1       1.491  -3.528  -0.380  0.00  0.00    +0.027 A 
ATOM     18 BR   UNL     1       3.941  -4.176   2.896  0.00  0.00    -0.050 Br
ENDBRANCH  11  12
BRANCH   1  19
ATOM     19  C   UNL     1      -0.896  -1.153  -0.063  0.00  0.00    -0.004 C 
BRANCH  19  21
ATOM     20  C   UNL     1      -0.819   1.129   0.742  0.00  0.00    -0.099 C 
ATOM     21  N   UNL     1      -1.690   0.055   0.229  0.00  0.00    +0.384 N 
ATOM     22  H   UNL     1      -2.402  -0.169   0.933  0.00  0.00    -0.085 HD
ATOM     23  H   UNL     1      -2.150   0.375  -0.632  0.00  0.00    -0.085 HD
ENDBRANCH  19  21
BRANCH  19  25
ATOM     24  C   UNL     1      -2.298  -2.559   1.454  0.00  0.00    +0.002 C 
ATOM     25  C   UNL     1      -1.804  -2.382   0.016  0.00  0.00    -0.012 C 
ENDBRANCH  19  25
ENDBRANCH   1  19
TORSDOF 4
