REMARK  Name = ZINC07075695
REMARK  7 active torsions:
REMARK  status: ('A' for Active; 'I' for Inactive)
REMARK    1  A    between atoms: C_1  and  C_2
REMARK    2  A    between atoms: C_2  and  C_4
REMARK    3  A    between atoms: C_2  and  O_17
REMARK    4  A    between atoms: N_6  and  C_7
REMARK    5  A    between atoms: O_17  and  C_18
REMARK    6  A    between atoms: C_18  and  C_20
REMARK    7  A    between atoms: C_23  and  C_25
REMARK                            x       y       z     vdW  Elec       q    Type
REMARK                         _______ _______ _______ _____ _____    ______ ____
ROOT
ATOM      1  C   UNL     1       0.029   1.353  -0.159  0.00  0.00    +0.062 C 
ATOM      2  C   UNL     1       0.046  -0.161   0.062  0.00  0.00    +0.259 C 
ENDROOT
BRANCH   2   3
ATOM      3  C   UNL     1      -1.369  -0.680   0.092  0.00  0.00    +0.258 C 
ATOM      4  O   UNL     1      -1.755  -1.438  -0.772  0.00  0.00    -0.271 OA
ATOM      5  N   UNL     1      -2.204  -0.302   1.079  0.00  0.00    -0.282 N 
ATOM      6  H   UNL     1      -1.875   0.242   1.812  0.00  0.00    +0.155 HD
BRANCH   5   7
ATOM      7  C   UNL     1      -3.547  -0.694   1.048  0.00  0.00    +0.034 A 
ATOM      8  C   UNL     1      -4.202  -0.824  -0.183  0.00  0.00    +0.024 A 
ATOM      9  C   UNL     1      -5.505  -1.203  -0.244  0.00  0.00    +0.010 A 
ATOM     10  C   UNL     1      -6.213  -1.470   0.941  0.00  0.00    -0.018 A 
ATOM     11  C   UNL     1      -7.562  -1.865   0.908  0.00  0.00    +0.008 A 
ATOM     12  C   UNL     1      -8.219  -2.116   2.073  0.00  0.00    +0.001 A 
ATOM     13  C   UNL     1      -7.575  -1.989   3.303  0.00  0.00    +0.001 A 
ATOM     14  C   UNL     1      -6.270  -1.609   3.374  0.00  0.00    +0.008 A 
ATOM     15  C   UNL     1      -5.558  -1.341   2.191  0.00  0.00    -0.016 A 
ATOM     16  C   UNL     1      -4.209  -0.953   2.227  0.00  0.00    +0.031 A 
ENDBRANCH   5   7
ENDBRANCH   2   3
BRANCH   2  17
ATOM     17  O   UNL     1       0.762  -0.790  -1.002  0.00  0.00    -0.448 OA
BRANCH  17  18
ATOM     18  C   UNL     1       2.089  -0.957  -0.833  0.00  0.00    +0.359 C 
ATOM     19  O   UNL     1       2.623  -0.578   0.192  0.00  0.00    -0.243 OA
BRANCH  18  20
ATOM     20  C   UNL     1       2.890  -1.597  -1.887  0.00  0.00    +0.155 A 
ATOM     21  C   UNL     1       4.239  -1.776  -1.723  0.00  0.00    +0.082 A 
ATOM     22  S   UNL     1       4.686  -2.527  -3.161  0.00  0.00    -0.074 S 
ATOM     23  C   UNL     1       3.078  -2.580  -3.932  0.00  0.00    +0.116 A 
ATOM     24  N   UNL     1       2.317  -2.015  -3.009  0.00  0.00    -0.232 NA
BRANCH  23  25
ATOM     25  C   UNL     1       2.696  -3.117  -5.247  0.00  0.00    +0.044 A 
ATOM     26  C   UNL     1       3.484  -3.714  -6.199  0.00  0.00    +0.018 A 
ATOM     27  C   UNL     1       2.898  -4.142  -7.368  0.00  0.00    +0.008 A 
ATOM     28  C   UNL     1       1.563  -3.963  -7.544  0.00  0.00    +0.046 A 
ATOM     29  S   UNL     1       1.086  -3.170  -6.018  0.00  0.00    -0.095 S 
ENDBRANCH  23  25
ENDBRANCH  18  20
ENDBRANCH  17  18
ENDBRANCH   2  17
TORSDOF 6
