REMARK  Name = ZINC40733873
REMARK  10 active torsions:
REMARK  status: ('A' for Active; 'I' for Inactive)
REMARK    1  A    between atoms: C_1  and  O_2
REMARK    2  A    between atoms: O_2  and  C_3
REMARK    3  A    between atoms: C_5  and  C_20
REMARK    4  A    between atoms: C_8  and  O_9
REMARK    5  A    between atoms: O_9  and  C_10
REMARK    6  A    between atoms: C_10  and  C_11
REMARK    7  A    between atoms: C_20  and  N_21
REMARK    8  A    between atoms: N_21  and  C_22
REMARK    9  A    between atoms: C_22  and  C_23
REMARK   10  A    between atoms: C_23  and  C_24
REMARK                            x       y       z     vdW  Elec       q    Type
REMARK                         _______ _______ _______ _____ _____    ______ ____
ROOT
ATOM      1  C   UNL     1      -1.201  -0.638   0.010  0.00  0.00    +0.163 A 
ATOM      2  C   UNL     1      -2.374   0.100   0.019  0.00  0.00    +0.051 A 
ATOM      3  C   UNL     1      -3.597  -0.546   0.028  0.00  0.00    -0.060 A 
ATOM      4  C   UNL     1      -3.653  -1.927   0.028  0.00  0.00    +0.021 A 
ATOM      5  C   UNL     1      -2.486  -2.669   0.018  0.00  0.00    +0.063 A 
ATOM      6  C   UNL     1      -1.257  -2.028   0.003  0.00  0.00    +0.176 A 
ATOM      7 BR   UNL     1      -2.567  -4.559   0.019  0.00  0.00    -0.046 Br
ENDROOT
BRANCH   1   9
ATOM      8  C   UNL     1      -0.017   1.425   0.010  0.00  0.00    +0.277 C 
ATOM      9  O   UNL     1       0.002  -0.004   0.002  0.00  0.00    -0.491 OA
ENDBRANCH   1   9
BRANCH   6  10
ATOM     10  O   UNL     1      -0.108  -2.756  -0.012  0.00  0.00    -0.483 OA
BRANCH  10  11
ATOM     11  C   UNL     1       0.452  -3.110   1.254  0.00  0.00    +0.266 C 
BRANCH  11  12
ATOM     12  C   UNL     1       1.712  -3.909   1.040  0.00  0.00    +0.008 A 
ATOM     13  C   UNL     1       2.149  -4.180  -0.243  0.00  0.00    +0.011 A 
ATOM     14  C   UNL     1       3.304  -4.912  -0.440  0.00  0.00    +0.039 A 
ATOM     15  C   UNL     1       4.025  -5.375   0.648  0.00  0.00    +0.125 A 
ATOM     16  C   UNL     1       3.588  -5.103   1.933  0.00  0.00    +0.058 A 
ATOM     17  C   UNL     1       2.434  -4.366   2.129  0.00  0.00    +0.050 A 
ATOM     18 CL   UNL     1       1.888  -4.019   3.740  0.00  0.00    -0.083 Cl
ATOM     19  F   UNL     1       5.154  -6.091   0.455  0.00  0.00    -0.205 F 
ENDBRANCH  11  12
ENDBRANCH  10  11
ENDBRANCH   6  10
BRANCH   3  20
ATOM     20  C   UNL     1      -4.871   0.258   0.039  0.00  0.00    -0.047 C 
BRANCH  20  21
ATOM     21  N   UNL     1      -5.296   0.521  -1.342  0.00  0.00    +0.382 N 
ATOM     22  H   UNL     1      -4.576   1.039  -1.823  0.00  0.00    -0.085 HD
ATOM     23  H   UNL     1      -5.455  -0.355  -1.818  0.00  0.00    -0.085 HD
BRANCH  21  24
ATOM     24  C   UNL     1      -6.539   1.305  -1.332  0.00  0.00    -0.077 C 
BRANCH  24  25
ATOM     25  C   UNL     1      -6.981   1.579  -2.771  0.00  0.00    +0.018 C 
BRANCH  25  26
ATOM     26  C   UNL     1      -8.256   2.383  -2.760  0.00  0.00    -0.024 A 
ATOM     27  C   UNL     1      -9.505   1.899  -2.839  0.00  0.00    +0.087 A 
ATOM     28  N   UNL     1     -10.407   2.928  -2.799  0.00  0.00    -0.360 N 
ATOM     29  H   UNL     1     -11.371   2.826  -2.841  0.00  0.00    +0.165 HD
ATOM     30  C   UNL     1      -9.742   4.129  -2.691  0.00  0.00    +0.047 A 
ATOM     31  C   UNL     1      -8.366   3.840  -2.655  0.00  0.00    +0.003 A 
ATOM     32  C   UNL     1      -7.439   4.877  -2.541  0.00  0.00    +0.010 A 
ATOM     33  C   UNL     1      -7.874   6.170  -2.461  0.00  0.00    +0.001 A 
ATOM     34  C   UNL     1      -9.231   6.460  -2.492  0.00  0.00    +0.002 A 
ATOM     35  C   UNL     1     -10.163   5.452  -2.613  0.00  0.00    +0.026 A 
ENDBRANCH  25  26
ENDBRANCH  24  25
ENDBRANCH  21  24
ENDBRANCH  20  21
ENDBRANCH   3  20
TORSDOF 9
