REMARK  Name = ZINC32499917
REMARK  11 active torsions:
REMARK  status: ('A' for Active; 'I' for Inactive)
REMARK    1  A    between atoms: C_1  and  C_2
REMARK    2  A    between atoms: C_2  and  N_3
REMARK    3  A    between atoms: N_6  and  C_9
REMARK    4  A    between atoms: C_12  and  S_25
REMARK    5  A    between atoms: C_14  and  N_15
REMARK    6  A    between atoms: C_16  and  C_18
REMARK    7  A    between atoms: S_25  and  N_28
REMARK    8  A    between atoms: N_28  and  C_29
REMARK    9  A    between atoms: N_28  and  C_31
REMARK   10  A    between atoms: C_29  and  C_30
REMARK   11  A    between atoms: C_31  and  C_32
REMARK                            x       y       z     vdW  Elec       q    Type
REMARK                         _______ _______ _______ _____ _____    ______ ____
ROOT
ATOM      1  C   UNL     1       3.666  -2.753  -2.988  0.00  0.00    +0.051 A 
ATOM      2  C   UNL     1       4.362  -3.385  -1.968  0.00  0.00    +0.027 A 
ATOM      3  C   UNL     1       5.426  -4.215  -2.268  0.00  0.00    +0.030 A 
ATOM      4  C   UNL     1       5.800  -4.419  -3.584  0.00  0.00    +0.107 A 
ATOM      5  C   UNL     1       5.112  -3.793  -4.607  0.00  0.00    +0.053 A 
ATOM      6  C   UNL     1       4.040  -2.963  -4.316  0.00  0.00    +0.057 A 
ENDROOT
BRANCH   1  10
ATOM      7  N   UNL     1       0.696  -0.501  -1.192  0.00  0.00    +0.382 N 
ATOM      8  C   UNL     1       2.105  -0.089  -1.145  0.00  0.00    -0.060 C 
ATOM      9  C   UNL     1       2.793  -0.474  -2.458  0.00  0.00    +0.086 C 
ATOM     10  N   UNL     1       2.589  -1.913  -2.687  0.00  0.00    -0.332 N 
ATOM     11  C   UNL     1       1.220  -2.443  -2.590  0.00  0.00    +0.086 C 
ATOM     12  C   UNL     1       0.606  -1.965  -1.271  0.00  0.00    -0.060 C 
ATOM     13  H   UNL     1       0.256  -0.094  -2.004  0.00  0.00    -0.082 HD
BRANCH   7  15
ATOM     14  C   UNL     1      -0.005   1.495   0.041  0.00  0.00    -0.017 C 
ATOM     15  C   UNL     1       0.010  -0.035   0.020  0.00  0.00    -0.082 C 
ENDBRANCH   7  15
ENDBRANCH   1  10
BRANCH   6  16
ATOM     16  N   UNL     1       3.337  -2.333  -5.351  0.00  0.00    -0.284 N 
ATOM     17  C   UNL     1       3.990  -1.925  -6.458  0.00  0.00    +0.221 C 
ATOM     18  O   UNL     1       5.169  -2.175  -6.593  0.00  0.00    -0.275 OA
ATOM     19  H   UNL     1       2.381  -2.190  -5.272  0.00  0.00    +0.155 HD
BRANCH  17  20
ATOM     20  C   UNL     1       3.255  -1.158  -7.527  0.00  0.00    +0.079 C 
ATOM     21  C   UNL     1       4.216  -0.824  -8.675  0.00  0.00    +0.017 C 
ATOM     22  C   UNL     1       3.494   0.102  -9.656  0.00  0.00    +0.027 C 
ATOM     23  C   UNL     1       2.148  -0.462 -10.004  0.00  0.00    -0.031 C 
ATOM     24  C   UNL     1       1.546  -1.380  -9.318  0.00  0.00    -0.030 C 
ATOM     25  C   UNL     1       2.112  -2.013  -8.079  0.00  0.00    +0.039 C 
ENDBRANCH  17  20
ENDBRANCH   6  16
BRANCH   4  26
ATOM     26  S   UNL     1       7.157  -5.478  -3.958  0.00  0.00    +0.061 S 
ATOM     27  O   UNL     1       7.650  -5.074  -5.228  0.00  0.00    -0.153 OA
ATOM     28  O   UNL     1       7.977  -5.512  -2.798  0.00  0.00    -0.153 OA
BRANCH  26  29
ATOM     29  N   UNL     1       6.547  -7.005  -4.151  0.00  0.00    -0.177 NA
BRANCH  29  30
ATOM     30  C   UNL     1       6.111  -7.458  -5.474  0.00  0.00    +0.106 C 
ATOM     31  C   UNL     1       7.250  -8.221  -6.153  0.00  0.00    +0.022 C 
ENDBRANCH  29  30
BRANCH  29  32
ATOM     32  C   UNL     1       6.444  -7.904  -2.998  0.00  0.00    +0.106 C 
ATOM     33  C   UNL     1       5.037  -7.812  -2.404  0.00  0.00    +0.022 C 
ENDBRANCH  29  32
ENDBRANCH  26  29
ENDBRANCH   4  26
TORSDOF 8
