REMARK  Name = ZINC04381044
REMARK  9 active torsions:
REMARK  status: ('A' for Active; 'I' for Inactive)
REMARK    1  A    between atoms: C_1  and  C_2
REMARK    2  A    between atoms: C_4  and  C_28
REMARK    3  A    between atoms: C_6  and  N_8
REMARK    4  A    between atoms: C_9  and  C_11
REMARK    5  A    between atoms: C_11  and  C_12
REMARK    6  A    between atoms: C_12  and  C_27
REMARK    7  A    between atoms: N_13  and  N_14
REMARK    8  A    between atoms: C_15  and  C_17
REMARK    9  A    between atoms: C_20  and  N_24
REMARK                            x       y       z     vdW  Elec       q    Type
REMARK                         _______ _______ _______ _____ _____    ______ ____
ROOT
ATOM      1  C   UNL     1      -3.663   1.705   0.121  0.00  0.00    +0.043 C 
ATOM      2  N   UNL     1      -4.501   1.659  -0.846  0.00  0.00    -0.189 NA
ATOM      3  C   UNL     1      -3.866   2.686   1.247  0.00  0.00    +0.063 C 
ENDROOT
BRANCH   2   4
ATOM      4  N   UNL     1      -5.606   2.519  -0.858  0.00  0.00    -0.203 N 
ATOM      5  C   UNL     1      -6.488   2.470  -1.876  0.00  0.00    +0.263 C 
ATOM      6  O   UNL     1      -6.324   1.679  -2.784  0.00  0.00    -0.268 OA
ATOM      7  H   UNL     1      -5.737   3.151  -0.133  0.00  0.00    +0.178 HD
BRANCH   5   8
ATOM      8  C   UNL     1      -7.654   3.379  -1.888  0.00  0.00    +0.040 A 
ATOM      9  C   UNL     1      -7.848   4.285  -0.843  0.00  0.00    +0.015 A 
ATOM     10  C   UNL     1      -8.935   5.133  -0.862  0.00  0.00    +0.035 A 
ATOM     11  C   UNL     1      -9.839   5.081  -1.908  0.00  0.00    +0.144 A 
ATOM     12  C   UNL     1      -9.656   4.182  -2.945  0.00  0.00    +0.072 A 
ATOM     13  C   UNL     1      -8.569   3.330  -2.940  0.00  0.00    +0.035 A 
ATOM     14 CL   UNL     1     -10.796   4.124  -4.253  0.00  0.00    -0.081 Cl
BRANCH  11  15
ATOM     15  N   UNL     1     -11.007   5.990  -1.919  0.00  0.00    +0.058 N 
ATOM     16  O   UNL     1     -11.170   6.783  -1.008  0.00  0.00    -0.126 OA
ATOM     17  O   UNL     1     -11.805   5.947  -2.838  0.00  0.00    -0.126 OA
ENDBRANCH  11  15
ENDBRANCH   5   8
ENDBRANCH   2   4
BRANCH   1  18
ATOM     18  C   UNL     1      -2.474   0.779   0.133  0.00  0.00    +0.148 C 
BRANCH  18  20
ATOM     19  N   UNL     1      -0.011   0.966   0.007  0.00  0.00    -0.285 N 
ATOM     20  C   UNL     1      -1.207   1.587   0.017  0.00  0.00    +0.223 C 
ATOM     21  O   UNL     1      -1.264   2.795  -0.067  0.00  0.00    -0.275 OA
ATOM     22  H   UNL     1       0.033  -0.003   0.007  0.00  0.00    +0.155 HD
BRANCH  19  28
ATOM     23  C   UNL     1       4.673   1.524   1.393  0.00  0.00    +0.044 C 
ATOM     24  C   UNL     1       3.454   2.013   0.655  0.00  0.00    -0.048 A 
ATOM     25  C   UNL     1       3.500   3.208  -0.039  0.00  0.00    +0.006 A 
ATOM     26  C   UNL     1       2.383   3.661  -0.718  0.00  0.00    -0.048 A 
ATOM     27  C   UNL     1       1.218   2.920  -0.704  0.00  0.00    +0.026 A 
ATOM     28  C   UNL     1       1.168   1.719  -0.008  0.00  0.00    +0.034 A 
ATOM     29  C   UNL     1       2.289   1.271   0.677  0.00  0.00    +0.026 A 
ATOM     30  C   UNL     1       2.438   4.964  -1.473  0.00  0.00    +0.044 C 
ENDBRANCH  19  28
ENDBRANCH  18  20
ENDBRANCH   1  18
TORSDOF 6
