REMARK  Name = ZINC13499305
REMARK  11 active torsions:
REMARK  status: ('A' for Active; 'I' for Inactive)
REMARK    1  A    between atoms: C_1  and  C_2
REMARK    2  A    between atoms: C_2  and  C_3
REMARK    3  A    between atoms: C_3  and  C_4
REMARK    4  A    between atoms: C_4  and  C_6
REMARK    5  A    between atoms: C_4  and  N_70
REMARK    6  A    between atoms: N_10  and  C_11
REMARK    7  A    between atoms: C_11  and  C_12
REMARK    8  A    between atoms: C_18  and  C_19
REMARK    9  A    between atoms: C_18  and  N_70
REMARK   10  A    between atoms: C_24  and  C_31
REMARK   11  A    between atoms: C_32  and  N_70
REMARK                            x       y       z     vdW  Elec       q    Type
REMARK                         _______ _______ _______ _____ _____    ______ ____
ROOT
ATOM      1  N   UNL     1      -2.054  -3.423   2.356  0.00  0.00    +0.391 N 
ATOM      2  H   UNL     1      -2.459  -4.202   1.824  0.00  0.00    -0.080 HD
ENDROOT
BRANCH   1   3
ATOM      3  C   UNL     1      -1.011  -3.951   3.261  0.00  0.00    -0.067 C 
ATOM      4  C   UNL     1       0.265  -4.274   2.456  0.00  0.00    -0.015 C 
ATOM      5  C   UNL     1       0.802  -5.576   3.102  0.00  0.00    -0.002 C 
ATOM      6  C   UNL     1      -0.495  -6.362   3.415  0.00  0.00    -0.002 C 
ATOM      7  C   UNL     1      -1.494  -5.279   3.871  0.00  0.00    -0.015 C 
ENDBRANCH   1   3
BRANCH   1   8
ATOM      8  C   UNL     1      -1.459  -2.454   1.412  0.00  0.00    +0.003 C 
BRANCH   8   9
ATOM      9  C   UNL     1      -2.321  -2.396   0.177  0.00  0.00    +0.138 A 
ATOM     10  N   UNL     1      -3.613  -2.177   0.134  0.00  0.00    -0.115 NA
ATOM     11  N   UNL     1      -3.980  -2.209  -1.101  0.00  0.00    -0.023 NA
ATOM     12  N   UNL     1      -2.956  -2.436  -1.847  0.00  0.00    -0.044 NA
ATOM     13  N   UNL     1      -1.913  -2.554  -1.096  0.00  0.00    -0.228 N 
BRANCH  13  14
ATOM     14  C   UNL     1      -0.544  -2.818  -1.545  0.00  0.00    +0.178 C 
BRANCH  14  15
ATOM     15  C   UNL     1       0.171  -1.491  -1.808  0.00  0.00    +0.140 C 
ATOM     16  C   UNL     1       1.605  -1.745  -2.337  0.00  0.00    +0.035 C 
ATOM     17  C   UNL     1       2.312  -0.427  -1.920  0.00  0.00    +0.031 C 
ATOM     18  C   UNL     1       1.605  -0.082  -0.591  0.00  0.00    +0.160 C 
ATOM     19  O   UNL     1       0.348  -0.768  -0.579  0.00  0.00    -0.375 OA
ENDBRANCH  14  15
ENDBRANCH  13  14
ENDBRANCH   8   9
BRANCH   8  20
ATOM     20  C   UNL     1      -1.384  -1.065   2.048  0.00  0.00    -0.008 C 
BRANCH  20  22
ATOM     21  C   UNL     1      -0.198   0.333   3.746  0.00  0.00    +0.004 C 
ATOM     22  C   UNL     1      -0.380  -1.086   3.202  0.00  0.00    -0.005 C 
ENDBRANCH  20  22
ENDBRANCH   8  20
ENDBRANCH   1   8
BRANCH   1  23
ATOM     23  C   UNL     1      -3.122  -2.772   3.143  0.00  0.00    -0.036 C 
BRANCH  23  24
ATOM     24  C   UNL     1      -3.963  -3.839   3.794  0.00  0.00    +0.001 A 
ATOM     25  C   UNL     1      -3.750  -4.168   5.093  0.00  0.00    +0.017 A 
ATOM     26  C   UNL     1      -4.584  -5.209   5.696  0.00  0.00    -0.001 A 
ATOM     27  C   UNL     1      -4.412  -5.591   7.031  0.00  0.00    +0.010 A 
ATOM     28  C   UNL     1      -5.207  -6.565   7.564  0.00  0.00    +0.004 A 
ATOM     29  C   UNL     1      -6.184  -7.181   6.794  0.00  0.00    -0.048 A 
ATOM     30  C   UNL     1      -6.371  -6.821   5.477  0.00  0.00    +0.029 A 
ATOM     31  C   UNL     1      -5.574  -5.830   4.912  0.00  0.00    +0.049 A 
ATOM     32  N   UNL     1      -5.739  -5.451   3.596  0.00  0.00    -0.322 N 
ATOM     33  H   UNL     1      -6.421  -5.880   3.057  0.00  0.00    +0.169 HD
ATOM     34  C   UNL     1      -4.972  -4.490   3.053  0.00  0.00    +0.251 A 
ATOM     35  O   UNL     1      -5.149  -4.176   1.888  0.00  0.00    -0.268 OA
ATOM     36  C   UNL     1      -7.048  -8.254   7.403  0.00  0.00    +0.044 C 
ENDBRANCH  23  24
ENDBRANCH   1  23
TORSDOF 9
