REMARK  Name = ZINC13899532
REMARK  11 active torsions:
REMARK  status: ('A' for Active; 'I' for Inactive)
REMARK    1  A    between atoms: C_1  and  C_2
REMARK    2  A    between atoms: C_2  and  C_3
REMARK    3  A    between atoms: C_2  and  C_4
REMARK    4  A    between atoms: C_2  and  N_5
REMARK    5  A    between atoms: N_5  and  C_6
REMARK    6  A    between atoms: C_7  and  C_30
REMARK    7  A    between atoms: N_8  and  C_18
REMARK    8  A    between atoms: C_18  and  C_19
REMARK    9  A    between atoms: C_19  and  C_21
REMARK   10  A    between atoms: C_24  and  N_27
REMARK   11  A    between atoms: C_30  and  C_32
REMARK                            x       y       z     vdW  Elec       q    Type
REMARK                         _______ _______ _______ _____ _____    ______ ____
ROOT
ATOM      1  C   UNL     1       2.049  -1.508  -1.851  0.00  0.00    +0.063 C 
ATOM      2  C   UNL     1       2.024  -1.234  -3.193  0.00  0.00    +0.120 C 
ATOM      3  N   UNL     1       3.158  -0.763  -3.882  0.00  0.00    -0.190 N 
ATOM      4  S   UNL     1       4.247   0.167  -3.030  0.00  0.00    +0.076 S 
ATOM      5  O   UNL     1       5.516  -0.013  -3.644  0.00  0.00    -0.150 OA
ATOM      6  O   UNL     1       3.653   1.445  -2.852  0.00  0.00    -0.150 OA
ATOM      7  C   UNL     1       4.332  -0.593  -1.437  0.00  0.00    +0.118 A 
ATOM      8  C   UNL     1       3.235  -1.343  -1.001  0.00  0.00    +0.024 A 
ATOM      9  C   UNL     1       3.288  -1.954   0.258  0.00  0.00    +0.012 A 
ATOM     10  C   UNL     1       4.408  -1.800   1.048  0.00  0.00    +0.001 A 
ATOM     11  C   UNL     1       5.483  -1.051   0.604  0.00  0.00    +0.002 A 
ATOM     12  C   UNL     1       5.442  -0.446  -0.643  0.00  0.00    +0.029 A 
ENDROOT
BRANCH   1  13
ATOM     13  N   UNL     1       0.886  -1.960  -1.261  0.00  0.00    -0.337 N 
ATOM     14  H   UNL     1       0.332  -2.798  -1.709  0.00  0.00    +0.147 HD
BRANCH  13  16
ATOM     15  C   UNL     1       1.264  -0.114   0.298  0.00  0.00    +0.031 C 
ATOM     16  C   UNL     1       0.390  -1.325  -0.038  0.00  0.00    +0.024 C 
ATOM     17  C   UNL     1       0.444  -2.328   1.116  0.00  0.00    +0.031 C 
ATOM     18  C   UNL     1      -1.054  -0.868  -0.250  0.00  0.00    +0.031 C 
ENDBRANCH  13  16
ENDBRANCH   1  13
BRANCH   2  19
ATOM     19  C   UNL     1       0.823  -1.432  -3.909  0.00  0.00    +0.210 C 
ATOM     20  O   UNL     1       0.746  -2.325  -4.734  0.00  0.00    -0.285 OA
BRANCH  19  21
ATOM     21  C   UNL     1      -0.340  -0.554  -3.657  0.00  0.00    +0.024 A 
ATOM     22  C   UNL     1      -0.253   0.473  -2.715  0.00  0.00    +0.012 A 
ATOM     23  C   UNL     1      -1.340   1.291  -2.489  0.00  0.00    +0.001 A 
ATOM     24  C   UNL     1      -2.519   1.089  -3.185  0.00  0.00    +0.000 A 
ATOM     25  C   UNL     1      -2.614   0.070  -4.116  0.00  0.00    +0.001 A 
ATOM     26  C   UNL     1      -1.532  -0.752  -4.355  0.00  0.00    +0.012 A 
ENDBRANCH  19  21
ENDBRANCH   2  19
BRANCH   3  27
ATOM     27  C   UNL     1       3.372  -1.078  -5.296  0.00  0.00    +0.211 C 
BRANCH  27  28
ATOM     28  C   UNL     1       2.630  -0.083  -6.151  0.00  0.00    +0.182 C 
ATOM     29  O   UNL     1       1.986   0.803  -5.630  0.00  0.00    -0.290 OA
BRANCH  28  30
ATOM     30  C   UNL     1       2.688  -0.185  -7.618  0.00  0.00    +0.019 A 
ATOM     31  C   UNL     1       3.434  -1.201  -8.223  0.00  0.00    +0.013 A 
ATOM     32  C   UNL     1       3.479  -1.294  -9.598  0.00  0.00    +0.033 A 
ATOM     33  C   UNL     1       2.797  -0.377 -10.379  0.00  0.00    +0.126 A 
ATOM     34  C   UNL     1       2.060   0.634  -9.788  0.00  0.00    +0.033 A 
ATOM     35  C   UNL     1       2.001   0.737  -8.414  0.00  0.00    +0.013 A 
BRANCH  33  36
ATOM     36  N   UNL     1       2.855  -0.480 -11.854  0.00  0.00    +0.056 N 
ATOM     37  O   UNL     1       2.256   0.325 -12.545  0.00  0.00    -0.126 OA
ATOM     38  O   UNL     1       3.503  -1.368 -12.378  0.00  0.00    -0.126 OA
ENDBRANCH  33  36
ENDBRANCH  28  30
ENDBRANCH  27  28
ENDBRANCH   3  27
TORSDOF 8
