REMARK  Name = ZINC38612314
REMARK  5 active torsions:
REMARK  status: ('A' for Active; 'I' for Inactive)
REMARK    1  A    between atoms: C_1  and  O_2
REMARK    2  A    between atoms: O_2  and  C_3
REMARK    3  A    between atoms: C_3  and  C_5
REMARK    4  A    between atoms: C_7  and  N_16
REMARK    5  A    between atoms: N_19  and  C_20
REMARK                            x       y       z     vdW  Elec       q    Type
REMARK                         _______ _______ _______ _____ _____    ______ ____
ROOT
ATOM      1  C   UNL     1       2.666  -3.443  -1.196  0.00  0.00    +0.234 C 
ATOM      2  C   UNL     1       1.691  -2.667  -0.339  0.00  0.00    +0.054 C 
ATOM      3  C   UNL     1       0.750  -2.150  -1.214  0.00  0.00    +0.019 A 
ATOM      4  C   UNL     1      -0.399  -1.347  -1.015  0.00  0.00    +0.026 A 
ATOM      5  C   UNL     1      -1.156  -0.982  -2.080  0.00  0.00    +0.019 A 
ATOM      6  C   UNL     1      -0.831  -1.380  -3.381  0.00  0.00    +0.017 A 
ATOM      7  C   UNL     1       0.254  -2.148  -3.644  0.00  0.00    +0.027 A 
ATOM      8  C   UNL     1       1.095  -2.571  -2.582  0.00  0.00    +0.045 A 
ATOM      9  N   UNL     1       2.189  -3.309  -2.576  0.00  0.00    -0.367 N 
ATOM     10 BR   UNL     1      -2.687   0.091  -1.800  0.00  0.00    -0.050 Br
ATOM     11  H   UNL     1       2.610  -3.699  -3.358  0.00  0.00    +0.161 HD
ENDROOT
BRANCH   2  12
ATOM     12  N   UNL     1       1.731  -2.508   1.013  0.00  0.00    -0.270 N 
ATOM     13  C   UNL     1       2.806  -2.927   1.709  0.00  0.00    +0.304 C 
ATOM     14  O   UNL     1       3.783  -3.349   1.122  0.00  0.00    -0.253 OA
ATOM     15  N   UNL     1       2.798  -2.877   3.056  0.00  0.00    -0.296 N 
ATOM     16  H   UNL     1       0.985  -2.095   1.475  0.00  0.00    +0.156 HD
ATOM     17  H   UNL     1       2.018  -2.540   3.524  0.00  0.00    +0.151 HD
BRANCH  15  18
ATOM     18  C   UNL     1       3.967  -3.332   3.813  0.00  0.00    +0.074 C 
ATOM     19  C   UNL     1       3.886  -4.846   4.015  0.00  0.00    +0.022 C 
ATOM     20  C   UNL     1       5.107  -5.321   4.805  0.00  0.00    +0.002 C 
ATOM     21  C   UNL     1       5.134  -4.626   6.168  0.00  0.00    +0.000 C 
ATOM     22  C   UNL     1       5.215  -3.112   5.966  0.00  0.00    +0.002 C 
ATOM     23  C   UNL     1       3.994  -2.636   5.175  0.00  0.00    +0.022 C 
ENDBRANCH  15  18
ENDBRANCH   2  12
BRANCH   1  24
ATOM     24  C   UNL     1       2.674  -4.894  -0.789  0.00  0.00    +0.335 C 
ATOM     25  O   UNL     1       1.942  -5.681  -1.341  0.00  0.00    -0.248 OA
BRANCH  24  27
ATOM     26  C   UNL     1       3.450  -6.700   0.523  0.00  0.00    +0.280 C 
ATOM     27  O   UNL     1       3.494  -5.312   0.188  0.00  0.00    -0.466 OA
ENDBRANCH  24  27
ENDBRANCH   1  24
TORSDOF 4
