REMARK  Name = ZINC63426726
REMARK  13 active torsions:
REMARK  status: ('A' for Active; 'I' for Inactive)
REMARK    1  A    between atoms: C_1  and  C_2
REMARK    2  A    between atoms: C_2  and  C_4
REMARK    3  A    between atoms: C_4  and  S_5
REMARK    4  A    between atoms: S_5  and  C_6
REMARK    5  A    between atoms: C_10  and  C_13
REMARK    6  A    between atoms: C_13  and  C_15
REMARK    7  A    between atoms: C_13  and  N_25
REMARK    8  A    between atoms: C_15  and  C_16
REMARK    9  A    between atoms: C_26  and  O_28
REMARK   10  A    between atoms: O_28  and  C_29
REMARK   11  A    between atoms: C_29  and  C_30
REMARK   12  A    between atoms: C_29  and  C_31
REMARK   13  A    between atoms: C_29  and  C_32
REMARK                            x       y       z     vdW  Elec       q    Type
REMARK                         _______ _______ _______ _____ _____    ______ ____
ROOT
ATOM      1  C   UNL     1      -3.930  -4.175  -0.966  0.00  0.00    +0.133 C 
ENDROOT
BRANCH   1   5
ATOM      2  C   UNL     1      -3.553  -1.675   1.512  0.00  0.00    +0.319 C 
ATOM      3  N   UNL     1      -4.405  -1.107   0.460  0.00  0.00    -0.146 NA
ATOM      4  N   UNL     1      -4.860  -2.011  -0.253  0.00  0.00    -0.155 NA
ATOM      5  C   UNL     1      -4.378  -3.316   0.218  0.00  0.00    +0.280 C 
ATOM      6  O   UNL     1      -3.257  -3.019   1.078  0.00  0.00    -0.316 OA
BRANCH   2   7
ATOM      7  S   UNL     1      -2.023  -0.713   1.670  0.00  0.00    -0.100 S 
BRANCH   7   8
ATOM      8  C   UNL     1      -1.293  -0.775   0.010  0.00  0.00    +0.103 C 
BRANCH   8  10
ATOM      9  C   UNL     1      -0.018   1.503   0.010  0.00  0.00    +0.039 C 
ATOM     10  C   UNL     1       0.002  -0.004   0.002  0.00  0.00    -0.070 C 
ATOM     11  C   UNL     1       1.145  -0.644  -0.012  0.00  0.00    +0.008 C 
ENDBRANCH   8  10
ENDBRANCH   7   8
ENDBRANCH   2   7
ENDBRANCH   1   5
BRANCH   1  12
ATOM     12  N   UNL     1      -3.421  -5.457  -0.474  0.00  0.00    -0.274 N 
ATOM     13  C   UNL     1      -4.225  -6.274   0.235  0.00  0.00    +0.401 C 
ATOM     14  O   UNL     1      -5.372  -5.947   0.466  0.00  0.00    -0.226 OA
ATOM     15  H   UNL     1      -2.505  -5.719  -0.658  0.00  0.00    +0.152 HD
BRANCH  13  16
ATOM     16  O   UNL     1      -3.758  -7.453   0.687  0.00  0.00    -0.445 OA
BRANCH  16  17
ATOM     17  C   UNL     1      -4.665  -8.268   1.432  0.00  0.00    +0.107 C 
ATOM     18  C   UNL     1      -5.874  -8.613   0.559  0.00  0.00    +0.055 C 
ATOM     19  C   UNL     1      -3.960  -9.557   1.859  0.00  0.00    +0.055 C 
ATOM     20  C   UNL     1      -5.133  -7.507   2.674  0.00  0.00    +0.055 C 
ENDBRANCH  16  17
ENDBRANCH  13  16
ENDBRANCH   1  12
BRANCH   1  21
ATOM     21  C   UNL     1      -5.119  -4.421  -1.897  0.00  0.00    +0.060 C 
BRANCH  21  22
ATOM     22  C   UNL     1      -4.652  -5.162  -3.123  0.00  0.00    -0.040 C 
ATOM     23  C   UNL     1      -4.685  -6.499  -3.327  0.00  0.00    -0.001 A 
ATOM     24  C   UNL     1      -5.146  -7.620  -2.500  0.00  0.00    +0.010 A 
ATOM     25  C   UNL     1      -5.048  -8.878  -2.987  0.00  0.00    +0.001 A 
ATOM     26  C   UNL     1      -4.518  -9.137  -4.258  0.00  0.00    +0.002 A 
ATOM     27  C   UNL     1      -4.074  -8.160  -5.076  0.00  0.00    +0.026 A 
ATOM     28  C   UNL     1      -4.129  -6.799  -4.666  0.00  0.00    +0.043 A 
ATOM     29  N   UNL     1      -3.767  -5.691  -5.266  0.00  0.00    -0.380 N 
ATOM     30  C   UNL     1      -4.058  -4.561  -4.377  0.00  0.00    +0.144 C 
ATOM     31  H   UNL     1      -3.376  -5.629  -6.152  0.00  0.00    +0.160 HD
ENDBRANCH  21  22
ENDBRANCH   1  21
TORSDOF 9
