REMARK  Name = ZINC21161566
REMARK  10 active torsions:
REMARK  status: ('A' for Active; 'I' for Inactive)
REMARK    1  A    between atoms: C_1  and  C_2
REMARK    2  A    between atoms: C_2  and  C_3
REMARK    3  A    between atoms: C_6  and  C_9
REMARK    4  A    between atoms: C_9  and  N_10
REMARK    5  A    between atoms: C_14  and  N_36
REMARK    6  A    between atoms: C_17  and  C_35
REMARK    7  A    between atoms: C_23  and  C_24
REMARK    8  A    between atoms: C_23  and  C_25
REMARK    9  A    between atoms: N_27  and  C_28
REMARK   10  A    between atoms: C_31  and  C_34
REMARK                            x       y       z     vdW  Elec       q    Type
REMARK                         _______ _______ _______ _____ _____    ______ ____
ROOT
ATOM      1  N   UNL     1      -1.790  -0.915  -1.359  0.00  0.00    -0.276 N 
ATOM      2  C   UNL     1      -1.494  -2.038  -2.054  0.00  0.00    +0.266 C 
ATOM      3  O   UNL     1      -0.989  -3.007  -1.517  0.00  0.00    -0.268 OA
ATOM      4  C   UNL     1      -1.812  -2.029  -3.487  0.00  0.00    +0.130 A 
ATOM      5  C   UNL     1      -1.801  -3.047  -4.385  0.00  0.00    +0.084 A 
ATOM      6  C   UNL     1      -2.208  -2.477  -5.660  0.00  0.00    +0.025 A 
ATOM      7  C   UNL     1      -2.385  -3.049  -6.925  0.00  0.00    +0.015 A 
ATOM      8  C   UNL     1      -2.787  -2.211  -7.935  0.00  0.00    -0.050 A 
ATOM      9  C   UNL     1      -3.010  -0.859  -7.723  0.00  0.00    +0.005 A 
ATOM     10  C   UNL     1      -2.841  -0.266  -6.485  0.00  0.00    +0.027 A 
ATOM     11  C   UNL     1      -2.432  -1.092  -5.437  0.00  0.00    +0.052 A 
ATOM     12  N   UNL     1      -2.175  -0.837  -4.130  0.00  0.00    -0.332 N 
ATOM     13  C   UNL     1      -2.223   0.436  -3.398  0.00  0.00    +0.157 C 
ATOM     14  C   UNL     1      -2.590   0.159  -1.937  0.00  0.00    +0.129 C 
ATOM     15  C   UNL     1      -2.370   1.434  -1.120  0.00  0.00    +0.043 C 
ATOM     16  C   UNL     1      -2.992  -2.777  -9.316  0.00  0.00    +0.044 C 
ENDROOT
BRANCH   5  17
ATOM     17  N   UNL     1      -1.465  -4.378  -4.135  0.00  0.00    -0.321 N 
ATOM     18  C   UNL     1      -0.231  -4.832  -3.764  0.00  0.00    +0.091 A 
ATOM     19  C   UNL     1      -0.302  -6.170  -3.612  0.00  0.00    +0.019 A 
ATOM     20  C   UNL     1      -1.625  -6.560  -3.909  0.00  0.00    +0.019 A 
ATOM     21  C   UNL     1      -2.314  -5.445  -4.225  0.00  0.00    +0.091 A 
ENDBRANCH   5  17
BRANCH  14  22
ATOM     22  C   UNL     1      -4.046  -0.223  -1.859  0.00  0.00    +0.238 C 
ATOM     23  O   UNL     1      -4.807   0.106  -2.744  0.00  0.00    -0.273 OA
ATOM     24  N   UNL     1      -4.502  -0.929  -0.805  0.00  0.00    -0.311 N 
ATOM     25  H   UNL     1      -3.811  -1.227  -0.002  0.00  0.00    +0.149 HD
BRANCH  24  26
ATOM     26  C   UNL     1      -5.917  -1.299  -0.729  0.00  0.00    +0.073 C 
ATOM     27  C   UNL     1      -6.714  -0.147  -0.114  0.00  0.00    +0.022 C 
ATOM     28  C   UNL     1      -8.192  -0.534  -0.035  0.00  0.00    +0.005 C 
ATOM     29  C   UNL     1      -8.346  -1.782   0.837  0.00  0.00    -0.014 C 
ATOM     30  C   UNL     1      -7.550  -2.934   0.222  0.00  0.00    +0.005 C 
ATOM     31  C   UNL     1      -6.071  -2.547   0.142  0.00  0.00    +0.022 C 
ATOM     32  C   UNL     1      -9.824  -2.169   0.916  0.00  0.00    +0.007 C 
ENDBRANCH  24  26
ENDBRANCH  14  22
BRANCH   1  33
ATOM     33  C   UNL     1      -1.297  -0.776   0.013  0.00  0.00    +0.144 C 
BRANCH  33  37
ATOM     34  C   UNL     1       2.706   0.715  -0.056  0.00  0.00    -0.048 A 
ATOM     35  C   UNL     1       1.649   1.582   0.148  0.00  0.00    +0.004 A 
ATOM     36  C   UNL     1       0.353   1.099   0.170  0.00  0.00    +0.005 A 
ATOM     37  C   UNL     1       0.115  -0.250  -0.011  0.00  0.00    -0.030 A 
ATOM     38  C   UNL     1       1.173  -1.117  -0.213  0.00  0.00    +0.005 A 
ATOM     39  C   UNL     1       2.468  -0.635  -0.236  0.00  0.00    +0.004 A 
BRANCH  34  41
ATOM     40  C   UNL     1       4.495   1.626  -1.511  0.00  0.00    +0.009 C 
ATOM     41  C   UNL     1       4.118   1.240  -0.079  0.00  0.00    +0.032 C 
ENDBRANCH  34  41
ENDBRANCH  33  37
ENDBRANCH   1  33
TORSDOF 6
