REMARK  Name = ZINC39666511
REMARK  8 active torsions:
REMARK  status: ('A' for Active; 'I' for Inactive)
REMARK    1  A    between atoms: C_1  and  C_2
REMARK    2  A    between atoms: C_5  and  C_10
REMARK    3  A    between atoms: C_14  and  C_23
REMARK    4  A    between atoms: N_25  and  C_26
REMARK    5  A    between atoms: C_26  and  C_27
REMARK    6  A    between atoms: C_27  and  C_29
REMARK    7  A    between atoms: C_27  and  O_30
REMARK    8  A    between atoms: O_30  and  C_31
REMARK                            x       y       z     vdW  Elec       q    Type
REMARK                         _______ _______ _______ _____ _____    ______ ____
ROOT
ATOM      1  C   UNL     1      -0.150  -4.608   0.071  0.00  0.00    +0.250 C 
ATOM      2  O   UNL     1      -0.101  -5.272   1.088  0.00  0.00    -0.270 OA
ATOM      3  N   UNL     1      -0.227  -5.217  -1.129  0.00  0.00    -0.296 N 
ATOM      4  C   UNL     1      -0.189  -4.590  -2.470  0.00  0.00    +0.121 C 
ATOM      5  C   UNL     1       0.656  -5.556  -3.330  0.00  0.00    +0.100 C 
ATOM      6  C   UNL     1       0.533  -6.918  -2.626  0.00  0.00    -0.004 C 
ATOM      7  C   UNL     1      -0.363  -6.668  -1.404  0.00  0.00    +0.115 C 
ATOM      8  C   UNL     1       1.906  -7.406  -2.174  0.00  0.00    -0.010 C 
ATOM      9  C   UNL     1       1.764  -8.787  -1.528  0.00  0.00    -0.082 C 
ATOM     10  N   UNL     1       1.183  -9.725  -2.496  0.00  0.00    +0.379 N 
ATOM     11  C   UNL     1      -0.175  -9.297  -2.855  0.00  0.00    -0.082 C 
ATOM     12  C   UNL     1      -0.115  -7.938  -3.557  0.00  0.00    -0.010 C 
ATOM     13  H   UNL     1       1.757  -9.749  -3.326  0.00  0.00    -0.086 HD
ATOM     14  H   UNL     1       1.147 -10.648  -2.089  0.00  0.00    -0.086 HD
ENDROOT
BRANCH   1  19
ATOM     15  C   UNL     1      -0.057   1.140   0.373  0.00  0.00    +0.047 C 
ATOM     16  C   UNL     1      -0.080  -0.365   0.295  0.00  0.00    -0.012 A 
ATOM     17  C   UNL     1      -0.829  -0.993  -0.685  0.00  0.00    +0.007 A 
ATOM     18  C   UNL     1      -0.855  -2.369  -0.763  0.00  0.00    +0.016 A 
ATOM     19  C   UNL     1      -0.124  -3.133   0.150  0.00  0.00    +0.075 A 
ATOM     20  C   UNL     1       0.631  -2.496   1.138  0.00  0.00    +0.171 A 
ATOM     21  C   UNL     1       0.653  -1.112   1.201  0.00  0.00    +0.162 A 
ATOM     22  F   UNL     1       1.386  -0.491   2.151  0.00  0.00    -0.202 F 
ATOM     23  F   UNL     1       1.341  -3.226   2.025  0.00  0.00    -0.202 F 
ENDBRANCH   1  19
BRANCH   5  24
ATOM     24  C   UNL     1       0.104  -5.635  -4.729  0.00  0.00    +0.218 C 
ATOM     25  O   UNL     1      -1.071  -5.409  -4.931  0.00  0.00    -0.275 OA
ATOM     26  N   UNL     1       0.914  -5.956  -5.757  0.00  0.00    -0.312 N 
ATOM     27  H   UNL     1       1.853  -6.136  -5.596  0.00  0.00    +0.149 HD
BRANCH  26  28
ATOM     28  C   UNL     1       0.377  -6.032  -7.118  0.00  0.00    +0.148 C 
BRANCH  28  29
ATOM     29  C   UNL     1       1.497  -6.412  -8.088  0.00  0.00    +0.187 C 
ATOM     30  C   UNL     1       0.965  -6.370  -9.522  0.00  0.00    +0.053 C 
BRANCH  29  31
ATOM     31  O   UNL     1       1.959  -7.731  -7.790  0.00  0.00    -0.486 OA
BRANCH  31  32
ATOM     32  C   UNL     1       3.221  -8.046  -8.181  0.00  0.00    +0.139 A 
ATOM     33  C   UNL     1       4.016  -7.091  -8.799  0.00  0.00    +0.047 A 
ATOM     34  C   UNL     1       5.300  -7.413  -9.195  0.00  0.00    +0.004 A 
ATOM     35  C   UNL     1       5.793  -8.687  -8.978  0.00  0.00    +0.002 A 
ATOM     36  C   UNL     1       5.003  -9.641  -8.364  0.00  0.00    +0.023 A 
ATOM     37  C   UNL     1       3.720  -9.322  -7.959  0.00  0.00    +0.083 A 
ATOM     38 CL   UNL     1       2.732 -10.518  -7.181  0.00  0.00    -0.080 Cl
ENDBRANCH  31  32
ENDBRANCH  29  31
ENDBRANCH  28  29
ENDBRANCH  26  28
ENDBRANCH   5  24
TORSDOF 6
