REMARK  Name = ZINC00352179
REMARK  7 active torsions:
REMARK  status: ('A' for Active; 'I' for Inactive)
REMARK    1  A    between atoms: C_1  and  C_2
REMARK    2  A    between atoms: C_2  and  C_3
REMARK    3  A    between atoms: C_6  and  C_8
REMARK    4  A    between atoms: C_6  and  O_12
REMARK    5  A    between atoms: C_13  and  C_15
REMARK    6  A    between atoms: C_19  and  C_22
REMARK    7  A    between atoms: C_20  and  O_21
REMARK                            x       y       z     vdW  Elec       q    Type
REMARK                         _______ _______ _______ _____ _____    ______ ____
ROOT
ATOM      1  C   UNL     1      -0.039   1.025   2.492  0.00  0.00    +0.042 C 
ATOM      2  N   UNL     1       1.014   0.316   2.474  0.00  0.00    -0.183 NA
ATOM      3  N   UNL     1       1.527   0.011   3.732  0.00  0.00    -0.148 N 
ATOM      4  C   UNL     1       0.664   0.624   4.755  0.00  0.00    +0.257 C 
ATOM      5  C   UNL     1      -0.421   1.336   3.922  0.00  0.00    +0.118 C 
ATOM      6  C   UNL     1       2.631  -0.724   3.974  0.00  0.00    +0.272 C 
ATOM      7  O   UNL     1       3.030  -0.865   5.114  0.00  0.00    -0.268 OA
ENDROOT
BRANCH   6   8
ATOM      8  C   UNL     1       3.355  -1.357   2.856  0.00  0.00    +0.080 A 
ATOM      9  C   UNL     1       2.974  -1.098   1.536  0.00  0.00    +0.017 A 
ATOM     10  C   UNL     1       3.655  -1.692   0.496  0.00  0.00    +0.001 A 
ATOM     11  C   UNL     1       4.716  -2.546   0.752  0.00  0.00    +0.007 A 
ATOM     12  C   UNL     1       5.103  -2.810   2.050  0.00  0.00    -0.008 A 
ATOM     13  C   UNL     1       4.432  -2.217   3.110  0.00  0.00    +0.132 A 
ATOM     14  C   UNL     1       6.258  -3.739   2.317  0.00  0.00    +0.047 C 
BRANCH  13  15
ATOM     15  O   UNL     1       4.814  -2.471   4.386  0.00  0.00    -0.506 OA
ATOM     16  H   UNL     1       4.370  -3.232   4.786  0.00  0.00    +0.292 HD
ENDBRANCH  13  15
ENDBRANCH   6   8
BRANCH   4  17
ATOM     17  C   UNL     1       1.450   1.639   5.587  0.00  0.00    +0.438 C 
ATOM     18  F   UNL     1       1.973   2.627   4.746  0.00  0.00    -0.166 F 
ATOM     19  F   UNL     1       0.600   2.230   6.528  0.00  0.00    -0.166 F 
ATOM     20  F   UNL     1       2.497   0.989   6.249  0.00  0.00    -0.166 F 
ENDBRANCH   4  17
BRANCH   1  22
ATOM     21  C   UNL     1      -0.090   0.980   0.013  0.00  0.00    +0.010 C 
ATOM     22  C   UNL     1      -0.791   1.493   1.273  0.00  0.00    +0.049 C 
ENDBRANCH   1  22
BRANCH   4  23
ATOM     23  O   UNL     1       0.089  -0.378   5.597  0.00  0.00    -0.363 OA
ATOM     24  H   UNL     1       0.738  -0.898   6.089  0.00  0.00    +0.212 HD
ENDBRANCH   4  23
TORSDOF 5
