REMARK  Name = ZINC21342767
REMARK  7 active torsions:
REMARK  status: ('A' for Active; 'I' for Inactive)
REMARK    1  A    between atoms: C_7  and  C_20
REMARK    2  A    between atoms: C_7  and  O_32
REMARK    3  A    between atoms: N_10  and  C_11
REMARK    4  A    between atoms: C_11  and  C_12
REMARK    5  A    between atoms: C_20  and  C_21
REMARK    6  A    between atoms: C_21  and  C_23
REMARK    7  A    between atoms: C_26  and  N_29
REMARK                            x       y       z     vdW  Elec       q    Type
REMARK                         _______ _______ _______ _____ _____    ______ ____
ROOT
ATOM      1  C   UNL     1      -3.200   4.137   0.051  0.00  0.00    +0.000 A 
ATOM      2  C   UNL     1      -3.521   2.791   0.047  0.00  0.00    +0.002 A 
ATOM      3  C   UNL     1      -2.526   1.837   0.034  0.00  0.00    +0.024 A 
ATOM      4  C   UNL     1      -1.187   2.223   0.019  0.00  0.00    +0.043 A 
ATOM      5  C   UNL     1      -0.877   3.577   0.028  0.00  0.00    +0.015 A 
ATOM      6  C   UNL     1      -1.873   4.527   0.041  0.00  0.00    +0.009 A 
ATOM      7  C   UNL     1       0.631   3.668   0.015  0.00  0.00    +0.175 C 
ATOM      8  C   UNL     1       1.087   2.225   0.004  0.00  0.00    +0.257 C 
ATOM      9  O   UNL     1       2.235   1.832  -0.009  0.00  0.00    -0.272 OA
ATOM     10  N   UNL     1      -0.018   1.461   0.010  0.00  0.00    -0.264 N 
ENDROOT
BRANCH   7  11
ATOM     11  O   UNL     1       1.103   4.333   1.188  0.00  0.00    -0.374 OA
ATOM     12  H   UNL     1       2.182   4.485   1.338  0.00  0.00    +0.211 HD
ENDBRANCH   7  11
BRANCH  10  13
ATOM     13  C   UNL     1       0.002  -0.004   0.002  0.00  0.00    +0.149 C 
BRANCH  13  14
ATOM     14  C   UNL     1       0.022  -0.514   1.420  0.00  0.00    -0.028 A 
ATOM     15  C   UNL     1       1.228  -0.737   2.057  0.00  0.00    +0.007 A 
ATOM     16  C   UNL     1       1.248  -1.200   3.359  0.00  0.00    +0.022 A 
ATOM     17  C   UNL     1       0.060  -1.451   4.022  0.00  0.00    +0.059 A 
ATOM     18  C   UNL     1      -1.148  -1.232   3.382  0.00  0.00    +0.060 A 
ATOM     19  C   UNL     1      -1.166  -0.764   2.081  0.00  0.00    +0.026 A 
ATOM     20 CL   UNL     1      -2.640  -1.546   4.213  0.00  0.00    -0.082 Cl
ATOM     21 CL   UNL     1       0.084  -2.039   5.655  0.00  0.00    -0.082 Cl
ENDBRANCH  13  14
ENDBRANCH  10  13
BRANCH   7  22
ATOM     22  C   UNL     1       1.116   4.394  -1.242  0.00  0.00    +0.129 C 
BRANCH  22  23
ATOM     23  C   UNL     1       2.616   4.282  -1.340  0.00  0.00    +0.167 C 
ATOM     24  O   UNL     1       3.236   3.681  -0.488  0.00  0.00    -0.292 OA
BRANCH  23  25
ATOM     25  C   UNL     1       3.328   4.901  -2.469  0.00  0.00    +0.018 A 
ATOM     26  C   UNL     1       2.616   5.590  -3.456  0.00  0.00    +0.013 A 
ATOM     27  C   UNL     1       3.291   6.171  -4.509  0.00  0.00    +0.033 A 
ATOM     28  C   UNL     1       4.668   6.066  -4.595  0.00  0.00    +0.126 A 
ATOM     29  C   UNL     1       5.380   5.382  -3.624  0.00  0.00    +0.033 A 
ATOM     30  C   UNL     1       4.720   4.800  -2.563  0.00  0.00    +0.013 A 
BRANCH  28  31
ATOM     31  N   UNL     1       5.385   6.689  -5.730  0.00  0.00    +0.056 N 
ATOM     32  O   UNL     1       6.597   6.599  -5.809  0.00  0.00    -0.126 OA
ATOM     33  O   UNL     1       4.762   7.292  -6.586  0.00  0.00    -0.126 OA
ENDBRANCH  28  31
ENDBRANCH  23  25
ENDBRANCH  22  23
ENDBRANCH   7  22
TORSDOF 7
