REMARK  Name = ZINC12166423
REMARK  13 active torsions:
REMARK  status: ('A' for Active; 'I' for Inactive)
REMARK    1  A    between atoms: C_1  and  C_2
REMARK    2  A    between atoms: C_3  and  C_4
REMARK    3  A    between atoms: C_3  and  C_5
REMARK    4  A    between atoms: C_10  and  C_13
REMARK    5  A    between atoms: C_13  and  C_25
REMARK    6  A    between atoms: N_16  and  C_20
REMARK    7  A    between atoms: C_20  and  C_21
REMARK    8  A    between atoms: C_21  and  C_22
REMARK    9  A    between atoms: C_22  and  N_71
REMARK   10  A    between atoms: C_23  and  N_71
REMARK   11  A    between atoms: C_24  and  N_71
REMARK   12  A    between atoms: C_25  and  C_26
REMARK   13  A    between atoms: C_31  and  C_32
REMARK                            x       y       z     vdW  Elec       q    Type
REMARK                         _______ _______ _______ _____ _____    ______ ____
ROOT
ATOM      1  C   UNL     1       1.154  -0.371   8.571  0.00  0.00    +0.119 C 
ATOM      2  C   UNL     1       1.261   0.177   9.981  0.00  0.00    +0.247 C 
ATOM      3  O   UNL     1       2.036   1.017  10.383  0.00  0.00    -0.273 OA
ATOM      4  N   UNL     1       0.314  -0.466  10.693  0.00  0.00    -0.224 N 
ATOM      5  C   UNL     1      -0.368  -1.334   9.938  0.00  0.00    +0.309 C 
ATOM      6  O   UNL     1      -1.271  -2.030  10.358  0.00  0.00    -0.252 OA
ATOM      7  N   UNL     1       0.057  -1.350   8.662  0.00  0.00    -0.284 N 
ATOM      8  H   UNL     1      -0.291  -1.899   7.942  0.00  0.00    +0.151 HD
ENDROOT
BRANCH   1  14
ATOM      9  C   UNL     1      -1.976   2.246   4.957  0.00  0.00    +0.242 C 
ATOM     10  O   UNL     1      -2.080   1.688   3.881  0.00  0.00    -0.270 OA
ATOM     11  N   UNL     1      -0.884   2.042   5.719  0.00  0.00    -0.298 N 
ATOM     12  C   UNL     1       0.252   1.263   5.207  0.00  0.00    +0.108 C 
ATOM     13  C   UNL     1       0.575   0.145   6.196  0.00  0.00    +0.025 C 
ATOM     14  C   UNL     1       0.800   0.745   7.586  0.00  0.00    +0.025 C 
ATOM     15  C   UNL     1      -0.476   1.450   8.051  0.00  0.00    +0.025 C 
ATOM     16  C   UNL     1      -0.809   2.588   7.081  0.00  0.00    +0.108 C 
BRANCH   9  19
ATOM     17  C   UNL     1      -5.366   3.948   5.415  0.00  0.00    +0.035 C 
ATOM     18  C   UNL     1      -4.274   3.028   4.935  0.00  0.00    -0.022 C 
ATOM     19  C   UNL     1      -3.042   3.145   5.425  0.00  0.00    +0.007 C 
ATOM     20  C   UNL     1      -2.740   4.199   6.459  0.00  0.00    +0.049 C 
ENDBRANCH   9  19
ENDBRANCH   1  14
BRANCH   4  21
ATOM     21  C   UNL     1       0.064  -0.242  12.119  0.00  0.00    +0.116 C 
BRANCH  21  22
ATOM     22  C   UNL     1       0.928  -1.198  12.945  0.00  0.00    +0.001 C 
BRANCH  22  23
ATOM     23  C   UNL     1       0.667  -0.964  14.434  0.00  0.00    -0.078 C 
BRANCH  23  26
ATOM     24  C   UNL     1       2.923  -1.572  15.069  0.00  0.00    -0.097 C 
ATOM     25  C   UNL     1       1.104  -1.855  16.642  0.00  0.00    -0.097 C 
ATOM     26  N   UNL     1       1.491  -1.909  15.217  0.00  0.00    +0.376 N 
ATOM     27  H   UNL     1       1.334  -2.860  14.864  0.00  0.00    -0.083 HD
ENDBRANCH  23  26
ENDBRANCH  22  23
ENDBRANCH  21  22
ENDBRANCH   4  21
BRANCH   1  28
ATOM     28  C   UNL     1       2.457  -1.058   8.157  0.00  0.00    +0.071 C 
BRANCH  28  29
ATOM     29  C   UNL     1       2.709  -2.240   9.058  0.00  0.00    -0.042 A 
ATOM     30  C   UNL     1       2.089  -3.449   8.802  0.00  0.00    +0.004 A 
ATOM     31  C   UNL     1       2.321  -4.532   9.628  0.00  0.00    +0.000 A 
ATOM     32  C   UNL     1       3.173  -4.407  10.710  0.00  0.00    +0.000 A 
ATOM     33  C   UNL     1       3.793  -3.199  10.965  0.00  0.00    +0.003 A 
ATOM     34  C   UNL     1       3.565  -2.116  10.136  0.00  0.00    -0.047 A 
ATOM     35  C   UNL     1       4.246  -0.800  10.411  0.00  0.00    +0.044 C 
ENDBRANCH  28  29
ENDBRANCH   1  28
TORSDOF 8
