REMARK  Name = ZINC31870576
REMARK  8 active torsions:
REMARK  status: ('A' for Active; 'I' for Inactive)
REMARK    1  A    between atoms: C_1  and  C_2
REMARK    2  A    between atoms: C_5  and  N_8
REMARK    3  A    between atoms: C_18  and  S_19
REMARK    4  A    between atoms: S_19  and  C_20
REMARK    5  A    between atoms: C_20  and  C_21
REMARK    6  A    between atoms: N_23  and  N_24
REMARK    7  A    between atoms: C_25  and  C_26
REMARK    8  A    between atoms: C_30  and  O_32
REMARK                            x       y       z     vdW  Elec       q    Type
REMARK                         _______ _______ _______ _____ _____    ______ ____
ROOT
ATOM      1  N   UNL     1      -8.870   5.596  -0.616  0.00  0.00    -0.255 N 
ATOM      2  C   UNL     1      -9.936   4.764  -0.560  0.00  0.00    +0.267 A 
ATOM      3  O   UNL     1     -11.071   5.183  -0.693  0.00  0.00    -0.267 OA
ATOM      4  C   UNL     1      -9.673   3.337  -0.331  0.00  0.00    +0.065 A 
ATOM      5  C   UNL     1     -10.703   2.401  -0.257  0.00  0.00    +0.015 A 
ATOM      6  C   UNL     1     -10.403   1.084  -0.043  0.00  0.00    +0.001 A 
ATOM      7  C   UNL     1      -9.085   0.671   0.101  0.00  0.00    +0.002 A 
ATOM      8  C   UNL     1      -8.055   1.567   0.033  0.00  0.00    +0.028 A 
ATOM      9  C   UNL     1      -8.330   2.921  -0.185  0.00  0.00    +0.079 A 
ATOM     10  N   UNL     1      -7.341   3.841  -0.264  0.00  0.00    -0.223 NA
ATOM     11  C   UNL     1      -7.601   5.110  -0.464  0.00  0.00    +0.177 A 
ENDROOT
BRANCH   1  16
ATOM     12  C   UNL     1      -9.674  11.145  -1.489  0.00  0.00    +0.044 C 
ATOM     13  C   UNL     1      -9.460   9.672  -1.257  0.00  0.00    -0.050 A 
ATOM     14  C   UNL     1      -9.776   8.764  -2.252  0.00  0.00    +0.005 A 
ATOM     15  C   UNL     1      -9.581   7.413  -2.042  0.00  0.00    +0.026 A 
ATOM     16  C   UNL     1      -9.068   6.966  -0.832  0.00  0.00    +0.052 A 
ATOM     17  C   UNL     1      -8.757   7.880   0.167  0.00  0.00    +0.026 A 
ATOM     18  C   UNL     1      -8.949   9.230  -0.051  0.00  0.00    +0.005 A 
ENDBRANCH   1  16
BRANCH  11  19
ATOM     19  S   UNL     1      -6.252   6.241  -0.548  0.00  0.00    -0.078 S 
BRANCH  19  20
ATOM     20  C   UNL     1      -4.870   5.101  -0.291  0.00  0.00    +0.174 C 
BRANCH  20  21
ATOM     21  C   UNL     1      -3.573   5.868  -0.324  0.00  0.00    +0.242 C 
ATOM     22  O   UNL     1      -3.583   7.068  -0.503  0.00  0.00    -0.273 OA
ATOM     23  N   UNL     1      -2.403   5.221  -0.154  0.00  0.00    -0.206 N 
ATOM     24  H   UNL     1      -2.394   4.133   0.008  0.00  0.00    +0.177 HD
BRANCH  23  25
ATOM     25  N   UNL     1      -1.197   5.935  -0.185  0.00  0.00    -0.188 NA
ATOM     26  C   UNL     1      -0.067   5.299  -0.148  0.00  0.00    +0.138 C 
BRANCH  26  27
ATOM     27  C   UNL     1       0.014   3.908  -0.630  0.00  0.00    -0.002 A 
ATOM     28  C   UNL     1      -1.021   3.372  -1.400  0.00  0.00    +0.010 A 
ATOM     29  C   UNL     1      -0.939   2.072  -1.855  0.00  0.00    +0.004 A 
ATOM     30  C   UNL     1       0.159   1.292  -1.540  0.00  0.00    +0.045 A 
ATOM     31  C   UNL     1       1.192   1.816  -0.775  0.00  0.00    +0.117 A 
ATOM     32  C   UNL     1       1.124   3.121  -0.318  0.00  0.00    +0.054 A 
BRANCH  31  33
ATOM     33  O   UNL     1       2.272   1.047  -0.474  0.00  0.00    -0.507 OA
ATOM     34  H   UNL     1       3.091   1.461   0.133  0.00  0.00    +0.292 HD
ENDBRANCH  31  33
ENDBRANCH  26  27
ENDBRANCH  23  25
ENDBRANCH  20  21
ENDBRANCH  19  20
ENDBRANCH  11  19
TORSDOF 7
