REMARK  Name = ZINC01606451
REMARK  3 active torsions:
REMARK  status: ('A' for Active; 'I' for Inactive)
REMARK    1  A    between atoms: C_1  and  N_12
REMARK    2  A    between atoms: C_2  and  O_11
REMARK    3  A    between atoms: C_13  and  C_15
REMARK                            x       y       z     vdW  Elec       q    Type
REMARK                         _______ _______ _______ _____ _____    ______ ____
ROOT
ATOM      1  C   UNL     1      -1.226  -2.101  -0.056  0.00  0.00    +0.159 A 
ATOM      2  C   UNL     1      -2.436  -2.732  -0.121  0.00  0.00    +0.221 A 
ATOM      3  N   UNL     1      -2.478  -4.104  -0.188  0.00  0.00    -0.277 N 
ATOM      4  H   UNL     1      -3.360  -4.571  -0.243  0.00  0.00    +0.173 HD
ATOM      5  C   UNL     1      -1.341  -4.823  -0.181  0.00  0.00    +0.329 A 
ATOM      6  O   UNL     1      -1.399  -6.036  -0.236  0.00  0.00    -0.247 OA
ATOM      7  N   UNL     1      -0.140  -4.221  -0.113  0.00  0.00    -0.273 N 
ATOM      8  H   UNL     1       0.693  -4.774  -0.109  0.00  0.00    +0.173 HD
ATOM      9  C   UNL     1      -0.049  -2.877  -0.050  0.00  0.00    +0.279 A 
ATOM     10  O   UNL     1       1.042  -2.338   0.011  0.00  0.00    -0.266 OA
ENDROOT
BRANCH   1  11
ATOM     11  N   UNL     1      -1.156  -0.694   0.009  0.00  0.00    -0.274 N 
ATOM     12  C   UNL     1      -0.500  -0.006  -0.947  0.00  0.00    +0.269 C 
ATOM     13  O   UNL     1       0.101  -0.601  -1.817  0.00  0.00    -0.271 OA
ATOM     14  H   UNL     1      -1.579  -0.221   0.743  0.00  0.00    +0.155 HD
BRANCH  12  15
ATOM     15  C   UNL     1      -0.514   1.500  -0.935  0.00  0.00    +0.267 C 
ATOM     16 CL   UNL     1       0.444   2.121  -2.331  0.00  0.00    -0.074 Cl
ATOM     17 CL   UNL     1      -2.214   2.087  -1.066  0.00  0.00    -0.074 Cl
ATOM     18 CL   UNL     1       0.211   2.096   0.604  0.00  0.00    -0.074 Cl
ENDBRANCH  12  15
ENDBRANCH   1  11
BRANCH   2  19
ATOM     19  O   UNL     1      -3.580  -2.014  -0.123  0.00  0.00    -0.492 OA
ATOM     20  H   UNL     1      -4.382  -2.553  -0.172  0.00  0.00    +0.294 HD
ENDBRANCH   2  19
TORSDOF 3
