REMARK  Name = ZINC63514971
REMARK  11 active torsions:
REMARK  status: ('A' for Active; 'I' for Inactive)
REMARK    1  A    between atoms: C_1  and  C_2
REMARK    2  A    between atoms: C_4  and  C_17
REMARK    3  A    between atoms: C_7  and  O_12
REMARK    4  A    between atoms: O_12  and  C_13
REMARK    5  A    between atoms: C_17  and  C_18
REMARK    6  A    between atoms: C_18  and  N_19
REMARK    7  A    between atoms: C_20  and  C_22
REMARK    8  A    between atoms: C_28  and  C_30
REMARK    9  A    between atoms: C_30  and  O_32
REMARK   10  A    between atoms: O_32  and  C_33
REMARK   11  A    between atoms: C_33  and  C_34
REMARK                            x       y       z     vdW  Elec       q    Type
REMARK                         _______ _______ _______ _____ _____    ______ ____
ROOT
ATOM      1  C   UNL     1      -3.765  -1.048  -0.551  0.00  0.00    +0.108 C 
ENDROOT
BRANCH   1   2
ATOM      2  N   UNL     1      -4.819  -0.825  -1.544  0.00  0.00    -0.315 N 
ATOM      3  C   UNL     1      -6.036  -1.378  -1.371  0.00  0.00    +0.217 C 
ATOM      4  O   UNL     1      -6.259  -2.061  -0.394  0.00  0.00    -0.275 OA
ATOM      5  H   UNL     1      -4.641  -0.279  -2.326  0.00  0.00    +0.149 HD
BRANCH   3   6
ATOM      6  C   UNL     1      -7.120  -1.149  -2.393  0.00  0.00    +0.089 C 
ATOM      7  C   UNL     1      -6.661  -1.682  -3.752  0.00  0.00    +0.013 C 
ATOM      8  C   UNL     1      -7.762  -1.449  -4.789  0.00  0.00    +0.001 C 
ATOM      9  C   UNL     1      -9.033  -2.182  -4.356  0.00  0.00    +0.001 C 
ATOM     10  C   UNL     1      -9.492  -1.649  -2.998  0.00  0.00    +0.015 C 
ATOM     11  C   UNL     1      -8.392  -1.882  -1.961  0.00  0.00    +0.110 C 
BRANCH  11  12
ATOM     12  C   UNL     1      -8.843  -1.357  -0.622  0.00  0.00    +0.311 C 
ATOM     13  O   UNL     1      -8.213  -0.486  -0.071  0.00  0.00    -0.251 OA
BRANCH  12  14
ATOM     14  O   UNL     1      -9.946  -1.857  -0.043  0.00  0.00    -0.455 OA
BRANCH  14  15
ATOM     15  C   UNL     1     -10.316  -1.312   1.226  0.00  0.00    +0.345 C 
BRANCH  15  16
ATOM     16  C   UNL     1     -11.588  -2.001   1.725  0.00  0.00    +0.424 C 
ATOM     17  F   UNL     1     -11.354  -3.374   1.857  0.00  0.00    -0.167 F 
ATOM     18  F   UNL     1     -11.950  -1.468   2.967  0.00  0.00    -0.167 F 
ATOM     19  F   UNL     1     -12.623  -1.791   0.808  0.00  0.00    -0.167 F 
ENDBRANCH  15  16
ENDBRANCH  14  15
ENDBRANCH  12  14
ENDBRANCH  11  12
ENDBRANCH   3   6
ENDBRANCH   1   2
BRANCH   1  20
ATOM     20  C   UNL     1      -2.494  -0.315  -0.984  0.00  0.00    +0.052 C 
BRANCH  20  23
ATOM     21  C   UNL     1      -0.019   1.526   0.010  0.00  0.00    +0.035 C 
ATOM     22  C   UNL     1       0.002  -0.004   0.002  0.00  0.00    +0.103 C 
ATOM     23  C   UNL     1      -1.410  -0.545   0.038  0.00  0.00    -0.037 C 
ATOM     24  C   UNL     1      -1.503  -1.275   1.172  0.00  0.00    +0.003 A 
ATOM     25  C   UNL     1      -2.598  -2.045   1.773  0.00  0.00    +0.056 A 
ATOM     26  C   UNL     1      -2.393  -2.691   2.946  0.00  0.00    +0.129 A 
ATOM     27  C   UNL     1      -1.160  -2.651   3.620  0.00  0.00    +0.048 A 
ATOM     28  C   UNL     1      -0.095  -1.970   3.147  0.00  0.00    +0.029 A 
ATOM     29  C   UNL     1      -0.204  -1.234   1.883  0.00  0.00    +0.043 A 
ATOM     30  N   UNL     1       0.658  -0.508   1.214  0.00  0.00    -0.378 N 
ATOM     31  H   UNL     1       1.576  -0.332   1.476  0.00  0.00    +0.160 HD
BRANCH  26  32
ATOM     32  O   UNL     1      -3.416  -3.401   3.491  0.00  0.00    -0.420 OA
BRANCH  32  33
ATOM     33  C   UNL     1      -3.157  -4.065   4.729  0.00  0.00    +0.489 C 
ATOM     34  F   UNL     1      -2.114  -4.981   4.558  0.00  0.00    -0.149 F 
ATOM     35  F   UNL     1      -2.796  -3.122   5.698  0.00  0.00    -0.149 F 
ATOM     36 CL   UNL     1      -4.641  -4.939   5.265  0.00  0.00    +0.000 Cl
ENDBRANCH  32  33
ENDBRANCH  26  32
ENDBRANCH  20  23
ENDBRANCH   1  20
TORSDOF 10
