REMARK  Name = ZINC39551093
REMARK  12 active torsions:
REMARK  status: ('A' for Active; 'I' for Inactive)
REMARK    1  A    between atoms: C_1  and  O_2
REMARK    2  A    between atoms: O_2  and  C_3
REMARK    3  A    between atoms: C_6  and  C_11
REMARK    4  A    between atoms: C_8  and  O_9
REMARK    5  A    between atoms: O_9  and  C_10
REMARK    6  A    between atoms: C_12  and  C_21
REMARK    7  A    between atoms: C_15  and  C_17
REMARK    8  A    between atoms: C_24  and  O_28
REMARK    9  A    between atoms: C_26  and  O_27
REMARK   10  A    between atoms: O_28  and  C_29
REMARK   11  A    between atoms: C_29  and  C_30
REMARK   12  A    between atoms: N_32  and  N_33
REMARK                            x       y       z     vdW  Elec       q    Type
REMARK                         _______ _______ _______ _____ _____    ______ ____
ROOT
ATOM      1  C   UNL     1       2.392  -2.684  -4.329  0.00  0.00    +0.022 C 
ATOM      2  C   UNL     1       3.661  -3.189  -4.378  0.00  0.00    +0.102 C 
ATOM      3  N   UNL     1       4.015  -3.432  -5.660  0.00  0.00    -0.153 NA
ATOM      4  N   UNL     1       3.151  -3.158  -6.494  0.00  0.00    -0.170 NA
ATOM      5  C   UNL     1       1.968  -2.640  -5.787  0.00  0.00    +0.264 C 
ENDROOT
BRANCH   1   9
ATOM      6  C   UNL     1       0.157  -1.522  -0.914  0.00  0.00    +0.162 A 
ATOM      7  C   UNL     1       0.546  -0.568  -1.845  0.00  0.00    +0.050 A 
ATOM      8  C   UNL     1       1.272  -0.940  -2.955  0.00  0.00    +0.012 A 
ATOM      9  C   UNL     1       1.619  -2.284  -3.147  0.00  0.00    -0.014 A 
ATOM     10  C   UNL     1       1.226  -3.244  -2.207  0.00  0.00    +0.057 A 
ATOM     11  C   UNL     1       0.503  -2.861  -1.094  0.00  0.00    +0.162 A 
BRANCH   6  13
ATOM     12  C   UNL     1      -0.880   0.239   0.301  0.00  0.00    +0.277 C 
ATOM     13  O   UNL     1      -0.559  -1.149   0.178  0.00  0.00    -0.491 OA
ENDBRANCH   6  13
BRANCH  11  14
ATOM     14  O   UNL     1       0.123  -3.790  -0.176  0.00  0.00    -0.491 OA
ATOM     15  C   UNL     1       0.512  -5.143  -0.424  0.00  0.00    +0.277 C 
ENDBRANCH  11  14
ENDBRANCH   1   9
BRANCH   2  16
ATOM     16  C   UNL     1       4.523  -3.433  -3.200  0.00  0.00    +0.044 A 
ATOM     17  C   UNL     1       4.813  -2.392  -2.317  0.00  0.00    +0.017 A 
ATOM     18  C   UNL     1       5.615  -2.623  -1.220  0.00  0.00    +0.046 A 
ATOM     19  C   UNL     1       6.138  -3.890  -0.991  0.00  0.00    +0.125 A 
ATOM     20  C   UNL     1       5.854  -4.931  -1.863  0.00  0.00    +0.091 A 
ATOM     21  C   UNL     1       5.045  -4.710  -2.964  0.00  0.00    +0.130 A 
BRANCH  21  22
ATOM     22  O   UNL     1       4.762  -5.730  -3.816  0.00  0.00    -0.506 OA
ATOM     23  H   UNL     1       5.434  -5.871  -4.497  0.00  0.00    +0.292 HD
ENDBRANCH  21  22
BRANCH  19  24
ATOM     24  O   UNL     1       6.929  -4.110   0.092  0.00  0.00    -0.483 OA
BRANCH  24  25
ATOM     25  C   UNL     1       7.181  -2.995   0.949  0.00  0.00    +0.325 C 
BRANCH  25  26
ATOM     26  C   UNL     1       8.070  -3.427   2.087  0.00  0.00    +0.264 C 
ATOM     27  O   UNL     1       8.450  -4.576   2.156  0.00  0.00    -0.271 OA
ATOM     28  N   UNL     1       8.442  -2.535   3.026  0.00  0.00    -0.251 N 
ATOM     29  H   UNL     1       8.138  -1.616   2.971  0.00  0.00    +0.169 HD
BRANCH  28  30
ATOM     30  N   UNL     1       9.248  -2.926   4.058  0.00  0.00    -0.254 NA
ATOM     31  H   UNL     1      10.104  -3.336   3.713  0.00  0.00    +0.140 HD
ATOM     32  H   UNL     1       9.441  -2.155   4.678  0.00  0.00    +0.140 HD
ENDBRANCH  28  30
ENDBRANCH  25  26
ENDBRANCH  24  25
ENDBRANCH  19  24
ENDBRANCH   2  16
BRANCH   5  33
ATOM     33  C   UNL     1       0.755  -3.542  -6.024  0.00  0.00    +0.418 C 
ATOM     34  F   UNL     1      -0.311  -3.108  -5.230  0.00  0.00    -0.168 F 
ATOM     35  F   UNL     1       0.387  -3.484  -7.372  0.00  0.00    -0.168 F 
ATOM     36  F   UNL     1       1.081  -4.860  -5.686  0.00  0.00    -0.168 F 
ENDBRANCH   5  33
TORSDOF 10
