REMARK  Name = ZINC15770176
REMARK  6 active torsions:
REMARK  status: ('A' for Active; 'I' for Inactive)
REMARK    1  A    between atoms: C_4  and  C_7
REMARK    2  A    between atoms: N_8  and  N_9
REMARK    3  A    between atoms: C_10  and  C_12
REMARK    4  A    between atoms: C_14  and  C_32
REMARK    5  A    between atoms: C_16  and  C_24
REMARK    6  A    between atoms: C_24  and  C_26
REMARK                            x       y       z     vdW  Elec       q    Type
REMARK                         _______ _______ _______ _____ _____    ______ ____
ROOT
ATOM      1  C   UNL     1       1.747  -1.778   0.637  0.00  0.00    +0.153 C 
ATOM      2  C   UNL     1       3.131  -2.086   0.013  0.00  0.00    +0.059 C 
ATOM      3  C   UNL     1       3.660  -0.661  -0.314  0.00  0.00    +0.092 C 
ATOM      4  C   UNL     1       2.380   0.060  -0.772  0.00  0.00    +0.090 C 
ATOM      5  C   UNL     1       0.002  -0.004   0.002  0.00  0.00    +0.053 C 
ATOM      6  C   UNL     1      -0.016   1.349   0.009  0.00  0.00    +0.013 C 
ATOM      7  C   UNL     1       1.251   2.090   0.001  0.00  0.00    -0.001 C 
ATOM      8  C   UNL     1       2.397   1.512  -0.364  0.00  0.00    -0.006 C 
ATOM      9  N   UNL     1       1.269  -0.752  -0.347  0.00  0.00    -0.384 NA
ATOM     10  H   UNL     1       1.009  -1.291  -1.182  0.00  0.00    +0.127 HD
ENDROOT
BRANCH   2  11
ATOM     11  C   UNL     1       4.028  -2.779   1.006  0.00  0.00    -0.041 A 
ATOM     12  C   UNL     1       4.235  -2.224   2.255  0.00  0.00    +0.004 A 
ATOM     13  C   UNL     1       5.054  -2.862   3.168  0.00  0.00    +0.000 A 
ATOM     14  C   UNL     1       5.674  -4.050   2.828  0.00  0.00    +0.000 A 
ATOM     15  C   UNL     1       5.471  -4.602   1.577  0.00  0.00    +0.000 A 
ATOM     16  C   UNL     1       4.649  -3.967   0.666  0.00  0.00    +0.004 A 
ENDBRANCH   2  11
BRANCH   1  18
ATOM     17  N   UNL     1       0.831  -4.005   1.204  0.00  0.00    -0.205 N 
ATOM     18  C   UNL     1       0.800  -2.926   0.397  0.00  0.00    +0.252 C 
ATOM     19  O   UNL     1       0.012  -2.879  -0.524  0.00  0.00    -0.272 OA
ATOM     20  H   UNL     1       1.461  -4.043   1.940  0.00  0.00    +0.177 HD
BRANCH  17  22
ATOM     21  C   UNL     1      -0.020  -6.111   1.757  0.00  0.00    +0.138 C 
ATOM     22  N   UNL     1      -0.049  -5.072   0.980  0.00  0.00    -0.188 NA
BRANCH  21  26
ATOM     23  C   UNL     1      -2.687  -9.342   1.080  0.00  0.00    +0.000 A 
ATOM     24  C   UNL     1      -1.788  -9.400   2.130  0.00  0.00    +0.001 A 
ATOM     25  C   UNL     1      -0.918  -8.354   2.356  0.00  0.00    +0.009 A 
ATOM     26  C   UNL     1      -0.947  -7.234   1.521  0.00  0.00    -0.005 A 
ATOM     27  C   UNL     1      -1.860  -7.180   0.466  0.00  0.00    +0.009 A 
ATOM     28  C   UNL     1      -2.721  -8.236   0.249  0.00  0.00    +0.001 A 
ENDBRANCH  21  26
ENDBRANCH  17  22
ENDBRANCH   1  18
BRANCH   3  29
ATOM     29  C   UNL     1       4.678  -0.707  -1.424  0.00  0.00    +0.169 C 
ATOM     30  O   UNL     1       4.673  -1.627  -2.215  0.00  0.00    -0.292 OA
BRANCH  29  31
ATOM     31  C   UNL     1       5.679   0.365  -1.550  0.00  0.00    +0.018 A 
ATOM     32  C   UNL     1       5.685   1.430  -0.644  0.00  0.00    +0.011 A 
ATOM     33  C   UNL     1       6.630   2.427  -0.764  0.00  0.00    +0.001 A 
ATOM     34  C   UNL     1       7.563   2.382  -1.785  0.00  0.00    +0.000 A 
ATOM     35  C   UNL     1       7.559   1.334  -2.689  0.00  0.00    +0.001 A 
ATOM     36  C   UNL     1       6.625   0.326  -2.579  0.00  0.00    +0.011 A 
ENDBRANCH  29  31
ENDBRANCH   3  29
TORSDOF 6
