REMARK  Name = ZINC12559675
REMARK  10 active torsions:
REMARK  status: ('A' for Active; 'I' for Inactive)
REMARK    1  A    between atoms: C_1  and  C_2
REMARK    2  A    between atoms: C_4  and  C_35
REMARK    3  A    between atoms: C_5  and  N_15
REMARK    4  A    between atoms: N_8  and  C_9
REMARK    5  A    between atoms: C_19  and  C_20
REMARK    6  A    between atoms: C_23  and  O_30
REMARK    7  A    between atoms: C_24  and  O_28
REMARK    8  A    between atoms: C_25  and  C_26
REMARK    9  A    between atoms: O_28  and  C_29
REMARK   10  A    between atoms: O_30  and  C_31
REMARK                            x       y       z     vdW  Elec       q    Type
REMARK                         _______ _______ _______ _____ _____    ______ ____
ROOT
ATOM      1  N   UNL     1      -4.452   6.831   0.436  0.00  0.00    -0.219 N 
ATOM      2  C   UNL     1      -3.638   7.846   0.195  0.00  0.00    +0.263 C 
ATOM      3  O   UNL     1      -2.440   7.686   0.055  0.00  0.00    -0.269 OA
ATOM      4  C   UNL     1      -4.260   9.185   0.105  0.00  0.00    +0.078 C 
ATOM      5  C   UNL     1      -3.684  10.393  -0.128  0.00  0.00    +0.029 C 
ATOM      6  S   UNL     1      -5.977   8.776   0.388  0.00  0.00    -0.061 S 
ATOM      7  C   UNL     1      -5.780   7.012   0.585  0.00  0.00    +0.125 C 
ATOM      8  S   UNL     1      -6.985   5.835   0.891  0.00  0.00    -0.027 S 
ENDROOT
BRANCH   1  12
ATOM      9  C   UNL     1      -1.278   3.481   0.939  0.00  0.00    +0.033 C 
ATOM     10  C   UNL     1      -2.776   3.667   1.190  0.00  0.00    +0.106 C 
ATOM     11  C   UNL     1      -3.080   5.118   1.480  0.00  0.00    -0.025 C 
ATOM     12  C   UNL     1      -3.922   5.536   0.532  0.00  0.00    +0.105 C 
ATOM     13  C   UNL     1      -4.202   4.434  -0.401  0.00  0.00    +0.266 C 
ATOM     14  O   UNL     1      -4.930   4.511  -1.372  0.00  0.00    -0.268 OA
ATOM     15  N   UNL     1      -3.538   3.328  -0.019  0.00  0.00    -0.260 N 
ATOM     16  C   UNL     1      -2.538   5.937   2.623  0.00  0.00    +0.043 C 
BRANCH  15  17
ATOM     17  C   UNL     1      -3.563   2.085  -0.659  0.00  0.00    +0.037 A 
ATOM     18  C   UNL     1      -2.823   1.025  -0.152  0.00  0.00    +0.023 A 
ATOM     19  C   UNL     1      -2.845  -0.199  -0.790  0.00  0.00    +0.002 A 
ATOM     20  C   UNL     1      -3.613  -0.374  -1.927  0.00  0.00    +0.000 A 
ATOM     21  C   UNL     1      -4.356   0.678  -2.432  0.00  0.00    +0.002 A 
ATOM     22  C   UNL     1      -4.333   1.907  -1.801  0.00  0.00    +0.023 A 
ENDBRANCH  15  17
ENDBRANCH   1  12
BRANCH   5  23
ATOM     23  C   UNL     1      -4.475  11.620   0.009  0.00  0.00    -0.006 A 
ATOM     24  C   UNL     1      -5.677  11.605   0.720  0.00  0.00    +0.012 A 
ATOM     25  C   UNL     1      -6.421  12.760   0.848  0.00  0.00    +0.050 A 
ATOM     26  C   UNL     1      -5.986  13.947   0.275  0.00  0.00    +0.162 A 
ATOM     27  C   UNL     1      -4.789  13.986  -0.440  0.00  0.00    +0.176 A 
ATOM     28  C   UNL     1      -4.021  12.826  -0.574  0.00  0.00    +0.115 A 
BRANCH  28  29
ATOM     29  C   UNL     1      -2.754  12.858  -1.321  0.00  0.00    +0.391 C 
ATOM     30  O   UNL     1      -2.747  12.637  -2.517  0.00  0.00    -0.240 OA
ATOM     31  O   UNL     1      -1.601  13.133  -0.680  0.00  0.00    -0.240 OA
ENDBRANCH  28  29
BRANCH  27  32
ATOM     32  O   UNL     1      -4.369  15.149  -0.999  0.00  0.00    -0.491 OA
ATOM     33  C   UNL     1      -3.539  15.992  -0.196  0.00  0.00    +0.277 C 
ENDBRANCH  27  32
BRANCH  26  34
ATOM     34  O   UNL     1      -6.730  15.075   0.411  0.00  0.00    -0.491 OA
ATOM     35  C   UNL     1      -7.945  14.966   1.154  0.00  0.00    +0.277 C 
ENDBRANCH  26  34
ENDBRANCH   5  23
TORSDOF 6
