REMARK  Name = ZINC64848197
REMARK  5 active torsions:
REMARK  status: ('A' for Active; 'I' for Inactive)
REMARK    1  A    between atoms: C_1  and  C_2
REMARK    2  A    between atoms: C_7  and  C_8
REMARK    3  A    between atoms: N_18  and  S_21
REMARK    4  A    between atoms: S_21  and  C_24
REMARK    5  A    between atoms: C_29  and  C_30
REMARK                            x       y       z     vdW  Elec       q    Type
REMARK                         _______ _______ _______ _____ _____    ______ ____
ROOT
ATOM      1  C   UNL     1      -0.959   1.115   0.480  0.00  0.00    +0.044 C 
ATOM      2  C   UNL     1      -1.020  -0.385   0.345  0.00  0.00    -0.045 A 
ATOM      3  C   UNL     1      -0.823  -0.975  -0.890  0.00  0.00    +0.005 A 
ATOM      4  C   UNL     1      -0.888  -2.349  -1.027  0.00  0.00    +0.025 A 
ATOM      5  C   UNL     1      -1.144  -3.143   0.080  0.00  0.00    +0.052 A 
ATOM      6  C   UNL     1      -1.322  -2.543   1.331  0.00  0.00    +0.070 A 
ATOM      7  C   UNL     1      -1.266  -1.169   1.459  0.00  0.00    -0.022 A 
ATOM      8  C   UNL     1      -1.476  -0.526   2.805  0.00  0.00    +0.046 C 
ATOM      9  N   UNL     1      -1.515  -3.380   2.440  0.00  0.00    -0.316 N 
ATOM     10  C   UNL     1      -1.888  -3.075   3.707  0.00  0.00    +0.092 A 
ATOM     11  C   UNL     1      -1.965  -4.227   4.411  0.00  0.00    +0.020 A 
ATOM     12  C   UNL     1      -1.617  -5.283   3.541  0.00  0.00    +0.025 A 
ATOM     13  C   UNL     1      -1.338  -4.743   2.349  0.00  0.00    +0.047 A 
ATOM     14  C   UNL     1      -0.885  -5.409   1.074  0.00  0.00    +0.075 C 
ATOM     15  N   UNL     1      -1.243  -4.534  -0.052  0.00  0.00    -0.331 N 
ATOM     16  C   UNL     1       0.629  -5.612   1.104  0.00  0.00    +0.049 C 
ATOM     17  C   UNL     1       1.083  -6.246  -0.214  0.00  0.00    +0.112 C 
ATOM     18  N   UNL     1       0.309  -7.475  -0.438  0.00  0.00    -0.176 NA
ATOM     19  C   UNL     1      -1.158  -7.404  -0.403  0.00  0.00    +0.112 C 
ATOM     20  C   UNL     1      -1.588  -6.757   0.917  0.00  0.00    +0.049 C 
ATOM     21  H   UNL     1      -1.549  -4.920  -0.887  0.00  0.00    +0.147 HD
ENDROOT
BRANCH  18  22
ATOM     22  S   UNL     1       1.077  -8.915  -0.723  0.00  0.00    +0.061 S 
ATOM     23  O   UNL     1       0.183  -9.706  -1.493  0.00  0.00    -0.153 OA
ATOM     24  O   UNL     1       2.388  -8.594  -1.168  0.00  0.00    -0.153 OA
BRANCH  22  25
ATOM     25  C   UNL     1       1.257  -9.726   0.831  0.00  0.00    +0.111 A 
ATOM     26  C   UNL     1       0.524 -10.865   1.104  0.00  0.00    +0.067 A 
ATOM     27  C   UNL     1       0.666 -11.503   2.325  0.00  0.00    +0.125 A 
ATOM     28  C   UNL     1       1.543 -10.997   3.271  0.00  0.00    +0.039 A 
ATOM     29  C   UNL     1       2.274  -9.858   2.995  0.00  0.00    +0.008 A 
ATOM     30  C   UNL     1       2.135  -9.225   1.774  0.00  0.00    -0.024 A 
ATOM     31  C   UNL     1       2.937  -7.985   1.472  0.00  0.00    +0.046 C 
ATOM     32  F   UNL     1      -0.049 -12.617   2.594  0.00  0.00    -0.205 F 
ENDBRANCH  22  25
ENDBRANCH  18  22
TORSDOF 2
