REMARK  Name = ZINC03584960
REMARK  8 active torsions:
REMARK  status: ('A' for Active; 'I' for Inactive)
REMARK    1  A    between atoms: C_1  and  O_2
REMARK    2  A    between atoms: O_2  and  C_3
REMARK    3  A    between atoms: C_6  and  C_20
REMARK    4  A    between atoms: C_8  and  C_9
REMARK    5  A    between atoms: C_9  and  N_10
REMARK    6  A    between atoms: N_21  and  N_22
REMARK    7  A    between atoms: C_23  and  C_25
REMARK    8  A    between atoms: C_25  and  C_26
REMARK                            x       y       z     vdW  Elec       q    Type
REMARK                         _______ _______ _______ _____ _____    ______ ____
ROOT
ATOM      1  C   UNL     1      -0.040   0.936  -0.138  0.00  0.00    +0.125 A 
ATOM      2  C   UNL     1       1.255   1.436  -0.196  0.00  0.00    +0.046 A 
ATOM      3  C   UNL     1       1.474   2.795  -0.146  0.00  0.00    +0.013 A 
ATOM      4  C   UNL     1       0.391   3.672  -0.037  0.00  0.00    -0.005 A 
ATOM      5  C   UNL     1      -0.910   3.165   0.021  0.00  0.00    +0.018 A 
ATOM      6  C   UNL     1      -1.120   1.804  -0.035  0.00  0.00    +0.012 A 
ENDROOT
BRANCH   1   8
ATOM      7  C   UNL     1       0.903  -1.240  -0.301  0.00  0.00    +0.277 C 
ATOM      8  O   UNL     1      -0.251  -0.405  -0.189  0.00  0.00    -0.495 OA
ENDBRANCH   1   8
BRANCH   4   9
ATOM      9  C   UNL     1       0.620   5.127   0.017  0.00  0.00    +0.138 C 
ATOM     10  N   UNL     1       1.829   5.596  -0.036  0.00  0.00    -0.188 NA
BRANCH  10  11
ATOM     11  N   UNL     1       2.047   6.979   0.015  0.00  0.00    -0.207 N 
ATOM     12  C   UNL     1       3.302   7.466  -0.041  0.00  0.00    +0.237 C 
ATOM     13  O   UNL     1       4.244   6.707  -0.135  0.00  0.00    -0.274 OA
ATOM     14  H   UNL     1       1.294   7.586   0.091  0.00  0.00    +0.177 HD
BRANCH  12  15
ATOM     15  C   UNL     1       3.536   8.954   0.015  0.00  0.00    +0.132 C 
BRANCH  15  16
ATOM     16  C   UNL     1       5.015   9.233  -0.065  0.00  0.00    -0.039 A 
ATOM     17  C   UNL     1       5.767   9.310   1.093  0.00  0.00    +0.004 A 
ATOM     18  C   UNL     1       7.125   9.561   1.019  0.00  0.00    +0.000 A 
ATOM     19  C   UNL     1       7.728   9.745  -0.211  0.00  0.00    +0.000 A 
ATOM     20  C   UNL     1       6.975   9.673  -1.368  0.00  0.00    +0.000 A 
ATOM     21  C   UNL     1       5.619   9.417  -1.295  0.00  0.00    +0.004 A 
ENDBRANCH  15  16
ENDBRANCH  12  15
ENDBRANCH  10  11
ENDBRANCH   4   9
BRANCH   6  22
ATOM     22  C   UNL     1      -2.522   1.256   0.021  0.00  0.00    +0.144 C 
BRANCH  22  23
ATOM     23  N   UNL     1      -2.812   0.791   1.384  0.00  0.00    -0.325 N 
ATOM     24  C   UNL     1      -2.442   1.804   2.374  0.00  0.00    +0.106 C 
ATOM     25  C   UNL     1      -2.792   1.276   3.771  0.00  0.00    +0.024 C 
ATOM     26  C   UNL     1      -4.317   1.208   3.880  0.00  0.00    +0.038 C 
ATOM     27  C   UNL     1      -4.883   0.541   2.652  0.00  0.00    -0.026 A 
ATOM     28  C   UNL     1      -4.137   0.372   1.498  0.00  0.00    +0.033 A 
ATOM     29  C   UNL     1      -4.719  -0.244   0.390  0.00  0.00    +0.023 A 
ATOM     30  C   UNL     1      -6.024  -0.685   0.442  0.00  0.00    +0.002 A 
ATOM     31  C   UNL     1      -6.764  -0.518   1.598  0.00  0.00    +0.000 A 
ATOM     32  C   UNL     1      -6.194   0.092   2.698  0.00  0.00    +0.005 A 
ENDBRANCH  22  23
ENDBRANCH   6  22
TORSDOF 7
