REMARK  Name = ZINC36647983
REMARK  11 active torsions:
REMARK  status: ('A' for Active; 'I' for Inactive)
REMARK    1  A    between atoms: C_1  and  C_2
REMARK    2  A    between atoms: C_4  and  C_35
REMARK    3  A    between atoms: N_11  and  C_12
REMARK    4  A    between atoms: C_12  and  C_13
REMARK    5  A    between atoms: C_13  and  C_14
REMARK    6  A    between atoms: C_14  and  N_15
REMARK    7  A    between atoms: N_15  and  C_16
REMARK    8  A    between atoms: N_15  and  C_17
REMARK    9  A    between atoms: C_18  and  C_20
REMARK   10  A    between atoms: N_25  and  S_27
REMARK   11  A    between atoms: S_27  and  C_30
REMARK                            x       y       z     vdW  Elec       q    Type
REMARK                         _______ _______ _______ _____ _____    ______ ____
ROOT
ATOM      1  C   UNL     1      -2.444   0.742   0.410  0.00  0.00    +0.044 C 
ATOM      2  C   UNL     1      -1.940  -0.673   0.295  0.00  0.00    -0.049 A 
ATOM      3  C   UNL     1      -1.636  -1.210  -0.948  0.00  0.00    +0.009 A 
ATOM      4  C   UNL     1      -1.176  -2.494  -1.080  0.00  0.00    -0.024 A 
ATOM      5  C   UNL     1      -0.995  -3.318   0.055  0.00  0.00    +0.083 A 
ATOM      6  C   UNL     1      -1.314  -2.738   1.304  0.00  0.00    +0.041 A 
ATOM      7  C   UNL     1      -1.769  -1.449   1.427  0.00  0.00    +0.020 A 
ATOM      8  S   UNL     1      -0.959  -4.059   2.437  0.00  0.00    -0.052 S 
ATOM      9  C   UNL     1      -0.427  -5.258   1.223  0.00  0.00    +0.168 A 
ATOM     10  N   UNL     1      -0.554  -4.593   0.098  0.00  0.00    -0.224 NA
ATOM     11  N   UNL     1       0.009  -6.559   1.419  0.00  0.00    -0.250 N 
ATOM     12  C   UNL     1       0.470  -7.279   0.378  0.00  0.00    +0.226 C 
ATOM     13  O   UNL     1       0.942  -8.381   0.564  0.00  0.00    -0.275 OA
ATOM     14  C   UNL     1      -0.859  -3.035  -2.451  0.00  0.00    +0.046 C 
ENDROOT
BRANCH  12  15
ATOM     15  C   UNL     1       0.400  -6.716  -1.018  0.00  0.00    +0.091 C 
ATOM     16  C   UNL     1       1.603  -5.801  -1.261  0.00  0.00    +0.015 C 
ATOM     17  C   UNL     1       1.516  -5.202  -2.667  0.00  0.00    +0.018 C 
ATOM     18  C   UNL     1       1.551  -6.332  -3.701  0.00  0.00    +0.109 C 
ATOM     19  N   UNL     1       0.485  -7.294  -3.388  0.00  0.00    -0.175 NA
ATOM     20  C   UNL     1       0.422  -7.862  -2.034  0.00  0.00    +0.122 C 
BRANCH  19  21
ATOM     21  S   UNL     1      -0.624  -7.729  -4.538  0.00  0.00    +0.067 S 
ATOM     22  O   UNL     1      -1.779  -8.175  -3.840  0.00  0.00    -0.152 OA
ATOM     23  O   UNL     1      -0.667  -6.668  -5.482  0.00  0.00    -0.152 OA
BRANCH  21  24
ATOM     24  C   UNL     1       0.026  -9.130  -5.385  0.00  0.00    +0.143 A 
ATOM     25  C   UNL     1      -0.133 -10.447  -5.104  0.00  0.00    +0.036 A 
ATOM     26  C   UNL     1       0.477 -11.384  -5.917  0.00  0.00    +0.010 A 
ATOM     27  C   UNL     1       1.216 -10.959  -6.970  0.00  0.00    +0.047 A 
ATOM     28  S   UNL     1       1.059  -9.185  -6.840  0.00  0.00    -0.077 S 
ENDBRANCH  21  24
ENDBRANCH  19  21
ENDBRANCH  12  15
BRANCH  11  29
ATOM     29  C   UNL     1      -0.033  -7.151   2.758  0.00  0.00    +0.114 C 
BRANCH  29  30
ATOM     30  C   UNL     1      -1.331  -7.943   2.926  0.00  0.00    +0.001 C 
BRANCH  30  31
ATOM     31  C   UNL     1      -1.433  -8.457   4.363  0.00  0.00    -0.078 C 
BRANCH  31  32
ATOM     32  N   UNL     1      -2.680  -9.217   4.524  0.00  0.00    +0.376 N 
ATOM     33  C   UNL     1      -2.721  -9.812   5.867  0.00  0.00    -0.097 C 
ATOM     34  C   UNL     1      -3.828  -8.317   4.352  0.00  0.00    -0.097 C 
ATOM     35  H   UNL     1      -2.719  -9.949   3.831  0.00  0.00    -0.083 HD
ENDBRANCH  31  32
ENDBRANCH  30  31
ENDBRANCH  29  30
ENDBRANCH  11  29
TORSDOF 7
