REMARK  Name = ZINC40109488
REMARK  13 active torsions:
REMARK  status: ('A' for Active; 'I' for Inactive)
REMARK    1  A    between atoms: C_1  and  C_2
REMARK    2  A    between atoms: C_2  and  C_3
REMARK    3  A    between atoms: C_3  and  C_4
REMARK    4  A    between atoms: C_4  and  N_5
REMARK    5  A    between atoms: C_6  and  C_30
REMARK    6  A    between atoms: C_8  and  C_13
REMARK    7  A    between atoms: C_13  and  C_15
REMARK    8  A    between atoms: C_19  and  O_21
REMARK    9  A    between atoms: O_21  and  C_22
REMARK   10  A    between atoms: C_22  and  C_23
REMARK   11  A    between atoms: C_33  and  C_36
REMARK   12  A    between atoms: C_36  and  C_37
REMARK   13  A    between atoms: C_36  and  C_38
REMARK                            x       y       z     vdW  Elec       q    Type
REMARK                         _______ _______ _______ _____ _____    ______ ____
ROOT
ATOM      1  N   UNL     1      -2.845  -2.512  -0.008  0.00  0.00    -0.284 N 
ATOM      2  C   UNL     1      -3.565  -2.914   1.206  0.00  0.00    +0.145 C 
ATOM      3  C   UNL     1      -4.919  -3.404   0.750  0.00  0.00    +0.076 C 
ATOM      4  C   UNL     1      -4.945  -3.282  -0.598  0.00  0.00    +0.249 C 
ATOM      5  C   UNL     1      -3.656  -2.724  -1.060  0.00  0.00    +0.288 C 
ATOM      6  O   UNL     1      -3.371  -2.493  -2.218  0.00  0.00    -0.266 OA
ATOM      7  O   UNL     1      -5.986  -3.615  -1.396  0.00  0.00    -0.282 OA
ENDROOT
BRANCH   2   8
ATOM      8  C   UNL     1      -2.821  -4.022   1.907  0.00  0.00    -0.022 A 
ATOM      9  C   UNL     1      -2.318  -5.084   1.180  0.00  0.00    +0.006 A 
ATOM     10  C   UNL     1      -1.635  -6.100   1.822  0.00  0.00    +0.004 A 
ATOM     11  C   UNL     1      -1.456  -6.053   3.192  0.00  0.00    -0.045 A 
ATOM     12  C   UNL     1      -1.959  -4.991   3.919  0.00  0.00    +0.004 A 
ATOM     13  C   UNL     1      -2.637  -3.972   3.276  0.00  0.00    +0.006 A 
BRANCH  11  14
ATOM     14  C   UNL     1      -0.713  -7.162   3.893  0.00  0.00    +0.013 C 
ATOM     15  C   UNL     1       0.515  -6.585   4.600  0.00  0.00    +0.012 C 
ATOM     16  C   UNL     1      -1.633  -7.820   4.923  0.00  0.00    +0.012 C 
ENDBRANCH  11  14
ENDBRANCH   2   8
BRANCH   3  17
ATOM     17  C   UNL     1      -5.998  -3.912   1.603  0.00  0.00    +0.195 C 
ATOM     18  O   UNL     1      -6.340  -5.077   1.521  0.00  0.00    -0.287 OA
BRANCH  17  19
ATOM     19  C   UNL     1      -6.670  -3.010   2.562  0.00  0.00    +0.026 A 
ATOM     20  C   UNL     1      -6.368  -1.646   2.571  0.00  0.00    +0.012 A 
ATOM     21  C   UNL     1      -6.997  -0.807   3.467  0.00  0.00    +0.004 A 
ATOM     22  C   UNL     1      -7.927  -1.312   4.358  0.00  0.00    +0.046 A 
ATOM     23  C   UNL     1      -8.235  -2.666   4.356  0.00  0.00    +0.122 A 
ATOM     24  C   UNL     1      -7.614  -3.516   3.457  0.00  0.00    +0.057 A 
BRANCH  23  25
ATOM     25  O   UNL     1      -9.149  -3.156   5.233  0.00  0.00    -0.487 OA
BRANCH  25  26
ATOM     26  C   UNL     1      -9.755  -2.222   6.129  0.00  0.00    +0.264 C 
BRANCH  26  27
ATOM     27  C   UNL     1     -10.735  -2.942   7.019  0.00  0.00    -0.010 A 
ATOM     28  C   UNL     1     -12.053  -3.078   6.628  0.00  0.00    +0.010 A 
ATOM     29  C   UNL     1     -12.953  -3.738   7.443  0.00  0.00    +0.039 A 
ATOM     30  C   UNL     1     -12.532  -4.264   8.653  0.00  0.00    +0.123 A 
ATOM     31  C   UNL     1     -11.211  -4.127   9.044  0.00  0.00    +0.039 A 
ATOM     32  C   UNL     1     -10.312  -3.471   8.225  0.00  0.00    +0.010 A 
ATOM     33  F   UNL     1     -13.410  -4.909   9.452  0.00  0.00    -0.205 F 
ENDBRANCH  26  27
ENDBRANCH  25  26
ENDBRANCH  23  25
ENDBRANCH  17  19
ENDBRANCH   3  17
BRANCH   1  34
ATOM     34  C   UNL     1      -1.485  -1.969  -0.064  0.00  0.00    +0.109 C 
BRANCH  34  35
ATOM     35  C   UNL     1      -1.539  -0.445   0.054  0.00  0.00    +0.019 C 
BRANCH  35  37
ATOM     36  C   UNL     1      -0.173   1.646   0.113  0.00  0.00    +0.004 C 
ATOM     37  C   UNL     1      -0.119   0.122  -0.005  0.00  0.00    -0.002 C 
ENDBRANCH  35  37
ENDBRANCH  34  35
ENDBRANCH   1  34
TORSDOF 10
