REMARK  Name = ZINC13059576
REMARK  10 active torsions:
REMARK  status: ('A' for Active; 'I' for Inactive)
REMARK    1  A    between atoms: C_1  and  C_2
REMARK    2  A    between atoms: C_5  and  N_8
REMARK    3  A    between atoms: C_9  and  C_11
REMARK    4  A    between atoms: C_11  and  N_58
REMARK    5  A    between atoms: C_12  and  N_58
REMARK    6  A    between atoms: C_13  and  C_14
REMARK    7  A    between atoms: C_13  and  N_58
REMARK    8  A    between atoms: C_14  and  C_15
REMARK    9  A    between atoms: N_17  and  C_18
REMARK   10  A    between atoms: C_19  and  C_28
REMARK                            x       y       z     vdW  Elec       q    Type
REMARK                         _______ _______ _______ _____ _____    ______ ____
ROOT
ATOM      1  C   UNL     1       5.908   2.438  -0.332  0.00  0.00    +0.077 C 
ENDROOT
BRANCH   1   2
ATOM      2  C   UNL     1       7.257   1.783  -0.479  0.00  0.00    +0.216 C 
ATOM      3  O   UNL     1       7.361   0.579  -0.379  0.00  0.00    -0.276 OA
ATOM      4  N   UNL     1       8.348   2.535  -0.723  0.00  0.00    -0.279 N 
ATOM      5  H   UNL     1       8.265   3.498  -0.803  0.00  0.00    +0.155 HD
BRANCH   4   6
ATOM      6  C   UNL     1       9.591   1.932  -0.859  0.00  0.00    +0.090 A 
ATOM      7  C   UNL     1      10.814   2.530  -1.114  0.00  0.00    +0.084 A 
ATOM      8  C   UNL     1      11.984   1.667  -1.205  0.00  0.00    -0.018 A 
ATOM      9  C   UNL     1      11.734   0.350  -1.043  0.00  0.00    -0.004 A 
ATOM     10  S   UNL     1       9.988   0.249  -0.759  0.00  0.00    -0.077 S 
ATOM     11  C   UNL     1      12.712  -0.782  -1.105  0.00  0.00    +0.043 C 
ATOM     12  C   UNL     1      13.928  -0.448  -0.232  0.00  0.00    +0.005 C 
ATOM     13  C   UNL     1      14.951   0.289  -1.091  0.00  0.00    +0.001 C 
ATOM     14  C   UNL     1      14.239   1.144  -2.138  0.00  0.00    +0.005 C 
ATOM     15  C   UNL     1      13.384   2.210  -1.463  0.00  0.00    +0.037 C 
BRANCH   7  16
ATOM     16  C   UNL     1      10.925   3.948  -1.278  0.00  0.00    +0.102 C 
ATOM     17  N   UNL     1      11.014   5.073  -1.409  0.00  0.00    -0.191 NA
ENDBRANCH   7  16
ENDBRANCH   4   6
ENDBRANCH   1   2
BRANCH   1  18
ATOM     18  C   UNL     1       4.848   1.367  -0.062  0.00  0.00    -0.069 C 
BRANCH  18  20
ATOM     19  C   UNL     1       3.487   2.852   1.281  0.00  0.00    -0.096 C 
ATOM     20  N   UNL     1       3.529   2.022   0.059  0.00  0.00    +0.384 N 
ATOM     21  H   UNL     1       3.379   2.625  -0.759  0.00  0.00    -0.082 HD
BRANCH  20  22
ATOM     22  C   UNL     1       2.460   1.002   0.104  0.00  0.00    +0.018 C 
BRANCH  22  24
ATOM     23  N   UNL     1      -0.011   0.966   0.007  0.00  0.00    -0.287 N 
ATOM     24  C   UNL     1       1.124   1.692   0.005  0.00  0.00    +0.201 C 
ATOM     25  O   UNL     1       1.071   2.901  -0.076  0.00  0.00    -0.278 OA
ATOM     26  H   UNL     1       0.033  -0.003   0.005  0.00  0.00    +0.155 HD
BRANCH  23  31
ATOM     27  C   UNL     1      -5.048   3.576   0.007  0.00  0.00    +0.044 C 
ATOM     28  C   UNL     1      -3.710   2.883   0.007  0.00  0.00    -0.050 A 
ATOM     29  C   UNL     1      -2.647   3.435  -0.683  0.00  0.00    +0.005 A 
ATOM     30  C   UNL     1      -1.419   2.802  -0.685  0.00  0.00    +0.023 A 
ATOM     31  C   UNL     1      -1.253   1.610   0.007  0.00  0.00    +0.033 A 
ATOM     32  C   UNL     1      -2.325   1.055   0.695  0.00  0.00    +0.023 A 
ATOM     33  C   UNL     1      -3.548   1.696   0.697  0.00  0.00    +0.005 A 
ENDBRANCH  23  31
ENDBRANCH  22  24
ENDBRANCH  20  22
ENDBRANCH  18  20
ENDBRANCH   1  18
TORSDOF 8
