REMARK  Name = ZINC09057493
REMARK  7 active torsions:
REMARK  status: ('A' for Active; 'I' for Inactive)
REMARK    1  A    between atoms: C_6  and  C_7
REMARK    2  A    between atoms: C_10  and  C_12
REMARK    3  A    between atoms: C_13  and  C_14
REMARK    4  A    between atoms: C_13  and  C_16
REMARK    5  A    between atoms: N_18  and  C_19
REMARK    6  A    between atoms: C_22  and  N_29
REMARK    7  A    between atoms: C_24  and  C_25
REMARK                            x       y       z     vdW  Elec       q    Type
REMARK                         _______ _______ _______ _____ _____    ______ ____
ROOT
ATOM      1  C   UNL     1      -4.961   5.313   0.159  0.00  0.00    +0.259 C 
ATOM      2  O   UNL     1      -3.918   5.939   0.157  0.00  0.00    -0.269 OA
ATOM      3  N   UNL     1      -4.941   3.970   0.049  0.00  0.00    -0.280 N 
ATOM      4  H   UNL     1      -5.773   3.477  -0.031  0.00  0.00    +0.155 HD
ENDROOT
BRANCH   3   5
ATOM      5  C   UNL     1      -3.721   3.286   0.050  0.00  0.00    +0.045 A 
ATOM      6  C   UNL     1      -2.607   3.852   0.656  0.00  0.00    +0.026 A 
ATOM      7  C   UNL     1      -1.405   3.172   0.660  0.00  0.00    +0.034 A 
ATOM      8  C   UNL     1      -1.308   1.934   0.052  0.00  0.00    +0.127 A 
ATOM      9  C   UNL     1      -2.415   1.368  -0.553  0.00  0.00    +0.047 A 
ATOM     10  C   UNL     1      -3.621   2.041  -0.555  0.00  0.00    +0.078 A 
BRANCH  10  11
ATOM     11  C   UNL     1      -4.828   1.423  -1.215  0.00  0.00    +0.419 C 
ATOM     12  F   UNL     1      -4.480   0.178  -1.750  0.00  0.00    -0.166 F 
ATOM     13  F   UNL     1      -5.843   1.257  -0.267  0.00  0.00    -0.166 F 
ATOM     14  F   UNL     1      -5.279   2.261  -2.240  0.00  0.00    -0.166 F 
ENDBRANCH  10  11
BRANCH   8  15
ATOM     15  N   UNL     1      -0.016   1.210   0.053  0.00  0.00    +0.056 N 
ATOM     16  O   UNL     1       0.070   0.117  -0.478  0.00  0.00    -0.126 OA
ATOM     17  O   UNL     1       0.961   1.710   0.581  0.00  0.00    -0.126 OA
ENDBRANCH   8  15
ENDBRANCH   3   5
BRANCH   1  19
ATOM     18  C   UNL     1      -6.262   7.404   0.392  0.00  0.00    +0.070 C 
ATOM     19  C   UNL     1      -6.241   6.020   0.279  0.00  0.00    +0.117 C 
BRANCH  18  23
ATOM     20  C   UNL     1      -9.648   8.463   0.648  0.00  0.00    +0.136 A 
ATOM     21  C   UNL     1      -9.021   9.690   0.716  0.00  0.00    +0.050 A 
ATOM     22  C   UNL     1      -7.650   9.453   0.633  0.00  0.00    +0.050 A 
ATOM     23  C   UNL     1      -7.487   8.081   0.508  0.00  0.00    +0.130 A 
ATOM     24  O   UNL     1      -8.710   7.508   0.523  0.00  0.00    -0.455 OA
BRANCH  20  30
ATOM     25  C   UNL     1     -11.978   9.318   0.841  0.00  0.00    +0.012 A 
ATOM     26  C   UNL     1     -13.339   9.100   0.888  0.00  0.00    +0.016 A 
ATOM     27  C   UNL     1     -13.839   7.811   0.808  0.00  0.00    +0.018 A 
ATOM     28  C   UNL     1     -12.979   6.734   0.677  0.00  0.00    +0.016 A 
ATOM     29  C   UNL     1     -11.616   6.939   0.624  0.00  0.00    +0.012 A 
ATOM     30  C   UNL     1     -11.104   8.236   0.703  0.00  0.00    +0.017 A 
ATOM     31 BR   UNL     1     -15.707   7.521   0.880  0.00  0.00    -0.050 Br
ENDBRANCH  20  30
ENDBRANCH  18  23
BRANCH  19  32
ATOM     32  C   UNL     1      -7.469   5.284   0.281  0.00  0.00    +0.104 C 
ATOM     33  N   UNL     1      -8.443   4.699   0.282  0.00  0.00    -0.191 NA
ENDBRANCH  19  32
ENDBRANCH   1  19
TORSDOF 7
