REMARK  Name = ZINC23353650
REMARK  8 active torsions:
REMARK  status: ('A' for Active; 'I' for Inactive)
REMARK    1  A    between atoms: C_1  and  C_2
REMARK    2  A    between atoms: C_2  and  C_3
REMARK    3  A    between atoms: C_3  and  N_4
REMARK    4  A    between atoms: C_7  and  C_9
REMARK    5  A    between atoms: C_17  and  N_21
REMARK    6  A    between atoms: N_21  and  C_22
REMARK    7  A    between atoms: C_22  and  C_23
REMARK    8  A    between atoms: C_23  and  N_29
REMARK                            x       y       z     vdW  Elec       q    Type
REMARK                         _______ _______ _______ _____ _____    ______ ____
ROOT
ATOM      1  N   UNL     1       0.738  -1.962  -1.265  0.00  0.00    -0.267 N 
ATOM      2  C   UNL     1       1.704  -2.722  -0.723  0.00  0.00    +0.043 A 
ATOM      3  C   UNL     1       1.361  -4.017  -0.933  0.00  0.00    +0.004 A 
ATOM      4  C   UNL     1       0.142  -3.985  -1.631  0.00  0.00    +0.151 A 
ATOM      5  N   UNL     1      -0.171  -2.711  -1.788  0.00  0.00    -0.166 NA
ATOM      6  C   UNL     1       2.172  -5.200  -0.480  0.00  0.00    +0.023 C 
ATOM      7  C   UNL     1       3.179  -4.718   0.573  0.00  0.00    -0.067 C 
ATOM      8  C   UNL     1       3.919  -3.485   0.046  0.00  0.00    -0.009 C 
ATOM      9  C   UNL     1       2.958  -2.291  -0.007  0.00  0.00    +0.054 C 
ENDROOT
BRANCH   4  10
ATOM     10  C   UNL     1      -0.640  -5.150  -2.094  0.00  0.00    +0.267 C 
ATOM     11  O   UNL     1      -0.238  -6.277  -1.878  0.00  0.00    -0.268 OA
ATOM     12  N   UNL     1      -1.800  -4.963  -2.755  0.00  0.00    -0.296 N 
ATOM     13  C   UNL     1      -2.397  -3.661  -3.087  0.00  0.00    +0.108 C 
ATOM     14  C   UNL     1      -3.727  -3.939  -3.818  0.00  0.00    +0.020 C 
ATOM     15  C   UNL     1      -4.082  -5.378  -3.358  0.00  0.00    +0.020 C 
ATOM     16  C   UNL     1      -2.677  -6.030  -3.270  0.00  0.00    +0.108 C 
ENDBRANCH   4  10
BRANCH   7  17
ATOM     17  N   UNL     1       4.147  -5.788   0.849  0.00  0.00    +0.382 N 
ATOM     18  H   UNL     1       3.654  -6.626   1.118  0.00  0.00    -0.085 HD
ATOM     19  H   UNL     1       4.693  -5.970   0.021  0.00  0.00    -0.085 HD
BRANCH  17  20
ATOM     20  C   UNL     1       5.038  -5.372   1.941  0.00  0.00    -0.060 C 
BRANCH  20  21
ATOM     21  C   UNL     1       6.046  -6.486   2.229  0.00  0.00    +0.007 C 
ATOM     22  C   UNL     1       6.974  -6.053   3.366  0.00  0.00    +0.020 C 
ATOM     23  C   UNL     1       6.146  -5.777   4.623  0.00  0.00    +0.002 C 
ATOM     24  C   UNL     1       5.399  -7.048   5.030  0.00  0.00    +0.000 C 
ATOM     25  C   UNL     1       4.471  -7.481   3.894  0.00  0.00    +0.002 C 
ATOM     26  C   UNL     1       5.299  -7.758   2.637  0.00  0.00    +0.020 C 
BRANCH  21  27
ATOM     27  N   UNL     1       6.841  -6.752   1.022  0.00  0.00    -0.294 NA
ATOM     28  C   UNL     1       7.507  -5.529   0.550  0.00  0.00    +0.113 C 
ATOM     29  C   UNL     1       8.273  -5.836  -0.739  0.00  0.00    +0.175 C 
ATOM     30  O   UNL     1       9.200  -6.897  -0.494  0.00  0.00    -0.377 OA
ATOM     31  C   UNL     1       8.586  -8.104  -0.034  0.00  0.00    +0.175 C 
ATOM     32  C   UNL     1       7.823  -7.819   1.262  0.00  0.00    +0.113 C 
ENDBRANCH  21  27
ENDBRANCH  20  21
ENDBRANCH  17  20
ENDBRANCH   7  17
BRANCH   1  33
ATOM     33  C   UNL     1       0.718  -0.497  -1.257  0.00  0.00    +0.143 C 
BRANCH  33  35
ATOM     34  C   UNL     1      -0.019   1.526   0.010  0.00  0.00    +0.005 C 
ATOM     35  C   UNL     1       0.002  -0.004   0.002  0.00  0.00    +0.020 C 
ENDBRANCH  33  35
ENDBRANCH   1  33
TORSDOF 7
