REMARK  Name = ZINC40983843
REMARK  13 active torsions:
REMARK  status: ('A' for Active; 'I' for Inactive)
REMARK    1  A    between atoms: C_1  and  C_2
REMARK    2  A    between atoms: C_2  and  O_3
REMARK    3  A    between atoms: O_3  and  C_4
REMARK    4  A    between atoms: C_7  and  C_12
REMARK    5  A    between atoms: C_9  and  O_10
REMARK    6  A    between atoms: O_10  and  C_11
REMARK    7  A    between atoms: C_14  and  C_18
REMARK    8  A    between atoms: C_15  and  C_17
REMARK    9  A    between atoms: C_18  and  N_19
REMARK   10  A    between atoms: C_22  and  C_25
REMARK   11  A    between atoms: N_30  and  C_33
REMARK   12  A    between atoms: C_33  and  C_34
REMARK   13  A    between atoms: C_33  and  C_35
REMARK                            x       y       z     vdW  Elec       q    Type
REMARK                         _______ _______ _______ _____ _____    ______ ____
ROOT
ATOM      1  C   UNL     1       0.604  -9.484   0.744  0.00  0.00    -0.019 C 
ENDROOT
BRANCH   1   2
ATOM      2  N   UNL     1       1.692  -9.884  -0.159  0.00  0.00    +0.383 N 
ATOM      3  C   UNL     1       1.792  -8.918  -1.260  0.00  0.00    -0.078 C 
ATOM      4  C   UNL     1       2.975  -9.284  -2.158  0.00  0.00    -0.006 C 
ATOM      5  C   UNL     1       2.761 -10.690  -2.728  0.00  0.00    +0.072 C 
ATOM      6  C   UNL     1       2.583 -11.677  -1.571  0.00  0.00    -0.006 C 
ATOM      7  C   UNL     1       1.414 -11.222  -0.694  0.00  0.00    -0.078 C 
ATOM      8  H   UNL     1       2.562  -9.901   0.352  0.00  0.00    -0.081 HD
BRANCH   5   9
ATOM      9  C   UNL     1       3.958 -11.088  -3.551  0.00  0.00    +0.219 C 
ATOM     10  O   UNL     1       4.925 -11.585  -3.014  0.00  0.00    -0.275 OA
ATOM     11  N   UNL     1       3.955 -10.892  -4.885  0.00  0.00    -0.299 N 
ATOM     12  C   UNL     1       2.847 -10.181  -5.540  0.00  0.00    +0.123 C 
ATOM     13  C   UNL     1       3.433  -9.073  -6.422  0.00  0.00    +0.103 C 
ATOM     14  N   UNL     1       4.427  -9.653  -7.335  0.00  0.00    -0.297 NA
ATOM     15  C   UNL     1       5.558 -10.229  -6.597  0.00  0.00    +0.103 C 
ATOM     16  C   UNL     1       5.062 -11.379  -5.722  0.00  0.00    +0.123 C 
BRANCH  14  17
ATOM     17  C   UNL     1       4.887  -8.657  -8.313  0.00  0.00    +0.051 C 
ATOM     18  C   UNL     1       5.918  -9.297  -9.245  0.00  0.00    +0.024 C 
ATOM     19  C   UNL     1       3.696  -8.160  -9.134  0.00  0.00    +0.024 C 
ENDBRANCH  14  17
ENDBRANCH   5   9
ENDBRANCH   1   2
BRANCH   1  22
ATOM     20  C   UNL     1       1.099  -6.044   1.743  0.00  0.00    +0.228 A 
ATOM     21  N   UNL     1       0.640  -6.949   0.911  0.00  0.00    -0.216 NA
ATOM     22  C   UNL     1       0.946  -8.165   1.389  0.00  0.00    +0.066 A 
ATOM     23  C   UNL     1       1.611  -7.998   2.546  0.00  0.00    +0.124 A 
ATOM     24  O   UNL     1       1.710  -6.672   2.763  0.00  0.00    -0.440 OA
ATOM     25  C   UNL     1       2.149  -9.092   3.433  0.00  0.00    +0.088 C 
BRANCH  20  29
ATOM     26  C   UNL     1       0.729  -1.834   1.277  0.00  0.00    +0.162 A 
ATOM     27  C   UNL     1       0.192  -2.688   0.324  0.00  0.00    +0.050 A 
ATOM     28  C   UNL     1       0.311  -4.054   0.471  0.00  0.00    +0.017 A 
ATOM     29  C   UNL     1       0.972  -4.581   1.583  0.00  0.00    +0.041 A 
ATOM     30  C   UNL     1       1.512  -3.722   2.542  0.00  0.00    +0.062 A 
ATOM     31  C   UNL     1       1.395  -2.353   2.385  0.00  0.00    +0.162 A 
BRANCH  31  32
ATOM     32  O   UNL     1       1.926  -1.514   3.314  0.00  0.00    -0.491 OA
ATOM     33  C   UNL     1       2.595  -2.115   4.424  0.00  0.00    +0.277 C 
ENDBRANCH  31  32
BRANCH  26  34
ATOM     34  O   UNL     1       0.610  -0.489   1.126  0.00  0.00    -0.489 OA
BRANCH  34  36
ATOM     35  C   UNL     1      -0.119   1.505  -0.029  0.00  0.00    +0.048 C 
ATOM     36  C   UNL     1      -0.086  -0.025  -0.033  0.00  0.00    +0.226 C 
ENDBRANCH  34  36
ENDBRANCH  26  34
ENDBRANCH  20  29
ENDBRANCH   1  22
TORSDOF 8
