REMARK  Name = ZINC51054699
REMARK  12 active torsions:
REMARK  status: ('A' for Active; 'I' for Inactive)
REMARK    1  A    between atoms: C_1  and  C_2
REMARK    2  A    between atoms: C_2  and  C_3
REMARK    3  A    between atoms: C_3  and  C_4
REMARK    4  A    between atoms: C_4  and  C_5
REMARK    5  A    between atoms: C_4  and  N_6
REMARK    6  A    between atoms: C_7  and  C_9
REMARK    7  A    between atoms: N_13  and  C_15
REMARK    8  A    between atoms: C_15  and  C_16
REMARK    9  A    between atoms: C_16  and  C_18
REMARK   10  A    between atoms: C_19  and  N_29
REMARK   11  A    between atoms: N_20  and  C_27
REMARK   12  A    between atoms: C_27  and  C_28
REMARK                            x       y       z     vdW  Elec       q    Type
REMARK                         _______ _______ _______ _____ _____    ______ ____
ROOT
ATOM      1  C   UNL     1      -3.926  -7.521  -0.090  0.00  0.00    +0.164 C 
ENDROOT
BRANCH   1   6
ATOM      2  C   UNL     1      -2.307  -4.334   1.095  0.00  0.00    +0.089 C 
ATOM      3  C   UNL     1      -2.712  -4.401   2.571  0.00  0.00    +0.015 C 
ATOM      4  C   UNL     1      -4.127  -4.975   2.678  0.00  0.00    +0.016 C 
ATOM      5  C   UNL     1      -4.164  -6.356   2.019  0.00  0.00    +0.085 C 
ATOM      6  N   UNL     1      -3.769  -6.238   0.610  0.00  0.00    -0.294 NA
ATOM      7  C   UNL     1      -2.396  -5.734   0.483  0.00  0.00    +0.097 C 
BRANCH   2   9
ATOM      8  N   UNL     1      -0.576  -2.605   1.460  0.00  0.00    -0.312 N 
ATOM      9  C   UNL     1      -0.892  -3.826   0.984  0.00  0.00    +0.218 C 
ATOM     10  O   UNL     1      -0.039  -4.515   0.466  0.00  0.00    -0.275 OA
ATOM     11  H   UNL     1      -1.258  -2.054   1.875  0.00  0.00    +0.149 HD
BRANCH   8  12
ATOM     12  C   UNL     1       0.799  -2.111   1.353  0.00  0.00    +0.070 C 
ATOM     13  C   UNL     1       1.621  -2.625   2.537  0.00  0.00    +0.028 C 
BRANCH  12  14
ATOM     14  C   UNL     1       0.793  -0.581   1.362  0.00  0.00    +0.022 C 
BRANCH  14  16
ATOM     15  C   UNL     1       0.073   1.464   0.120  0.00  0.00    +0.004 C 
ATOM     16  C   UNL     1       0.079  -0.066   0.111  0.00  0.00    -0.002 C 
ENDBRANCH  14  16
ENDBRANCH  12  14
ENDBRANCH   8  12
ENDBRANCH   2   9
ENDBRANCH   1   6
BRANCH   1  17
ATOM     17  C   UNL     1      -5.387  -7.882  -0.155  0.00  0.00    +0.185 C 
ATOM     18  O   UNL     1      -6.218  -7.143   0.333  0.00  0.00    -0.290 OA
BRANCH  17  19
ATOM     19  C   UNL     1      -5.791  -9.079  -0.784  0.00  0.00    +0.121 A 
ATOM     20  C   UNL     1      -7.132  -9.499  -0.753  0.00  0.00    +0.116 A 
ATOM     21  N   UNL     1      -7.474 -10.665  -1.376  0.00  0.00    -0.282 N 
ATOM     22  C   UNL     1      -6.558 -11.410  -2.013  0.00  0.00    +0.331 A 
ATOM     23  O   UNL     1      -6.913 -12.440  -2.553  0.00  0.00    -0.246 OA
ATOM     24  N   UNL     1      -5.263 -11.060  -2.077  0.00  0.00    -0.274 N 
ATOM     25  H   UNL     1      -4.635 -11.630  -2.548  0.00  0.00    +0.173 HD
ATOM     26  C   UNL     1      -4.824  -9.923  -1.498  0.00  0.00    +0.266 A 
ATOM     27  O   UNL     1      -3.651  -9.606  -1.562  0.00  0.00    -0.267 OA
BRANCH  20  28
ATOM     28  N   UNL     1      -8.074  -8.756  -0.111  0.00  0.00    -0.344 N 
ATOM     29  H   UNL     1      -7.839  -7.892   0.262  0.00  0.00    +0.144 HD
ATOM     30  H   UNL     1      -8.981  -9.090  -0.026  0.00  0.00    +0.144 HD
ENDBRANCH  20  28
BRANCH  21  31
ATOM     31  C   UNL     1      -8.869 -11.111  -1.349  0.00  0.00    +0.125 C 
ATOM     32  C   UNL     1      -9.611 -10.539  -2.559  0.00  0.00    +0.027 C 
ENDBRANCH  21  31
ENDBRANCH  17  19
ENDBRANCH   1  17
TORSDOF 9
