REMARK  Name = ZINC59057275
REMARK  7 active torsions:
REMARK  status: ('A' for Active; 'I' for Inactive)
REMARK    1  A    between atoms: C_1  and  C_2
REMARK    2  A    between atoms: C_5  and  C_8
REMARK    3  A    between atoms: C_11  and  C_13
REMARK    4  A    between atoms: C_14  and  C_15
REMARK    5  A    between atoms: N_17  and  C_18
REMARK    6  A    between atoms: C_23  and  C_24
REMARK    7  A    between atoms: N_26  and  C_28
REMARK                            x       y       z     vdW  Elec       q    Type
REMARK                         _______ _______ _______ _____ _____    ______ ____
ROOT
ATOM      1  C   UNL     1       0.114  -8.361  -3.835  0.00  0.00    +0.241 C 
ATOM      2  O   UNL     1       0.118  -9.491  -3.380  0.00  0.00    -0.270 OA
ATOM      3  N   UNL     1       0.113  -8.172  -5.169  0.00  0.00    -0.282 N 
ATOM      4  H   UNL     1       0.029  -7.277  -5.532  0.00  0.00    +0.155 HD
ENDROOT
BRANCH   3   5
ATOM      5  C   UNL     1       0.233  -9.267  -6.030  0.00  0.00    +0.039 A 
ATOM      6  C   UNL     1       0.848 -10.402  -5.584  0.00  0.00    +0.055 A 
ATOM      7  C   UNL     1       0.971 -11.505  -6.445  0.00  0.00    +0.115 A 
ATOM      8  C   UNL     1       0.431 -11.404  -7.809  0.00  0.00    +0.114 A 
ATOM      9  C   UNL     1      -0.191 -10.207  -8.207  0.00  0.00    +0.037 A 
ATOM     10  C   UNL     1      -0.285  -9.176  -7.329  0.00  0.00    -0.027 A 
ATOM     11  C   UNL     1      -0.958  -7.900  -7.764  0.00  0.00    +0.046 C 
ATOM     12  N   UNL     1       0.694 -12.577  -8.364  0.00  0.00    -0.147 NA
ATOM     13  N   UNL     1       1.303 -13.316  -7.503  0.00  0.00    -0.149 N 
ATOM     14  N   UNL     1       1.482 -12.724  -6.374  0.00  0.00    -0.147 NA
BRANCH  13  15
ATOM     15  C   UNL     1       1.727 -14.625  -7.768  0.00  0.00    +0.086 A 
ATOM     16  C   UNL     1       1.501 -15.191  -9.016  0.00  0.00    +0.031 A 
ATOM     17  C   UNL     1       1.919 -16.481  -9.274  0.00  0.00    +0.022 A 
ATOM     18  C   UNL     1       2.563 -17.211  -8.290  0.00  0.00    +0.041 A 
ATOM     19  C   UNL     1       2.790 -16.649  -7.045  0.00  0.00    +0.022 A 
ATOM     20  C   UNL     1       2.378 -15.358  -6.784  0.00  0.00    +0.031 A 
ATOM     21 CL   UNL     1       3.088 -18.833  -8.618  0.00  0.00    -0.084 Cl
ENDBRANCH  13  15
ENDBRANCH   3   5
BRANCH   1  23
ATOM     22  C   UNL     1       0.112  -7.438  -1.619  0.00  0.00    +0.051 C 
ATOM     23  C   UNL     1       0.111  -7.247  -2.963  0.00  0.00    +0.071 C 
BRANCH  22  27
ATOM     24  C   UNL     1       0.103  -4.250  -0.021  0.00  0.00    +0.136 A 
ATOM     25  C   UNL     1       0.106  -5.052   1.085  0.00  0.00    +0.050 A 
ATOM     26  C   UNL     1       0.110  -6.374   0.634  0.00  0.00    +0.050 A 
ATOM     27  C   UNL     1       0.109  -6.324  -0.747  0.00  0.00    +0.129 A 
ATOM     28  O   UNL     1       0.100  -5.027  -1.118  0.00  0.00    -0.455 OA
BRANCH  24  33
ATOM     29  C   UNL     1       0.086   1.503   0.011  0.00  0.00    +0.044 C 
ATOM     30  C   UNL     1       0.090  -0.004   0.003  0.00  0.00    -0.050 A 
ATOM     31  C   UNL     1       0.086  -0.686  -1.201  0.00  0.00    +0.004 A 
ATOM     32  C   UNL     1       0.091  -2.065  -1.216  0.00  0.00    +0.012 A 
ATOM     33  C   UNL     1       0.099  -2.773  -0.013  0.00  0.00    +0.017 A 
ATOM     34  C   UNL     1       0.103  -2.079   1.199  0.00  0.00    +0.012 A 
ATOM     35  C   UNL     1       0.104  -0.699   1.199  0.00  0.00    +0.004 A 
ENDBRANCH  24  33
ENDBRANCH  22  27
ENDBRANCH   1  23
TORSDOF 5
