REMARK  Name = ZINC40168086
REMARK  9 active torsions:
REMARK  status: ('A' for Active; 'I' for Inactive)
REMARK    1  A    between atoms: C_1  and  C_2
REMARK    2  A    between atoms: C_2  and  C_3
REMARK    3  A    between atoms: C_3  and  C_5
REMARK    4  A    between atoms: C_3  and  O_20
REMARK    5  A    between atoms: C_10  and  C_13
REMARK    6  A    between atoms: C_16  and  C_19
REMARK    7  A    between atoms: O_20  and  C_21
REMARK    8  A    between atoms: C_31  and  C_32
REMARK    9  A    between atoms: C_35  and  C_38
REMARK                            x       y       z     vdW  Elec       q    Type
REMARK                         _______ _______ _______ _____ _____    ______ ____
ROOT
ATOM      1  C   UNL     1       0.864  -0.066  -0.869  0.00  0.00    +0.259 C 
ENDROOT
BRANCH   1   2
ATOM      2  C   UNL     1       1.105  -1.535  -0.634  0.00  0.00    +0.259 C 
ATOM      3  O   UNL     1       0.537  -2.360  -1.320  0.00  0.00    -0.271 OA
ATOM      4  N   UNL     1       1.951  -1.933   0.336  0.00  0.00    -0.262 N 
ATOM      5  C   UNL     1       2.258  -3.280   0.481  0.00  0.00    +0.165 A 
ATOM      6  N   UNL     1       3.049  -3.867   1.360  0.00  0.00    -0.225 NA
ATOM      7  C   UNL     1       3.229  -5.179   1.355  0.00  0.00    +0.080 A 
ATOM      8  C   UNL     1       2.584  -5.941   0.421  0.00  0.00    +0.076 A 
ATOM      9  S   UNL     1       1.681  -4.680  -0.469  0.00  0.00    -0.060 S 
ATOM     10  H   UNL     1       2.345  -1.279   0.934  0.00  0.00    +0.157 HD
BRANCH   7  11
ATOM     11  C   UNL     1       4.124  -5.816   2.352  0.00  0.00    +0.001 A 
ATOM     12  C   UNL     1       4.316  -7.196   2.340  0.00  0.00    +0.010 A 
ATOM     13  C   UNL     1       5.149  -7.783   3.270  0.00  0.00    +0.004 A 
ATOM     14  C   UNL     1       5.792  -7.004   4.215  0.00  0.00    -0.050 A 
ATOM     15  C   UNL     1       5.605  -5.633   4.233  0.00  0.00    +0.004 A 
ATOM     16  C   UNL     1       4.779  -5.035   3.303  0.00  0.00    +0.010 A 
ATOM     17  C   UNL     1       6.700  -7.651   5.229  0.00  0.00    +0.044 C 
ENDBRANCH   7  11
ENDBRANCH   1   2
BRANCH   1  19
ATOM     18  C   UNL     1       0.050   2.051   0.180  0.00  0.00    +0.008 C 
ATOM     19  C   UNL     1       0.147   0.533   0.343  0.00  0.00    +0.051 C 
ENDBRANCH   1  19
BRANCH   1  20
ATOM     20  O   UNL     1       0.054   0.104  -2.034  0.00  0.00    -0.472 OA
BRANCH  20  21
ATOM     21  C   UNL     1       0.285   1.211  -2.790  0.00  0.00    +0.212 A 
ATOM     22  C   UNL     1       1.554   1.416  -3.389  0.00  0.00    +0.235 A 
ATOM     23  O   UNL     1       2.462   0.614  -3.243  0.00  0.00    -0.283 OA
ATOM     24  C   UNL     1       1.733   2.638  -4.196  0.00  0.00    +0.068 A 
ATOM     25  C   UNL     1       2.947   2.921  -4.822  0.00  0.00    +0.015 A 
ATOM     26  C   UNL     1       3.074   4.073  -5.568  0.00  0.00    +0.001 A 
ATOM     27  C   UNL     1       2.004   4.946  -5.696  0.00  0.00    +0.004 A 
ATOM     28  C   UNL     1       0.799   4.677  -5.082  0.00  0.00    +0.047 A 
ATOM     29  C   UNL     1       0.649   3.521  -4.325  0.00  0.00    +0.140 A 
ATOM     30  O   UNL     1      -0.522   3.240  -3.718  0.00  0.00    -0.451 OA
ATOM     31  C   UNL     1      -0.704   2.130  -2.984  0.00  0.00    +0.181 A 
BRANCH  31  32
ATOM     32  C   UNL     1      -2.020   1.899  -2.359  0.00  0.00    +0.021 A 
ATOM     33  C   UNL     1      -2.664   2.933  -1.677  0.00  0.00    +0.012 A 
ATOM     34  C   UNL     1      -3.895   2.710  -1.095  0.00  0.00    +0.004 A 
ATOM     35  C   UNL     1      -4.491   1.465  -1.186  0.00  0.00    -0.050 A 
ATOM     36  C   UNL     1      -3.859   0.435  -1.860  0.00  0.00    +0.004 A 
ATOM     37  C   UNL     1      -2.631   0.645  -2.452  0.00  0.00    +0.012 A 
ATOM     38  C   UNL     1      -5.835   1.229  -0.547  0.00  0.00    +0.044 C 
ENDBRANCH  31  32
ENDBRANCH  20  21
ENDBRANCH   1  20
TORSDOF 6
