REMARK  Name = ZINC01333405
REMARK  9 active torsions:
REMARK  status: ('A' for Active; 'I' for Inactive)
REMARK    1  A    between atoms: C_4  and  N_7
REMARK    2  A    between atoms: C_8  and  C_10
REMARK    3  A    between atoms: C_10  and  N_11
REMARK    4  A    between atoms: N_11  and  C_12
REMARK    5  A    between atoms: N_11  and  S_18
REMARK    6  A    between atoms: C_12  and  C_13
REMARK    7  A    between atoms: S_18  and  C_21
REMARK    8  A    between atoms: C_24  and  S_27
REMARK    9  A    between atoms: S_27  and  N_30
REMARK                            x       y       z     vdW  Elec       q    Type
REMARK                         _______ _______ _______ _____ _____    ______ ____
ROOT
ATOM      1  N   UNL     1      -2.491  -2.706   0.324  0.00  0.00    -0.160 NA
ENDROOT
BRANCH   1   2
ATOM      2  S   UNL     1      -3.296  -3.211  -1.033  0.00  0.00    +0.062 S 
ATOM      3  O   UNL     1      -4.683  -3.105  -0.745  0.00  0.00    -0.153 OA
ATOM      4  O   UNL     1      -2.693  -2.546  -2.134  0.00  0.00    -0.153 OA
BRANCH   2   5
ATOM      5  C   UNL     1      -2.953  -4.928  -1.233  0.00  0.00    +0.106 A 
ATOM      6  C   UNL     1      -1.865  -5.332  -1.983  0.00  0.00    +0.030 A 
ATOM      7  C   UNL     1      -1.593  -6.679  -2.136  0.00  0.00    +0.030 A 
ATOM      8  C   UNL     1      -2.415  -7.621  -1.547  0.00  0.00    +0.106 A 
ATOM      9  C   UNL     1      -3.506  -7.217  -0.800  0.00  0.00    +0.030 A 
ATOM     10  C   UNL     1      -3.775  -5.870  -0.644  0.00  0.00    +0.030 A 
BRANCH   8  11
ATOM     11  S   UNL     1      -2.071  -9.338  -1.746  0.00  0.00    +0.061 S 
ATOM     12  O   UNL     1      -0.684  -9.444  -2.034  0.00  0.00    -0.153 OA
ATOM     13  O   UNL     1      -2.673 -10.003  -0.643  0.00  0.00    -0.153 OA
BRANCH  11  14
ATOM     14  N   UNL     1      -2.876  -9.845  -3.101  0.00  0.00    -0.177 NA
ATOM     15  C   UNL     1      -4.248 -10.363  -3.007  0.00  0.00    +0.109 C 
ATOM     16  C   UNL     1      -5.135  -9.579  -3.986  0.00  0.00    +0.017 C 
ATOM     17  C   UNL     1      -4.529  -9.655  -5.389  0.00  0.00    +0.003 C 
ATOM     18  C   UNL     1      -3.138  -9.017  -5.382  0.00  0.00    +0.017 C 
ATOM     19  C   UNL     1      -2.230  -9.790  -4.420  0.00  0.00    +0.109 C 
ENDBRANCH  11  14
ENDBRANCH   8  11
ENDBRANCH   2   5
ENDBRANCH   1   2
BRANCH   1  20
ATOM     20  C   UNL     1      -1.121  -2.197   0.216  0.00  0.00    +0.205 C 
BRANCH  20  22
ATOM     21  N   UNL     1       0.002  -0.004   0.002  0.00  0.00    -0.284 N 
ATOM     22  C   UNL     1      -1.150  -0.694   0.111  0.00  0.00    +0.233 C 
ATOM     23  O   UNL     1      -2.211  -0.106   0.124  0.00  0.00    -0.274 OA
ATOM     24  H   UNL     1       0.845  -0.477  -0.076  0.00  0.00    +0.155 HD
BRANCH  21  28
ATOM     25  C   UNL     1      -0.057   4.162   0.003  0.00  0.00    +0.000 A 
ATOM     26  C   UNL     1       0.994   3.486   0.596  0.00  0.00    +0.002 A 
ATOM     27  C   UNL     1       1.016   2.106   0.598  0.00  0.00    +0.023 A 
ATOM     28  C   UNL     1      -0.018   1.395   0.002  0.00  0.00    +0.033 A 
ATOM     29  C   UNL     1      -1.068   2.076  -0.598  0.00  0.00    +0.023 A 
ATOM     30  C   UNL     1      -1.088   3.457  -0.591  0.00  0.00    +0.002 A 
ENDBRANCH  21  28
ENDBRANCH  20  22
ENDBRANCH   1  20
BRANCH   1  31
ATOM     31  C   UNL     1      -3.149  -2.767   1.631  0.00  0.00    +0.184 C 
BRANCH  31  32
ATOM     32  C   UNL     1      -3.775  -1.432   1.942  0.00  0.00    +0.120 A 
ATOM     33  C   UNL     1      -5.026  -1.056   1.623  0.00  0.00    +0.046 A 
ATOM     34  C   UNL     1      -5.192   0.264   2.102  0.00  0.00    +0.041 A 
ATOM     35  C   UNL     1      -4.031   0.616   2.684  0.00  0.00    +0.195 A 
ATOM     36  O   UNL     1      -3.179  -0.417   2.589  0.00  0.00    -0.466 OA
ENDBRANCH  31  32
ENDBRANCH   1  31
TORSDOF 9
