REMARK  Name = ZINC39927087
REMARK  7 active torsions:
REMARK  status: ('A' for Active; 'I' for Inactive)
REMARK    1  A    between atoms: C_6  and  C_10
REMARK    2  A    between atoms: C_11  and  C_24
REMARK    3  A    between atoms: C_14  and  C_16
REMARK    4  A    between atoms: C_19  and  O_23
REMARK    5  A    between atoms: C_21  and  O_22
REMARK    6  A    between atoms: C_24  and  C_25
REMARK    7  A    between atoms: C_25  and  C_26
REMARK                            x       y       z     vdW  Elec       q    Type
REMARK                         _______ _______ _______ _____ _____    ______ ____
ROOT
ATOM      1  C   UNL     1       3.756  -2.996  -1.687  0.00  0.00    +0.023 C 
ATOM      2  C   UNL     1       4.457  -2.839  -2.812  0.00  0.00    +0.067 C 
ATOM      3  N   UNL     1       4.556  -4.008  -3.483  0.00  0.00    -0.182 NA
ATOM      4  N   UNL     1       3.996  -4.961  -2.936  0.00  0.00    -0.297 N 
ATOM      5  C   UNL     1       3.393  -4.470  -1.685  0.00  0.00    +0.164 C 
ATOM      6  H   UNL     1       3.962  -5.871  -3.269  0.00  0.00    +0.183 HD
ENDROOT
BRANCH   1  12
ATOM      7  C   UNL     1       2.080   2.336  -1.630  0.00  0.00    +0.002 A 
ATOM      8  C   UNL     1       3.449   2.579  -1.418  0.00  0.00    +0.002 A 
ATOM      9  C   UNL     1       4.318   1.602  -1.091  0.00  0.00    +0.027 A 
ATOM     10  C   UNL     1       3.836   0.221  -0.945  0.00  0.00    +0.060 A 
ATOM     11  N   UNL     1       4.431  -0.897  -0.645  0.00  0.00    -0.360 N 
ATOM     12  C   UNL     1       3.412  -1.954  -0.654  0.00  0.00    +0.206 C 
ATOM     13  N   UNL     1       2.142  -1.303  -0.999  0.00  0.00    -0.360 N 
ATOM     14  C   UNL     1       2.387  -0.035  -1.169  0.00  0.00    +0.060 A 
ATOM     15  C   UNL     1       1.534   1.108  -1.522  0.00  0.00    +0.027 A 
ATOM     16  H   UNL     1       5.375  -1.011  -0.452  0.00  0.00    +0.162 HD
ATOM     17  H   UNL     1       1.279  -1.737  -1.085  0.00  0.00    +0.162 HD
ENDBRANCH   1  12
BRANCH   5  18
ATOM     18  C   UNL     1       1.897  -4.651  -1.712  0.00  0.00    +0.022 A 
ATOM     19  C   UNL     1       1.244  -4.825  -2.917  0.00  0.00    +0.013 A 
ATOM     20  C   UNL     1      -0.128  -4.991  -2.944  0.00  0.00    +0.046 A 
ATOM     21  C   UNL     1      -0.853  -4.982  -1.761  0.00  0.00    +0.120 A 
ATOM     22  C   UNL     1      -0.200  -4.806  -0.551  0.00  0.00    +0.091 A 
ATOM     23  C   UNL     1       1.177  -4.646  -0.525  0.00  0.00    +0.126 A 
BRANCH  23  24
ATOM     24  O   UNL     1       1.821  -4.480   0.660  0.00  0.00    -0.506 OA
ATOM     25  H   UNL     1       1.897  -3.558   0.940  0.00  0.00    +0.292 HD
ENDBRANCH  23  24
BRANCH  21  26
ATOM     26  O   UNL     1      -2.202  -5.144  -1.788  0.00  0.00    -0.507 OA
ATOM     27  H   UNL     1      -2.488  -6.066  -1.726  0.00  0.00    +0.292 HD
ENDBRANCH  21  26
ENDBRANCH   5  18
BRANCH   2  28
ATOM     28  C   UNL     1       5.055  -1.534  -3.272  0.00  0.00    +0.068 C 
BRANCH  28  29
ATOM     29  C   UNL     1       6.528  -1.476  -2.862  0.00  0.00    +0.131 C 
BRANCH  29  30
ATOM     30  C   UNL     1       7.126  -0.171  -3.322  0.00  0.00    +0.356 C 
ATOM     31  O   UNL     1       6.438   0.637  -3.922  0.00  0.00    -0.246 OA
ATOM     32  O   UNL     1       8.298   0.076  -3.094  0.00  0.00    -0.246 OA
ENDBRANCH  29  30
ENDBRANCH  28  29
ENDBRANCH   2  28
TORSDOF 7
