REMARK  Name = ZINC12503171
REMARK  14 active torsions:
REMARK  status: ('A' for Active; 'I' for Inactive)
REMARK    1  A    between atoms: C_1  and  C_2
REMARK    2  A    between atoms: C_2  and  N_75
REMARK    3  A    between atoms: C_3  and  C_4
REMARK    4  A    between atoms: C_3  and  N_75
REMARK    5  A    between atoms: C_5  and  C_6
REMARK    6  A    between atoms: C_5  and  N_75
REMARK    7  A    between atoms: C_6  and  O_8
REMARK    8  A    between atoms: O_8  and  C_9
REMARK    9  A    between atoms: C_9  and  C_10
REMARK   10  A    between atoms: C_10  and  C_12
REMARK   11  A    between atoms: C_12  and  O_37
REMARK   12  A    between atoms: C_17  and  C_36
REMARK   13  A    between atoms: C_19  and  O_35
REMARK   14  A    between atoms: C_33  and  C_34
REMARK                            x       y       z     vdW  Elec       q    Type
REMARK                         _______ _______ _______ _____ _____    ______ ____
ROOT
ATOM      1  C   UNL     1       1.682   0.612   1.678  0.00  0.00    +0.133 C 
ATOM      2  C   UNL     1       2.789   1.636   2.035  0.00  0.00    +0.043 C 
ATOM      3  C   UNL     1       2.639   1.937   3.552  0.00  0.00    +0.008 C 
ATOM      4  C   UNL     1       1.833   0.730   4.058  0.00  0.00    +0.002 C 
ATOM      5  C   UNL     1       0.792   0.555   2.928  0.00  0.00    +0.009 C 
ATOM      6  C   UNL     1       0.045  -0.734   3.148  0.00  0.00    +0.041 C 
ATOM      7  C   UNL     1      -0.578  -0.807   4.536  0.00  0.00    +0.119 C 
ATOM      8  C   UNL     1       0.281  -0.332   5.698  0.00  0.00    +0.031 C 
ATOM      9  C   UNL     1       1.125   0.891   5.375  0.00  0.00    -0.001 C 
ATOM     10  C   UNL     1       2.097   1.276   6.485  0.00  0.00    +0.008 C 
ATOM     11  C   UNL     1       2.993   0.087   6.849  0.00  0.00    +0.032 C 
ATOM     12  C   UNL     1       2.045  -1.001   7.333  0.00  0.00    -0.060 C 
ATOM     13  C   UNL     1       2.212  -1.484   8.557  0.00  0.00    +0.046 C 
ATOM     14  C   UNL     1       1.259  -2.470   9.079  0.00  0.00    +0.156 C 
ATOM     15  O   UNL     1       1.553  -3.236   9.973  0.00  0.00    -0.293 OA
ATOM     16  C   UNL     1      -0.110  -2.476   8.432  0.00  0.00    +0.080 C 
ATOM     17  C   UNL     1       0.050  -2.513   6.920  0.00  0.00    +0.019 C 
ATOM     18  C   UNL     1       1.013  -1.483   6.363  0.00  0.00    -0.005 C 
ATOM     19  C   UNL     1       1.796  -2.254   5.292  0.00  0.00    +0.016 C 
ATOM     20  C   UNL     1      -0.180   1.733   2.860  0.00  0.00    +0.015 C 
ENDROOT
BRANCH   1  21
ATOM     21  C   UNL     1       0.884   1.091   0.496  0.00  0.00    +0.202 C 
ATOM     22  O   UNL     1       0.798   2.274   0.264  0.00  0.00    -0.291 OA
BRANCH  21  23
ATOM     23  C   UNL     1       0.191   0.096  -0.399  0.00  0.00    +0.309 C 
BRANCH  23  24
ATOM     24  O   UNL     1      -0.507   0.802  -1.459  0.00  0.00    -0.458 OA
BRANCH  24  25
ATOM     25  C   UNL     1      -1.179   0.055  -2.348  0.00  0.00    +0.291 C 
ATOM     26  O   UNL     1      -1.185  -1.149  -2.245  0.00  0.00    -0.253 OA
BRANCH  25  27
ATOM     27  C   UNL     1      -1.928   0.717  -3.476  0.00  0.00    +0.044 C 
BRANCH  27  28
ATOM     28  N   UNL     1      -2.555  -0.328  -4.311  0.00  0.00    +0.386 N 
ATOM     29  H   UNL     1      -1.842  -1.019  -4.573  0.00  0.00    -0.081 HD
BRANCH  28  31
ATOM     30  C   UNL     1      -4.710  -0.009  -3.142  0.00  0.00    -0.017 C 
ATOM     31  C   UNL     1      -3.625  -1.008  -3.550  0.00  0.00    -0.082 C 
ENDBRANCH  28  31
BRANCH  28  32
ATOM     32  C   UNL     1      -3.114   0.274  -5.540  0.00  0.00    -0.082 C 
ATOM     33  C   UNL     1      -3.422  -0.843  -6.539  0.00  0.00    -0.017 C 
ENDBRANCH  28  32
ENDBRANCH  27  28
ENDBRANCH  25  27
ENDBRANCH  24  25
ENDBRANCH  23  24
ENDBRANCH  21  23
ENDBRANCH   1  21
BRANCH   7  34
ATOM     34  O   UNL     1      -1.816  -0.080   4.548  0.00  0.00    -0.391 OA
ATOM     35  H   UNL     1      -2.423  -0.325   3.836  0.00  0.00    +0.210 HD
ENDBRANCH   7  34
BRANCH   1  36
ATOM     36  O   UNL     1       2.251  -0.668   1.417  0.00  0.00    -0.380 OA
ATOM     37  H   UNL     1       2.841  -0.688   0.651  0.00  0.00    +0.211 HD
ENDBRANCH   1  36
TORSDOF 10
