REMARK  Name = ZINC22711790
REMARK  8 active torsions:
REMARK  status: ('A' for Active; 'I' for Inactive)
REMARK    1  A    between atoms: C_1  and  C_2
REMARK    2  A    between atoms: C_5  and  C_8
REMARK    3  A    between atoms: C_8  and  S_9
REMARK    4  A    between atoms: S_9  and  C_10
REMARK    5  A    between atoms: C_15  and  C_27
REMARK    6  A    between atoms: C_21  and  C_25
REMARK    7  A    between atoms: C_21  and  C_26
REMARK    8  A    between atoms: C_32  and  N_33
REMARK                            x       y       z     vdW  Elec       q    Type
REMARK                         _______ _______ _______ _____ _____    ______ ____
ROOT
ATOM      1  C   UNL     1       3.611  -5.403  -1.759  0.00  0.00    +0.211 A 
ATOM      2  N   UNL     1       2.276  -5.506  -1.685  0.00  0.00    -0.187 NA
ATOM      3  C   UNL     1       1.954  -6.690  -1.242  0.00  0.00    +0.219 A 
ATOM      4  N   UNL     1       3.098  -7.385  -1.024  0.00  0.00    -0.220 N 
ATOM      5  N   UNL     1       4.151  -6.537  -1.366  0.00  0.00    -0.141 NA
ATOM      6  C   UNL     1       3.122  -8.758  -0.535  0.00  0.00    +0.178 C 
ATOM      7  C   UNL     1       1.760  -9.140   0.001  0.00  0.00    +0.041 C 
ATOM      8  C   UNL     1       0.658  -8.399  -0.243  0.00  0.00    +0.020 C 
ATOM      9  N   UNL     1       0.711  -7.249  -0.995  0.00  0.00    -0.287 N 
ATOM     10  C   UNL     1      -0.688  -8.803   0.310  0.00  0.00    +0.058 C 
ATOM     11  C   UNL     1      -0.763 -10.327   0.422  0.00  0.00    -0.023 C 
ATOM     12  C   UNL     1       0.375 -10.800   1.333  0.00  0.00    +0.086 C 
ATOM     13  C   UNL     1       1.683 -10.315   0.771  0.00  0.00    +0.164 C 
ATOM     14  O   UNL     1       2.695 -10.951   0.988  0.00  0.00    -0.292 OA
ATOM     15  C   UNL     1      -0.608 -10.953  -0.965  0.00  0.00    +0.011 C 
ATOM     16  C   UNL     1      -2.109 -10.734   1.025  0.00  0.00    +0.011 C 
ATOM     17  H   UNL     1      -0.098  -6.841  -1.341  0.00  0.00    +0.155 HD
ENDROOT
BRANCH   6  18
ATOM     18  C   UNL     1       3.491  -9.684  -1.664  0.00  0.00    +0.012 A 
ATOM     19  C   UNL     1       2.651  -9.815  -2.755  0.00  0.00    +0.008 A 
ATOM     20  C   UNL     1       2.990 -10.665  -3.791  0.00  0.00    +0.000 A 
ATOM     21  C   UNL     1       4.169 -11.384  -3.736  0.00  0.00    +0.002 A 
ATOM     22  C   UNL     1       5.009 -11.254  -2.647  0.00  0.00    +0.033 A 
ATOM     23  C   UNL     1       4.672 -10.400  -1.613  0.00  0.00    +0.132 A 
BRANCH  23  24
ATOM     24  N   UNL     1       5.574 -10.256  -0.448  0.00  0.00    +0.057 N 
ATOM     25  O   UNL     1       6.773 -10.253  -0.608  0.00  0.00    -0.126 OA
ATOM     26  O   UNL     1       5.113 -10.142   0.664  0.00  0.00    -0.126 OA
ENDBRANCH  23  24
ENDBRANCH   6  18
BRANCH   1  27
ATOM     27  S   UNL     1       4.500  -3.982  -2.302  0.00  0.00    -0.080 S 
BRANCH  27  28
ATOM     28  C   UNL     1       3.202  -2.777  -2.696  0.00  0.00    +0.112 C 
BRANCH  28  33
ATOM     29  C   UNL     1       5.625   2.131  -4.550  0.00  0.00    +0.044 C 
ATOM     30  C   UNL     1       4.993   0.851  -4.067  0.00  0.00    -0.050 A 
ATOM     31  C   UNL     1       4.668  -0.144  -4.970  0.00  0.00    +0.003 A 
ATOM     32  C   UNL     1       4.089  -1.318  -4.527  0.00  0.00    +0.005 A 
ATOM     33  C   UNL     1       3.835  -1.498  -3.180  0.00  0.00    -0.037 A 
ATOM     34  C   UNL     1       4.161  -0.503  -2.276  0.00  0.00    +0.005 A 
ATOM     35  C   UNL     1       4.744   0.669  -2.719  0.00  0.00    +0.003 A 
ENDBRANCH  28  33
ENDBRANCH  27  28
ENDBRANCH   1  27
TORSDOF 5
