REMARK  Name = ZINC17719309
REMARK  14 active torsions:
REMARK  status: ('A' for Active; 'I' for Inactive)
REMARK    1  A    between atoms: C_1  and  C_2
REMARK    2  A    between atoms: C_2  and  C_3
REMARK    3  A    between atoms: C_3  and  C_5
REMARK    4  A    between atoms: C_3  and  N_62
REMARK    5  A    between atoms: C_8  and  S_17
REMARK    6  A    between atoms: N_9  and  C_10
REMARK    7  A    between atoms: C_10  and  C_11
REMARK    8  A    between atoms: S_17  and  C_18
REMARK    9  A    between atoms: C_18  and  C_20
REMARK   10  A    between atoms: C_18  and  C_21
REMARK   11  A    between atoms: C_24  and  C_26
REMARK   12  A    between atoms: C_29  and  N_32
REMARK   13  A    between atoms: C_35  and  N_62
REMARK   14  A    between atoms: C_36  and  N_62
REMARK                            x       y       z     vdW  Elec       q    Type
REMARK                         _______ _______ _______ _____ _____    ______ ____
ROOT
ATOM      1  C   UNL     1      -3.305   1.700   1.880  0.00  0.00    +0.121 A 
ATOM      2  N   UNL     1      -3.393   0.857   2.869  0.00  0.00    -0.135 NA
ATOM      3  N   UNL     1      -2.558  -0.105   2.704  0.00  0.00    -0.123 NA
ATOM      4  C   UNL     1      -1.889   0.071   1.588  0.00  0.00    +0.193 A 
ATOM      5  N   UNL     1      -2.342   1.232   1.030  0.00  0.00    -0.303 N 
ENDROOT
BRANCH   1   6
ATOM      6  C   UNL     1      -4.115   2.959   1.704  0.00  0.00    +0.000 C 
BRANCH   6   9
ATOM      7  C   UNL     1      -2.818   3.924   3.507  0.00  0.00    -0.096 C 
ATOM      8  C   UNL     1      -4.903   4.953   2.830  0.00  0.00    -0.096 C 
ATOM      9  N   UNL     1      -4.182   3.673   2.997  0.00  0.00    +0.383 N 
ATOM     10  H   UNL     1      -4.689   3.090   3.674  0.00  0.00    -0.082 HD
ENDBRANCH   6   9
BRANCH   6  12
ATOM     11  C   UNL     1      -5.487   1.911  -0.102  0.00  0.00    +0.002 C 
ATOM     12  C   UNL     1      -5.535   2.595   1.266  0.00  0.00    -0.011 C 
ENDBRANCH   6  12
ENDBRANCH   1   6
BRANCH   5  13
ATOM     13  C   UNL     1      -1.893   1.845  -0.223  0.00  0.00    +0.160 C 
BRANCH  13  14
ATOM     14  C   UNL     1      -0.753   2.789   0.060  0.00  0.00    -0.028 A 
ATOM     15  C   UNL     1       0.550   2.328   0.032  0.00  0.00    +0.005 A 
ATOM     16  C   UNL     1       1.596   3.195   0.286  0.00  0.00    +0.000 A 
ATOM     17  C   UNL     1       1.339   4.523   0.574  0.00  0.00    +0.000 A 
ATOM     18  C   UNL     1       0.035   4.983   0.607  0.00  0.00    +0.000 A 
ATOM     19  C   UNL     1      -1.010   4.115   0.353  0.00  0.00    +0.005 A 
ENDBRANCH  13  14
ENDBRANCH   5  13
BRANCH   4  20
ATOM     20  S   UNL     1      -0.642  -0.989   0.936  0.00  0.00    -0.073 S 
BRANCH  20  21
ATOM     21  C   UNL     1      -0.618  -2.270   2.214  0.00  0.00    +0.139 C 
ATOM     22  C   UNL     1      -1.960  -3.005   2.224  0.00  0.00    +0.029 C 
BRANCH  21  23
ATOM     23  C   UNL     1       0.489  -3.250   1.923  0.00  0.00    +0.231 A 
ATOM     24  N   UNL     1       0.764  -3.779   0.763  0.00  0.00    -0.111 NA
ATOM     25  N   UNL     1       1.774  -4.567   0.878  0.00  0.00    -0.107 NA
ATOM     26  C   UNL     1       2.176  -4.576   2.127  0.00  0.00    +0.248 A 
ATOM     27  O   UNL     1       1.369  -3.742   2.812  0.00  0.00    -0.419 OA
BRANCH  26  28
ATOM     28  C   UNL     1       3.303  -5.356   2.680  0.00  0.00    +0.039 A 
ATOM     29  C   UNL     1       3.622  -5.262   4.036  0.00  0.00    +0.015 A 
ATOM     30  C   UNL     1       4.673  -5.996   4.546  0.00  0.00    +0.033 A 
ATOM     31  C   UNL     1       5.416  -6.816   3.716  0.00  0.00    +0.126 A 
ATOM     32  C   UNL     1       5.108  -6.910   2.370  0.00  0.00    +0.033 A 
ATOM     33  C   UNL     1       4.057  -6.185   1.848  0.00  0.00    +0.015 A 
BRANCH  31  34
ATOM     34  N   UNL     1       6.546  -7.596   4.269  0.00  0.00    +0.056 N 
ATOM     35  O   UNL     1       7.202  -8.319   3.541  0.00  0.00    -0.126 OA
ATOM     36  O   UNL     1       6.820  -7.515   5.454  0.00  0.00    -0.126 OA
ENDBRANCH  31  34
ENDBRANCH  26  28
ENDBRANCH  21  23
ENDBRANCH  20  21
ENDBRANCH   4  20
TORSDOF 10
