REMARK  Name = ZINC42578234
REMARK  3 active torsions:
REMARK  status: ('A' for Active; 'I' for Inactive)
REMARK    1  A    between atoms: C_4  and  N_8
REMARK    2  A    between atoms: N_8  and  C_9
REMARK    3  A    between atoms: C_16  and  O_18
REMARK                            x       y       z     vdW  Elec       q    Type
REMARK                         _______ _______ _______ _____ _____    ______ ____
ROOT
ATOM      1  N   UNL     1       3.621  -0.650  -0.037  0.00  0.00    -0.336 N 
ATOM      2  H   UNL     1       4.453  -0.153  -0.043  0.00  0.00    +0.147 HD
ENDROOT
BRANCH   1   6
ATOM      3  C   UNL     1      -0.017   1.379   0.010  0.00  0.00    +0.016 A 
ATOM      4  C   UNL     1       1.170   2.090   0.002  0.00  0.00    +0.018 A 
ATOM      5  C   UNL     1       2.378   1.420  -0.013  0.00  0.00    +0.039 A 
ATOM      6  C   UNL     1       2.400   0.030  -0.021  0.00  0.00    +0.043 A 
ATOM      7  C   UNL     1       1.208  -0.680  -0.013  0.00  0.00    +0.039 A 
ATOM      8  C   UNL     1       0.002  -0.004   0.002  0.00  0.00    +0.020 A 
ATOM      9 BR   UNL     1      -1.623  -0.971   0.013  0.00  0.00    -0.050 Br
ATOM     10 BR   UNL     1       3.999   2.393  -0.025  0.00  0.00    -0.048 Br
ENDBRANCH   1   6
BRANCH   1  11
ATOM     11  C   UNL     1       3.643  -2.115  -0.045  0.00  0.00    +0.121 C 
ATOM     12  C   UNL     1       3.502  -2.618   1.409  0.00  0.00    +0.190 C 
ATOM     13  S   UNL     1       4.610  -4.095   1.388  0.00  0.00    -0.027 S 
ATOM     14  O   UNL     1       5.250  -4.221   2.650  0.00  0.00    -0.174 OA
ATOM     15  O   UNL     1       3.909  -5.202   0.839  0.00  0.00    -0.174 OA
ATOM     16  C   UNL     1       5.823  -3.462   0.148  0.00  0.00    +0.199 C 
ATOM     17  C   UNL     1       4.918  -2.578  -0.733  0.00  0.00    +0.157 C 
BRANCH  17  18
ATOM     18  O   UNL     1       4.563  -3.319  -1.902  0.00  0.00    -0.388 OA
ATOM     19  H   UNL     1       5.321  -3.652  -2.402  0.00  0.00    +0.210 HD
ENDBRANCH  17  18
ENDBRANCH   1  11
TORSDOF 3
