REMARK  Name = ZINC06196777
REMARK  8 active torsions:
REMARK  status: ('A' for Active; 'I' for Inactive)
REMARK    1  A    between atoms: C_1  and  C_2
REMARK    2  A    between atoms: C_2  and  O_3
REMARK    3  A    between atoms: O_3  and  C_4
REMARK    4  A    between atoms: C_11  and  C_16
REMARK    5  A    between atoms: C_16  and  C_18
REMARK    6  A    between atoms: C_16  and  N_64
REMARK    7  A    between atoms: N_22  and  C_23
REMARK    8  A    between atoms: C_31  and  C_34
REMARK                            x       y       z     vdW  Elec       q    Type
REMARK                         _______ _______ _______ _____ _____    ______ ____
ROOT
ATOM      1  C   UNL     1       1.179   3.631   0.010  0.00  0.00    +0.039 C 
ENDROOT
BRANCH   1   9
ATOM      2  C   UNL     1      -1.240  -2.077  -0.017  0.00  0.00    +0.121 A 
ATOM      3  C   UNL     1      -0.023  -2.755  -0.000  0.00  0.00    +0.047 A 
ATOM      4  C   UNL     1       1.167  -2.061   0.015  0.00  0.00    +0.030 A 
ATOM      5  C   UNL     1       1.161  -0.670   0.013  0.00  0.00    +0.049 A 
ATOM      6  C   UNL     1      -0.066   0.019  -0.003  0.00  0.00    +0.002 A 
ATOM      7  C   UNL     1      -1.268  -0.697  -0.018  0.00  0.00    +0.055 A 
ATOM      8  C   UNL     1      -0.059   1.483  -0.004  0.00  0.00    +0.017 A 
ATOM      9  C   UNL     1       1.136   2.125   0.011  0.00  0.00    +0.011 A 
ATOM     10  C   UNL     1       2.339   1.387   0.027  0.00  0.00    +0.251 A 
ATOM     11  O   UNL     1       3.402   1.984   0.040  0.00  0.00    -0.268 OA
ATOM     12  N   UNL     1       2.342   0.043   0.028  0.00  0.00    -0.322 N 
ATOM     13  H   UNL     1       3.214  -0.448   0.040  0.00  0.00    +0.169 HD
BRANCH   2  14
ATOM     14  O   UNL     1      -2.404  -2.778  -0.032  0.00  0.00    -0.492 OA
BRANCH  14  16
ATOM     15  C   UNL     1      -3.707  -4.813  -0.048  0.00  0.00    +0.048 C 
ATOM     16  C   UNL     1      -2.304  -4.203  -0.030  0.00  0.00    +0.225 C 
ENDBRANCH  14  16
ENDBRANCH   2  14
ENDBRANCH   1   9
BRANCH   1  23
ATOM     17  C   UNL     1       2.047   5.564  -1.160  0.00  0.00    -0.077 C 
ATOM     18  C   UNL     1       3.040   6.013  -2.236  0.00  0.00    -0.018 C 
ATOM     19  C   UNL     1       2.611   5.440  -3.590  0.00  0.00    -0.001 C 
ATOM     20  C   UNL     1       2.540   3.913  -3.489  0.00  0.00    -0.031 C 
ATOM     21  C   UNL     1       1.562   3.526  -2.378  0.00  0.00    -0.074 C 
ATOM     22  C   UNL     1       2.055   3.336  -4.821  0.00  0.00    +0.005 C 
ATOM     23  N   UNL     1       2.043   4.087  -1.098  0.00  0.00    +0.389 N 
ATOM     24  H   UNL     1       3.002   3.758  -0.929  0.00  0.00    -0.080 HD
ENDBRANCH   1  23
BRANCH   1  25
ATOM     25  C   UNL     1       1.759   4.118   1.313  0.00  0.00    +0.143 A 
ATOM     26  N   UNL     1       3.029   4.155   1.639  0.00  0.00    -0.115 NA
ATOM     27  N   UNL     1       3.120   4.636   2.830  0.00  0.00    -0.023 NA
ATOM     28  N   UNL     1       1.941   4.899   3.277  0.00  0.00    -0.044 NA
ATOM     29  N   UNL     1       1.075   4.593   2.370  0.00  0.00    -0.227 N 
BRANCH  29  30
ATOM     30  C   UNL     1      -0.379   4.735   2.473  0.00  0.00    +0.111 C 
ATOM     31  C   UNL     1      -0.747   6.205   2.763  0.00  0.00    +0.027 C 
ATOM     32  C   UNL     1      -1.952   6.110   3.732  0.00  0.00    +0.002 C 
ATOM     33  C   UNL     1      -1.578   4.902   4.626  0.00  0.00    +0.002 C 
ATOM     34  C   UNL     1      -0.908   3.907   3.657  0.00  0.00    +0.027 C 
ENDBRANCH  29  30
ENDBRANCH   1  25
TORSDOF 6
