REMARK  Name = ZINC40978807
REMARK  11 active torsions:
REMARK  status: ('A' for Active; 'I' for Inactive)
REMARK    1  A    between atoms: C_1  and  C_2
REMARK    2  A    between atoms: C_3  and  C_29
REMARK    3  A    between atoms: C_4  and  C_12
REMARK    4  A    between atoms: C_15  and  O_20
REMARK    5  A    between atoms: C_16  and  O_18
REMARK    6  A    between atoms: O_18  and  C_19
REMARK    7  A    between atoms: O_20  and  C_21
REMARK    8  A    between atoms: C_21  and  C_22
REMARK    9  A    between atoms: C_29  and  O_31
REMARK   10  A    between atoms: O_31  and  C_32
REMARK   11  A    between atoms: C_32  and  C_33
REMARK                            x       y       z     vdW  Elec       q    Type
REMARK                         _______ _______ _______ _____ _____    ______ ____
ROOT
ATOM      1  C   UNL     1      -0.018   1.503   0.010  0.00  0.00    +0.061 C 
ATOM      2  C   UNL     1       0.002  -0.004   0.002  0.00  0.00    +0.020 C 
ATOM      3  C   UNL     1      -1.165  -0.668   0.004  0.00  0.00    +0.082 C 
ATOM      4  C   UNL     1      -1.255  -2.171   0.008  0.00  0.00    +0.181 C 
ATOM      5  N   UNL     1       0.058  -2.736  -0.277  0.00  0.00    -0.201 N 
ATOM      6  C   UNL     1       1.208  -2.011  -0.275  0.00  0.00    +0.240 A 
ATOM      7  N   UNL     1       2.180  -2.829  -0.561  0.00  0.00    -0.092 NA
ATOM      8  N   UNL     1       1.723  -4.020  -0.747  0.00  0.00    -0.021 NA
ATOM      9  N   UNL     1       0.438  -4.039  -0.592  0.00  0.00    -0.042 NA
ATOM     10  N   UNL     1       1.213  -0.650  -0.013  0.00  0.00    -0.286 N 
ATOM     11  H   UNL     1       2.041  -0.174   0.157  0.00  0.00    +0.155 HD
ENDROOT
BRANCH   4  12
ATOM     12  C   UNL     1      -1.723  -2.643   1.360  0.00  0.00    -0.015 A 
ATOM     13  C   UNL     1      -0.983  -2.345   2.489  0.00  0.00    +0.010 A 
ATOM     14  C   UNL     1      -1.408  -2.776   3.732  0.00  0.00    +0.050 A 
ATOM     15  C   UNL     1      -2.579  -3.507   3.849  0.00  0.00    +0.162 A 
ATOM     16  C   UNL     1      -3.324  -3.807   2.712  0.00  0.00    +0.162 A 
ATOM     17  C   UNL     1      -2.895  -3.368   1.470  0.00  0.00    +0.055 A 
BRANCH  16  18
ATOM     18  O   UNL     1      -4.474  -4.525   2.822  0.00  0.00    -0.491 OA
ATOM     19  C   UNL     1      -5.188  -4.795   1.613  0.00  0.00    +0.277 C 
ENDBRANCH  16  18
BRANCH  15  20
ATOM     20  O   UNL     1      -2.998  -3.932   5.070  0.00  0.00    -0.484 OA
BRANCH  20  21
ATOM     21  C   UNL     1      -2.182  -3.588   6.192  0.00  0.00    +0.266 C 
BRANCH  21  22
ATOM     22  C   UNL     1      -2.800  -4.140   7.451  0.00  0.00    +0.008 A 
ATOM     23  C   UNL     1      -3.980  -4.858   7.385  0.00  0.00    +0.008 A 
ATOM     24  C   UNL     1      -4.547  -5.364   8.539  0.00  0.00    +0.000 A 
ATOM     25  C   UNL     1      -3.935  -5.152   9.761  0.00  0.00    +0.001 A 
ATOM     26  C   UNL     1      -2.756  -4.434   9.828  0.00  0.00    +0.020 A 
ATOM     27  C   UNL     1      -2.185  -3.932   8.672  0.00  0.00    +0.047 A 
ATOM     28 CL   UNL     1      -0.701  -3.036   8.755  0.00  0.00    -0.083 Cl
ENDBRANCH  21  22
ENDBRANCH  20  21
ENDBRANCH  15  20
ENDBRANCH   4  12
BRANCH   3  29
ATOM     29  C   UNL     1      -2.364   0.079   0.003  0.00  0.00    +0.339 C 
ATOM     30  O   UNL     1      -2.323   1.295   0.001  0.00  0.00    -0.245 OA
BRANCH  29  31
ATOM     31  O   UNL     1      -3.554  -0.556   0.005  0.00  0.00    -0.457 OA
BRANCH  31  32
ATOM     32  C   UNL     1      -4.726   0.262   0.004  0.00  0.00    +0.259 C 
BRANCH  32  33
ATOM     33  C   UNL     1      -5.951  -0.616   0.007  0.00  0.00    +0.006 C 
ATOM     34  C   UNL     1      -6.950  -0.344   0.809  0.00  0.00    +0.007 C 
ENDBRANCH  32  33
ENDBRANCH  31  32
ENDBRANCH  29  31
ENDBRANCH   3  29
TORSDOF 9
