REMARK  Name = ZINC64873900
REMARK  8 active torsions:
REMARK  status: ('A' for Active; 'I' for Inactive)
REMARK    1  A    between atoms: C_1  and  C_2
REMARK    2  A    between atoms: C_2  and  N_3
REMARK    3  A    between atoms: C_7  and  C_9
REMARK    4  A    between atoms: C_9  and  N_10
REMARK    5  A    between atoms: C_11  and  C_13
REMARK    6  A    between atoms: N_22  and  C_30
REMARK    7  A    between atoms: C_30  and  C_31
REMARK    8  A    between atoms: C_34  and  C_37
REMARK                            x       y       z     vdW  Elec       q    Type
REMARK                         _______ _______ _______ _____ _____    ______ ____
ROOT
ATOM      1  C   UNL     1      -1.273  -1.191  -4.866  0.00  0.00    +0.078 C 
ATOM      2  C   UNL     1       0.235  -1.307  -5.103  0.00  0.00    +0.031 C 
ATOM      3  C   UNL     1       0.599  -0.587  -6.406  0.00  0.00    +0.107 C 
ATOM      4  N   UNL     1      -0.226  -1.130  -7.493  0.00  0.00    -0.311 N 
ATOM      5  C   UNL     1      -1.686  -1.150  -7.329  0.00  0.00    +0.107 C 
ATOM      6  C   UNL     1      -2.025  -1.863  -6.017  0.00  0.00    +0.031 C 
ATOM      7  C   UNL     1       0.360  -1.613  -8.649  0.00  0.00    +0.188 A 
ATOM      8  C   UNL     1      -0.482  -1.991  -9.800  0.00  0.00    +0.292 A 
ATOM      9  O   UNL     1      -1.692  -1.881  -9.741  0.00  0.00    -0.264 OA
ATOM     10  N   UNL     1       0.109  -2.460 -10.921  0.00  0.00    -0.300 N 
ATOM     11  C   UNL     1       1.487  -2.573 -10.957  0.00  0.00    +0.071 A 
ATOM     12  C   UNL     1       2.121  -3.053 -12.098  0.00  0.00    +0.028 A 
ATOM     13  C   UNL     1       3.495  -3.162 -12.127  0.00  0.00    +0.002 A 
ATOM     14  C   UNL     1       4.252  -2.796 -11.023  0.00  0.00    +0.002 A 
ATOM     15  C   UNL     1       3.651  -2.323  -9.892  0.00  0.00    +0.030 A 
ATOM     16  C   UNL     1       2.255  -2.202  -9.839  0.00  0.00    +0.090 A 
ATOM     17  N   UNL     1       1.661  -1.729  -8.723  0.00  0.00    -0.225 NA
ENDROOT
BRANCH   1  19
ATOM     18  N   UNL     1      -1.084  -1.442  -2.413  0.00  0.00    -0.317 N 
ATOM     19  C   UNL     1      -1.631  -1.868  -3.568  0.00  0.00    +0.216 C 
ATOM     20  O   UNL     1      -2.410  -2.797  -3.564  0.00  0.00    -0.276 OA
ATOM     21  H   UNL     1      -0.461  -0.699  -2.416  0.00  0.00    +0.149 HD
BRANCH  18  22
ATOM     22  C   UNL     1      -1.432  -2.100  -1.151  0.00  0.00    +0.089 C 
BRANCH  22  27
ATOM     23  N   UNL     1      -0.958   0.020   0.002  0.00  0.00    +0.382 N 
ATOM     24  C   UNL     1      -1.576   0.378   1.297  0.00  0.00    -0.078 C 
ATOM     25  C   UNL     1      -2.216  -0.937   1.807  0.00  0.00    -0.020 C 
ATOM     26  C   UNL     1      -1.173  -1.991   1.349  0.00  0.00    -0.016 C 
ATOM     27  C   UNL     1      -0.680  -1.428  -0.001  0.00  0.00    -0.051 C 
ATOM     28  H   UNL     1      -1.593   0.245  -0.749  0.00  0.00    -0.081 HD
BRANCH  23  30
ATOM     29  C   UNL     1      -0.010   2.259  -0.291  0.00  0.00    -0.017 C 
ATOM     30  C   UNL     1       0.296   0.765  -0.170  0.00  0.00    -0.082 C 
ENDBRANCH  23  30
ENDBRANCH  22  27
ENDBRANCH  18  22
ENDBRANCH   1  19
BRANCH  10  31
ATOM     31  C   UNL     1      -0.698  -2.845 -12.081  0.00  0.00    +0.160 C 
BRANCH  31  32
ATOM     32  C   UNL     1      -0.880  -1.652 -12.984  0.00  0.00    -0.028 A 
ATOM     33  C   UNL     1      -1.956  -0.804 -12.800  0.00  0.00    +0.005 A 
ATOM     34  C   UNL     1      -2.123   0.290 -13.628  0.00  0.00    +0.004 A 
ATOM     35  C   UNL     1      -1.214   0.537 -14.640  0.00  0.00    -0.050 A 
ATOM     36  C   UNL     1      -0.137  -0.311 -14.823  0.00  0.00    +0.004 A 
ATOM     37  C   UNL     1       0.032  -1.403 -13.992  0.00  0.00    +0.005 A 
ATOM     38  C   UNL     1      -1.396   1.729 -15.543  0.00  0.00    +0.044 C 
ENDBRANCH  31  32
ENDBRANCH  10  31
TORSDOF 6
