REMARK  Name = ZINC25096207
REMARK  10 active torsions:
REMARK  status: ('A' for Active; 'I' for Inactive)
REMARK    1  A    between atoms: C_1  and  O_2
REMARK    2  A    between atoms: O_2  and  C_3
REMARK    3  A    between atoms: C_3  and  C_4
REMARK    4  A    between atoms: C_4  and  N_5
REMARK    5  A    between atoms: N_5  and  C_6
REMARK    6  A    between atoms: C_6  and  C_7
REMARK    7  A    between atoms: C_12  and  C_14
REMARK    8  A    between atoms: C_18  and  N_20
REMARK    9  A    between atoms: N_20  and  S_21
REMARK   10  A    between atoms: S_21  and  C_24
REMARK                            x       y       z     vdW  Elec       q    Type
REMARK                         _______ _______ _______ _____ _____    ______ ____
ROOT
ATOM      1  C   UNL     1      -0.859  -2.465   1.341  0.00  0.00    +0.039 A 
ATOM      2  C   UNL     1       0.503  -2.170   1.431  0.00  0.00    +0.013 A 
ATOM      3  C   UNL     1       1.075  -1.923   2.662  0.00  0.00    +0.003 A 
ATOM      4  C   UNL     1       0.305  -1.967   3.809  0.00  0.00    +0.027 A 
ATOM      5  C   UNL     1      -1.051  -2.260   3.730  0.00  0.00    +0.075 A 
ATOM      6  C   UNL     1      -1.637  -2.503   2.497  0.00  0.00    +0.039 A 
ENDROOT
BRANCH   1   8
ATOM      7  N   UNL     1      -2.207  -3.845  -0.167  0.00  0.00    -0.288 N 
ATOM      8  C   UNL     1      -1.475  -2.729   0.023  0.00  0.00    +0.247 C 
ATOM      9  O   UNL     1      -1.321  -1.941  -0.889  0.00  0.00    -0.270 OA
BRANCH   7  10
ATOM     10  C   UNL     1      -2.758  -4.143  -1.491  0.00  0.00    +0.136 C 
BRANCH  10  11
ATOM     11  C   UNL     1      -4.202  -3.642  -1.567  0.00  0.00    +0.178 C 
BRANCH  11  13
ATOM     12  C   UNL     1      -5.527  -1.645  -1.522  0.00  0.00    +0.194 C 
ATOM     13  O   UNL     1      -4.218  -2.217  -1.462  0.00  0.00    -0.381 OA
ENDBRANCH  11  13
ENDBRANCH  10  11
ENDBRANCH   7  10
BRANCH   7  14
ATOM     14  C   UNL     1      -2.451  -4.760   0.951  0.00  0.00    +0.182 C 
BRANCH  14  15
ATOM     15  C   UNL     1      -1.331  -5.765   1.031  0.00  0.00    +0.122 A 
ATOM     16  C   UNL     1      -0.199  -5.625   1.744  0.00  0.00    +0.046 A 
ATOM     17  C   UNL     1       0.565  -6.796   1.533  0.00  0.00    +0.041 A 
ATOM     18  C   UNL     1      -0.147  -7.582   0.705  0.00  0.00    +0.195 A 
ATOM     19  O   UNL     1      -1.297  -6.954   0.409  0.00  0.00    -0.466 OA
ENDBRANCH  14  15
ENDBRANCH   7  14
ENDBRANCH   1   8
BRANCH   5  20
ATOM     20  N   UNL     1      -1.825  -2.304   4.893  0.00  0.00    -0.098 NA
BRANCH  20  21
ATOM     21  S   UNL     1      -1.127  -2.007   6.364  0.00  0.00    +0.092 S 
ATOM     22  O   UNL     1      -0.214  -3.070   6.603  0.00  0.00    -0.148 OA
ATOM     23  O   UNL     1      -0.723  -0.644   6.355  0.00  0.00    -0.148 OA
BRANCH  21  24
ATOM     24  C   UNL     1      -2.394  -2.149   7.580  0.00  0.00    +0.110 A 
ATOM     25  C   UNL     1      -3.139  -1.040   7.934  0.00  0.00    +0.030 A 
ATOM     26  C   UNL     1      -4.134  -1.150   8.888  0.00  0.00    +0.017 A 
ATOM     27  C   UNL     1      -4.383  -2.371   9.488  0.00  0.00    +0.018 A 
ATOM     28  C   UNL     1      -3.637  -3.481   9.134  0.00  0.00    +0.017 A 
ATOM     29  C   UNL     1      -2.646  -3.370   8.176  0.00  0.00    +0.030 A 
ATOM     30 BR   UNL     1      -5.742  -2.523  10.794  0.00  0.00    -0.050 Br
ENDBRANCH  21  24
ENDBRANCH  20  21
ENDBRANCH   5  20
TORSDOF 9
