REMARK  Name = ZINC03672057
REMARK  7 active torsions:
REMARK  status: ('A' for Active; 'I' for Inactive)
REMARK    1  A    between atoms: C_1  and  C_2
REMARK    2  A    between atoms: C_2  and  O_3
REMARK    3  A    between atoms: O_3  and  C_4
REMARK    4  A    between atoms: C_4  and  C_6
REMARK    5  A    between atoms: N_8  and  C_32
REMARK    6  A    between atoms: C_18  and  C_22
REMARK    7  A    between atoms: N_25  and  C_26
REMARK                            x       y       z     vdW  Elec       q    Type
REMARK                         _______ _______ _______ _____ _____    ______ ____
ROOT
ATOM      1  C   UNL     1       4.073   4.194   1.229  0.00  0.00    +0.204 C 
ATOM      2  N   UNL     1       3.638   4.284   0.001  0.00  0.00    -0.162 NA
ATOM      3  N   UNL     1       3.375   3.181  -0.785  0.00  0.00    -0.173 N 
ATOM      4  C   UNL     1       3.621   1.881  -0.139  0.00  0.00    +0.254 C 
ATOM      5  S   UNL     1       4.196   2.434   1.512  0.00  0.00    -0.029 S 
ATOM      6  N   UNL     1       4.701   1.163  -0.814  0.00  0.00    -0.291 N 
ATOM      7  C   UNL     1       4.764  -0.192  -0.600  0.00  0.00    +0.082 A 
ATOM      8  C   UNL     1       3.666  -0.950  -0.166  0.00  0.00    +0.069 A 
ATOM      9  C   UNL     1       3.906  -2.376  -0.003  0.00  0.00    -0.023 A 
ATOM     10  C   UNL     1       5.161  -2.794  -0.284  0.00  0.00    -0.004 A 
ATOM     11  S   UNL     1       6.035  -1.327  -0.763  0.00  0.00    -0.078 S 
ATOM     12  C   UNL     1       5.687  -4.193  -0.204  0.00  0.00    +0.046 C 
ATOM     13  C   UNL     1       4.493  -5.155  -0.119  0.00  0.00    -0.009 C 
ATOM     14  C   UNL     1       3.520  -4.639   0.945  0.00  0.00    +0.008 C 
ATOM     15  C   UNL     1       2.837  -3.363   0.451  0.00  0.00    +0.037 C 
ATOM     16  C   UNL     1       4.985  -6.551   0.270  0.00  0.00    +0.008 C 
ATOM     17  C   UNL     1       2.388  -0.242   0.082  0.00  0.00    +0.257 C 
ATOM     18  O   UNL     1       1.370  -0.849   0.360  0.00  0.00    -0.269 OA
ATOM     19  N   UNL     1       2.402   1.107  -0.015  0.00  0.00    -0.219 N 
ATOM     20  H   UNL     1       5.337   1.619  -1.386  0.00  0.00    +0.151 HD
ENDROOT
BRANCH  19  21
ATOM     21  C   UNL     1       1.180   1.787   0.000  0.00  0.00    +0.041 A 
ATOM     22  C   UNL     1       0.867   2.631   1.058  0.00  0.00    +0.023 A 
ATOM     23  C   UNL     1      -0.343   3.297   1.073  0.00  0.00    +0.002 A 
ATOM     24  C   UNL     1      -1.237   3.133   0.031  0.00  0.00    +0.000 A 
ATOM     25  C   UNL     1      -0.928   2.294  -1.024  0.00  0.00    +0.002 A 
ATOM     26  C   UNL     1       0.278   1.621  -1.042  0.00  0.00    +0.023 A 
ENDBRANCH  19  21
BRANCH   3  27
ATOM     27  C   UNL     1       2.911   3.289  -2.096  0.00  0.00    +0.056 A 
ATOM     28  C   UNL     1       2.668   2.144  -2.846  0.00  0.00    +0.025 A 
ATOM     29  C   UNL     1       2.204   2.255  -4.142  0.00  0.00    +0.002 A 
ATOM     30  C   UNL     1       1.991   3.504  -4.697  0.00  0.00    +0.000 A 
ATOM     31  C   UNL     1       2.236   4.645  -3.956  0.00  0.00    +0.002 A 
ATOM     32  C   UNL     1       2.695   4.542  -2.658  0.00  0.00    +0.025 A 
ENDBRANCH   3  27
BRANCH   1  33
ATOM     33  C   UNL     1       4.387   5.285   2.159  0.00  0.00    +0.366 C 
ATOM     34  O   UNL     1       4.786   5.032   3.280  0.00  0.00    -0.243 OA
BRANCH  33  35
ATOM     35  O   UNL     1       4.234   6.568   1.771  0.00  0.00    -0.460 OA
BRANCH  35  37
ATOM     36  C   UNL     1       4.329   8.975   2.127  0.00  0.00    +0.048 C 
ATOM     37  C   UNL     1       4.564   7.594   2.743  0.00  0.00    +0.229 C 
ENDBRANCH  35  37
ENDBRANCH  33  35
ENDBRANCH   1  33
TORSDOF 5
