REMARK  Name = ZINC41586188
REMARK  10 active torsions:
REMARK  status: ('A' for Active; 'I' for Inactive)
REMARK    1  A    between atoms: C_1  and  C_2
REMARK    2  A    between atoms: C_2  and  O_3
REMARK    3  A    between atoms: O_3  and  C_4
REMARK    4  A    between atoms: C_4  and  C_6
REMARK    5  A    between atoms: N_9  and  C_12
REMARK    6  A    between atoms: C_12  and  C_13
REMARK    7  A    between atoms: C_14  and  O_32
REMARK    8  A    between atoms: C_16  and  C_31
REMARK    9  A    between atoms: C_21  and  C_22
REMARK   10  A    between atoms: C_27  and  C_28
REMARK                            x       y       z     vdW  Elec       q    Type
REMARK                         _______ _______ _______ _____ _____    ______ ____
ROOT
ATOM      1  C   UNL     1       1.463  -6.117   5.186  0.00  0.00    +0.020 A 
ATOM      2  C   UNL     1       0.189  -6.648   5.308  0.00  0.00    +0.122 A 
ATOM      3  C   UNL     1      -0.062  -7.973   4.965  0.00  0.00    +0.050 A 
ATOM      4  C   UNL     1       0.951  -8.766   4.503  0.00  0.00    -0.033 A 
ATOM      5  C   UNL     1       2.238  -8.245   4.375  0.00  0.00    +0.071 A 
ATOM      6  C   UNL     1       2.502  -6.907   4.712  0.00  0.00    +0.145 A 
ATOM      7  O   UNL     1       3.808  -6.633   4.499  0.00  0.00    -0.451 OA
ATOM      8  C   UNL     1       4.478  -7.708   4.023  0.00  0.00    +0.176 C 
ATOM      9  C   UNL     1       5.796  -7.756   3.710  0.00  0.00    +0.058 C 
ATOM     10  C   UNL     1       3.518  -8.819   3.919  0.00  0.00    +0.232 C 
ATOM     11  O   UNL     1       3.729  -9.954   3.531  0.00  0.00    -0.283 OA
ATOM     12  C   UNL     1       0.677 -10.201   4.133  0.00  0.00    +0.045 C 
ENDROOT
BRANCH   9  13
ATOM     13  C   UNL     1       6.423  -9.040   3.363  0.00  0.00    -0.019 A 
ATOM     14  C   UNL     1       6.117 -10.193   4.096  0.00  0.00    +0.008 A 
ATOM     15  C   UNL     1       6.708 -11.393   3.764  0.00  0.00    +0.001 A 
ATOM     16  C   UNL     1       7.603 -11.460   2.710  0.00  0.00    +0.000 A 
ATOM     17  C   UNL     1       7.912 -10.325   1.981  0.00  0.00    +0.004 A 
ATOM     18  C   UNL     1       7.324  -9.118   2.296  0.00  0.00    -0.043 A 
ATOM     19  C   UNL     1       7.656  -7.884   1.496  0.00  0.00    +0.044 C 
ENDBRANCH   9  13
BRANCH   2  20
ATOM     20  O   UNL     1      -0.824  -5.869   5.767  0.00  0.00    -0.506 OA
ATOM     21  H   UNL     1      -1.300  -5.394   5.072  0.00  0.00    +0.292 HD
ENDBRANCH   2  20
BRANCH   1  22
ATOM     22  C   UNL     1       1.720  -4.680   5.561  0.00  0.00    -0.036 C 
BRANCH  22  26
ATOM     23  C   UNL     1       2.338  -1.827   2.457  0.00  0.00    +0.094 C 
ATOM     24  C   UNL     1       1.346  -1.514   3.581  0.00  0.00    -0.004 C 
ATOM     25  C   UNL     1       1.643  -2.415   4.782  0.00  0.00    -0.078 C 
ATOM     26  N   UNL     1       1.510  -3.822   4.388  0.00  0.00    +0.383 N 
ATOM     27  C   UNL     1       2.507  -4.148   3.361  0.00  0.00    -0.078 C 
ATOM     28  C   UNL     1       2.243  -3.315   2.105  0.00  0.00    -0.004 C 
ATOM     29  H   UNL     1       0.585  -3.981   4.019  0.00  0.00    -0.081 HD
BRANCH  23  30
ATOM     30  C   UNL     1       2.002  -1.000   1.244  0.00  0.00    +0.310 C 
ATOM     31  O   UNL     1       1.716  -1.542   0.203  0.00  0.00    -0.251 OA
BRANCH  30  32
ATOM     32  O   UNL     1       2.021   0.340   1.319  0.00  0.00    -0.465 OA
BRANCH  32  34
ATOM     33  C   UNL     1       1.767   2.564   0.408  0.00  0.00    +0.048 C 
ATOM     34  C   UNL     1       1.692   1.062   0.130  0.00  0.00    +0.229 C 
ENDBRANCH  32  34
ENDBRANCH  30  32
ENDBRANCH  23  30
ENDBRANCH  22  26
ENDBRANCH   1  22
TORSDOF 7
