REMARK  Name = ZINC36660380
REMARK  12 active torsions:
REMARK  status: ('A' for Active; 'I' for Inactive)
REMARK    1  A    between atoms: C_1  and  C_2
REMARK    2  A    between atoms: C_2  and  N_3
REMARK    3  A    between atoms: N_3  and  C_4
REMARK    4  A    between atoms: N_3  and  C_6
REMARK    5  A    between atoms: C_4  and  C_5
REMARK    6  A    between atoms: C_6  and  C_7
REMARK    7  A    between atoms: C_7  and  N_8
REMARK    8  A    between atoms: C_12  and  C_19
REMARK    9  A    between atoms: C_13  and  C_18
REMARK   10  A    between atoms: C_20  and  C_22
REMARK   11  A    between atoms: N_27  and  S_28
REMARK   12  A    between atoms: S_28  and  C_31
REMARK                            x       y       z     vdW  Elec       q    Type
REMARK                         _______ _______ _______ _____ _____    ______ ____
ROOT
ATOM      1  N   UNL     1      -2.978  -4.719  -0.149  0.00  0.00    -0.251 N 
ATOM      2  C   UNL     1      -3.139  -5.332   1.083  0.00  0.00    +0.168 A 
ATOM      3  N   UNL     1      -3.112  -6.611   1.377  0.00  0.00    -0.224 NA
ATOM      4  C   UNL     1      -3.285  -7.072   2.634  0.00  0.00    +0.083 A 
ATOM      5  C   UNL     1      -3.280  -8.413   3.081  0.00  0.00    -0.021 A 
ATOM      6  C   UNL     1      -3.473  -8.711   4.405  0.00  0.00    -0.045 A 
ATOM      7  C   UNL     1      -3.679  -7.715   5.349  0.00  0.00    +0.005 A 
ATOM      8  C   UNL     1      -3.691  -6.392   4.947  0.00  0.00    +0.017 A 
ATOM      9  C   UNL     1      -3.498  -6.085   3.624  0.00  0.00    +0.041 A 
ATOM     10  S   UNL     1      -3.426  -4.581   2.680  0.00  0.00    -0.052 S 
ATOM     11  C   UNL     1      -3.461 -10.152   4.845  0.00  0.00    +0.044 C 
ATOM     12  C   UNL     1      -3.060  -9.528   2.091  0.00  0.00    +0.046 C 
ATOM     13  C   UNL     1      -2.767  -5.466  -1.250  0.00  0.00    +0.240 C 
ATOM     14  O   UNL     1      -2.809  -6.676  -1.180  0.00  0.00    -0.273 OA
ENDROOT
BRANCH  13  15
ATOM     15  C   UNL     1      -2.480  -4.798  -2.570  0.00  0.00    +0.166 C 
ATOM     16  C   UNL     1      -3.800  -4.540  -3.326  0.00  0.00    +0.031 C 
ATOM     17  C   UNL     1      -3.420  -4.836  -4.801  0.00  0.00    +0.019 C 
ATOM     18  C   UNL     1      -2.417  -6.005  -4.635  0.00  0.00    +0.110 C 
ATOM     19  N   UNL     1      -1.658  -5.682  -3.410  0.00  0.00    -0.165 NA
BRANCH  19  20
ATOM     20  S   UNL     1      -0.136  -6.222  -3.041  0.00  0.00    +0.062 S 
ATOM     21  O   UNL     1       0.528  -6.438  -4.278  0.00  0.00    -0.153 OA
ATOM     22  O   UNL     1       0.375  -5.348  -2.044  0.00  0.00    -0.153 OA
BRANCH  20  23
ATOM     23  C   UNL     1      -0.314  -7.803  -2.283  0.00  0.00    +0.106 A 
ATOM     24  C   UNL     1      -0.319  -7.910  -0.904  0.00  0.00    +0.031 A 
ATOM     25  C   UNL     1      -0.459  -9.149  -0.308  0.00  0.00    +0.040 A 
ATOM     26  C   UNL     1      -0.594 -10.283  -1.092  0.00  0.00    +0.124 A 
ATOM     27  C   UNL     1      -0.589 -10.173  -2.472  0.00  0.00    +0.040 A 
ATOM     28  C   UNL     1      -0.455  -8.933  -3.066  0.00  0.00    +0.031 A 
ATOM     29  F   UNL     1      -0.731 -11.495  -0.510  0.00  0.00    -0.205 F 
ENDBRANCH  20  23
ENDBRANCH  19  20
ENDBRANCH  13  15
BRANCH   1  30
ATOM     30  C   UNL     1      -3.038  -3.259  -0.254  0.00  0.00    +0.097 C 
BRANCH  30  31
ATOM     31  C   UNL     1      -1.629  -2.679  -0.113  0.00  0.00    -0.059 C 
BRANCH  31  32
ATOM     32  N   UNL     1      -1.671  -1.229  -0.340  0.00  0.00    +0.380 N 
ATOM     33  H   UNL     1      -2.115  -1.040  -1.226  0.00  0.00    -0.082 HD
BRANCH  32  35
ATOM     34  C   UNL     1      -2.587   0.906   0.437  0.00  0.00    -0.017 C 
ATOM     35  C   UNL     1      -2.436  -0.587   0.738  0.00  0.00    -0.082 C 
ENDBRANCH  32  35
BRANCH  32  36
ATOM     36  C   UNL     1      -0.303  -0.695  -0.354  0.00  0.00    -0.082 C 
ATOM     37  C   UNL     1       0.452  -1.259  -1.560  0.00  0.00    -0.017 C 
ENDBRANCH  32  36
ENDBRANCH  31  32
ENDBRANCH  30  31
ENDBRANCH   1  30
TORSDOF 8
