REMARK  Name = ZINC09604456
REMARK  3 active torsions:
REMARK  status: ('A' for Active; 'I' for Inactive)
REMARK    1  A    between atoms: C_1  and  C_2
REMARK    2  A    between atoms: N_16  and  C_17
REMARK    3  A    between atoms: C_24  and  C_26
REMARK                            x       y       z     vdW  Elec       q    Type
REMARK                         _______ _______ _______ _____ _____    ______ ____
ROOT
ATOM      1  C   UNL     1      -2.422   3.964   0.597  0.00  0.00    +0.079 C 
ATOM      2  C   UNL     1      -1.140   3.406  -0.024  0.00  0.00    +0.185 C 
ATOM      3  C   UNL     1       0.073   4.145   0.558  0.00  0.00    +0.097 C 
ATOM      4  C   UNL     1       1.312   3.630  -0.193  0.00  0.00    +0.125 C 
ATOM      5  C   UNL     1       1.334   2.121  -0.090  0.00  0.00    +0.015 A 
ATOM      6  C   UNL     1       2.540   1.458  -0.232  0.00  0.00    +0.009 A 
ATOM      7  C   UNL     1       2.586   0.079  -0.160  0.00  0.00    +0.001 A 
ATOM      8  C   UNL     1       1.425  -0.640   0.054  0.00  0.00    +0.004 A 
ATOM      9  C   UNL     1       0.221   0.018   0.200  0.00  0.00    +0.046 A 
ATOM     10  C   UNL     1       0.170   1.407   0.132  0.00  0.00    +0.128 A 
ATOM     11  O   UNL     1      -1.029   2.022   0.297  0.00  0.00    -0.468 OA
ATOM     12  N   UNL     1       1.143   3.971  -1.615  0.00  0.00    -0.211 N 
ATOM     13  C   UNL     1      -0.076   3.905  -2.176  0.00  0.00    +0.319 C 
ATOM     14  O   UNL     1      -0.186   4.129  -3.366  0.00  0.00    -0.251 OA
ATOM     15  N   UNL     1      -1.177   3.602  -1.471  0.00  0.00    -0.216 N 
ATOM     16  C   UNL     1       2.207   4.347  -2.352  0.00  0.00    +0.290 C 
ATOM     17  O   UNL     1       2.050   4.728  -3.497  0.00  0.00    -0.266 OA
ENDROOT
BRANCH  15  18
ATOM     18  C   UNL     1      -2.399   3.470  -2.143  0.00  0.00    +0.042 A 
ATOM     19  C   UNL     1      -3.130   2.295  -2.032  0.00  0.00    +0.026 A 
ATOM     20  C   UNL     1      -4.337   2.169  -2.691  0.00  0.00    +0.040 A 
ATOM     21  C   UNL     1      -4.812   3.209  -3.471  0.00  0.00    +0.124 A 
ATOM     22  C   UNL     1      -4.082   4.380  -3.588  0.00  0.00    +0.040 A 
ATOM     23  C   UNL     1      -2.878   4.512  -2.925  0.00  0.00    +0.026 A 
ATOM     24  F   UNL     1      -5.990   3.081  -4.120  0.00  0.00    -0.205 F 
ENDBRANCH  15  18
BRANCH  16  25
ATOM     25  C   UNL     1       3.551   4.298  -1.774  0.00  0.00    +0.191 A 
ATOM     26  C   UNL     1       4.720   4.552  -2.436  0.00  0.00    +0.056 A 
ATOM     27  C   UNL     1       5.755   4.393  -1.504  0.00  0.00    +0.058 A 
ATOM     28  C   UNL     1       5.182   4.044  -0.328  0.00  0.00    +0.171 A 
ATOM     29  O   UNL     1       3.855   3.988  -0.496  0.00  0.00    -0.444 OA
ATOM     30 BR   UNL     1       6.105   3.693   1.285  0.00  0.00    -0.008 Br
ENDBRANCH  16  25
TORSDOF 2
