REMARK  Name = ZINC11709206
REMARK  8 active torsions:
REMARK  status: ('A' for Active; 'I' for Inactive)
REMARK    1  A    between atoms: C_4  and  C_7
REMARK    2  A    between atoms: C_8  and  C_9
REMARK    3  A    between atoms: C_9  and  N_59
REMARK    4  A    between atoms: C_15  and  C_17
REMARK    5  A    between atoms: C_17  and  C_18
REMARK    6  A    between atoms: N_20  and  C_21
REMARK    7  A    between atoms: C_21  and  C_22
REMARK    8  A    between atoms: C_22  and  C_23
REMARK                            x       y       z     vdW  Elec       q    Type
REMARK                         _______ _______ _______ _____ _____    ______ ____
ROOT
ATOM      1  C   UNL     1      -1.204   3.467   2.590  0.00  0.00    -0.058 C 
ATOM      2  C   UNL     1      -0.099   3.197   3.612  0.00  0.00    +0.085 C 
ATOM      3  N   UNL     1       0.340   1.807   3.519  0.00  0.00    -0.318 N 
ATOM      4  C   UNL     1       0.099   1.040   2.453  0.00  0.00    +0.200 C 
ATOM      5  O   UNL     1       0.529  -0.094   2.446  0.00  0.00    -0.278 OA
ATOM      6  C   UNL     1      -0.684   1.521   1.263  0.00  0.00    +0.028 C 
ATOM      7  H   UNL     1       0.830   1.425   4.264  0.00  0.00    +0.149 HD
ATOM      8  N   UNL     1      -0.733   2.995   1.272  0.00  0.00    +0.391 N 
ATOM      9  H   UNL     1       0.210   3.363   1.101  0.00  0.00    -0.080 HD
ENDROOT
BRANCH   8  10
ATOM     10  C   UNL     1      -1.639   3.478   0.205  0.00  0.00    -0.050 C 
BRANCH  10  12
ATOM     11  C   UNL     1      -1.098   5.412  -1.206  0.00  0.00    +0.002 C 
ATOM     12  C   UNL     1      -1.407   4.953  -0.002  0.00  0.00    -0.045 C 
BRANCH  11  16
ATOM     13  C   UNL     1      -0.443   9.568  -1.788  0.00  0.00    +0.000 A 
ATOM     14  C   UNL     1      -0.333   8.697  -2.857  0.00  0.00    +0.001 A 
ATOM     15  C   UNL     1      -0.544   7.346  -2.675  0.00  0.00    +0.008 A 
ATOM     16  C   UNL     1      -0.870   6.859  -1.409  0.00  0.00    -0.025 A 
ATOM     17  C   UNL     1      -0.986   7.744  -0.336  0.00  0.00    +0.008 A 
ATOM     18  C   UNL     1      -0.765   9.092  -0.530  0.00  0.00    +0.001 A 
ENDBRANCH  11  16
ENDBRANCH  10  12
ENDBRANCH   8  10
BRANCH   6  19
ATOM     19  C   UNL     1       0.005   1.054  -0.021  0.00  0.00    +0.089 C 
BRANCH  19  20
ATOM     20  C   UNL     1       1.378   1.669  -0.107  0.00  0.00    +0.212 C 
ATOM     21  O   UNL     1       1.728   2.487   0.717  0.00  0.00    -0.276 OA
ATOM     22  N   UNL     1       2.216   1.310  -1.099  0.00  0.00    -0.315 N 
ATOM     23  H   UNL     1       1.936   0.655  -1.757  0.00  0.00    +0.149 HD
BRANCH  22  24
ATOM     24  C   UNL     1       3.551   1.908  -1.183  0.00  0.00    +0.109 C 
BRANCH  24  25
ATOM     25  C   UNL     1       4.293   1.332  -2.390  0.00  0.00    +0.056 C 
BRANCH  25  26
ATOM     26  C   UNL     1       5.666   1.948  -2.476  0.00  0.00    -0.021 A 
ATOM     27  C   UNL     1       6.019   3.011  -3.215  0.00  0.00    +0.087 A 
ATOM     28  N   UNL     1       7.349   3.280  -3.039  0.00  0.00    -0.360 N 
ATOM     29  H   UNL     1       7.833   4.003  -3.470  0.00  0.00    +0.165 HD
ATOM     30  C   UNL     1       7.898   2.374  -2.160  0.00  0.00    +0.047 A 
ATOM     31  C   UNL     1       6.866   1.503  -1.765  0.00  0.00    +0.003 A 
ATOM     32  C   UNL     1       7.136   0.465  -0.871  0.00  0.00    +0.010 A 
ATOM     33  C   UNL     1       8.400   0.307  -0.375  0.00  0.00    +0.001 A 
ATOM     34  C   UNL     1       9.419   1.167  -0.758  0.00  0.00    +0.002 A 
ATOM     35  C   UNL     1       9.177   2.195  -1.644  0.00  0.00    +0.026 A 
ENDBRANCH  25  26
ENDBRANCH  24  25
ENDBRANCH  22  24
ENDBRANCH  19  20
ENDBRANCH   6  19
TORSDOF 8
