REMARK  Name = ZINC38595928
REMARK  8 active torsions:
REMARK  status: ('A' for Active; 'I' for Inactive)
REMARK    1  A    between atoms: C_1  and  C_2
REMARK    2  A    between atoms: C_2  and  C_4
REMARK    3  A    between atoms: C_2  and  N_24
REMARK    4  A    between atoms: C_4  and  C_6
REMARK    5  A    between atoms: C_4  and  N_11
REMARK    6  A    between atoms: N_14  and  C_17
REMARK    7  A    between atoms: C_17  and  C_18
REMARK    8  A    between atoms: C_25  and  C_27
REMARK                            x       y       z     vdW  Elec       q    Type
REMARK                         _______ _______ _______ _____ _____    ______ ____
ROOT
ATOM      1  C   UNL     1       0.667  -0.612   1.238  0.00  0.00    +0.113 C 
ENDROOT
BRANCH   1   2
ATOM      2  N   UNL     1      -0.092  -0.235   2.438  0.00  0.00    -0.297 NA
ATOM      3  C   UNL     1      -0.313   1.217   2.487  0.00  0.00    +0.066 C 
ATOM      4  C   UNL     1      -1.156   1.561   3.717  0.00  0.00    -0.063 C 
ATOM      5  N   UNL     1      -0.459   1.113   4.930  0.00  0.00    +0.384 N 
ATOM      6  C   UNL     1      -0.268  -0.342   4.878  0.00  0.00    -0.063 C 
ATOM      7  C   UNL     1       0.583  -0.702   3.657  0.00  0.00    +0.066 C 
ATOM      8  H   UNL     1       0.440   1.568   4.988  0.00  0.00    -0.081 HD
BRANCH   5   9
ATOM      9  C   UNL     1      -1.260   1.459   6.111  0.00  0.00    -0.043 C 
BRANCH   9  10
ATOM     10  C   UNL     1      -0.491   1.111   7.360  0.00  0.00    -0.064 A 
ATOM     11  C   UNL     1      -0.618  -0.145   7.922  0.00  0.00    +0.002 A 
ATOM     12  C   UNL     1       0.088  -0.464   9.067  0.00  0.00    +0.000 A 
ATOM     13  C   UNL     1       0.920   0.473   9.649  0.00  0.00    +0.000 A 
ATOM     14  C   UNL     1       1.048   1.729   9.087  0.00  0.00    +0.000 A 
ATOM     15  C   UNL     1       0.345   2.047   7.939  0.00  0.00    +0.002 A 
ENDBRANCH   9  10
ENDBRANCH   5   9
ENDBRANCH   1   2
BRANCH   1  16
ATOM     16  C   UNL     1       0.852  -2.107   1.210  0.00  0.00    +0.009 A 
ATOM     17  C   UNL     1       1.944  -2.826   0.852  0.00  0.00    +0.013 A 
ATOM     18  C   UNL     1       1.886  -4.206   0.905  0.00  0.00    +0.008 A 
ATOM     19  C   UNL     1       0.738  -4.800   1.315  0.00  0.00    +0.045 A 
ATOM     20  S   UNL     1      -0.308  -3.392   1.648  0.00  0.00    -0.100 S 
ENDBRANCH   1  16
BRANCH   1  22
ATOM     21  C   UNL     1       0.673  -0.597  -1.260  0.00  0.00    +0.030 C 
ATOM     22  C   UNL     1      -0.099  -0.169  -0.010  0.00  0.00    +0.092 C 
BRANCH  22  23
ATOM     23  N   UNL     1      -1.424  -0.793  -0.017  0.00  0.00    -0.307 N 
ATOM     24  C   UNL     1      -2.439  -0.210  -0.685  0.00  0.00    +0.244 C 
ATOM     25  O   UNL     1      -2.255   0.832  -1.282  0.00  0.00    -0.270 OA
ATOM     26  H   UNL     1      -1.571  -1.625   0.460  0.00  0.00    +0.149 HD
BRANCH  24  27
ATOM     27  C   UNL     1      -3.777  -0.840  -0.692  0.00  0.00    +0.038 A 
ATOM     28  C   UNL     1      -3.994  -2.034  -0.002  0.00  0.00    +0.013 A 
ATOM     29  C   UNL     1      -5.244  -2.616  -0.012  0.00  0.00    +0.002 A 
ATOM     30  C   UNL     1      -6.283  -2.020  -0.704  0.00  0.00    +0.015 A 
ATOM     31  C   UNL     1      -6.076  -0.836  -1.390  0.00  0.00    +0.019 A 
ATOM     32  C   UNL     1      -4.830  -0.239  -1.383  0.00  0.00    +0.028 A 
ATOM     33 BR   UNL     1      -7.503  -0.029  -2.334  0.00  0.00    -0.050 Br
ENDBRANCH  24  27
ENDBRANCH  22  23
ENDBRANCH   1  22
TORSDOF 7
