REMARK  Name = ZINC37264074
REMARK  12 active torsions:
REMARK  status: ('A' for Active; 'I' for Inactive)
REMARK    1  A    between atoms: C_1  and  C_2
REMARK    2  A    between atoms: C_2  and  C_3
REMARK    3  A    between atoms: C_3  and  C_5
REMARK    4  A    between atoms: C_3  and  N_6
REMARK    5  A    between atoms: C_7  and  C_9
REMARK    6  A    between atoms: C_9  and  N_10
REMARK    7  A    between atoms: C_13  and  C_23
REMARK    8  A    between atoms: N_15  and  C_16
REMARK    9  A    between atoms: C_23  and  C_24
REMARK   10  A    between atoms: C_23  and  C_25
REMARK   11  A    between atoms: C_23  and  C_26
REMARK   12  A    between atoms: C_27  and  C_33
REMARK                            x       y       z     vdW  Elec       q    Type
REMARK                         _______ _______ _______ _____ _____    ______ ____
ROOT
ATOM      1  N   UNL     1       0.480   3.682 -11.503  0.00  0.00    -0.246 N 
ATOM      2  C   UNL     1       1.032   3.713 -10.213  0.00  0.00    +0.136 A 
ATOM      3  C   UNL     1       1.784   4.733  -9.740  0.00  0.00    +0.034 A 
ATOM      4  C   UNL     1       2.163   4.417  -8.434  0.00  0.00    +0.075 A 
ATOM      5  N   UNL     1       1.654   3.247  -8.132  0.00  0.00    -0.169 NA
ATOM      6  N   UNL     1       0.931   2.778  -9.239  0.00  0.00    -0.218 N 
ATOM      7  C   UNL     1       2.126   5.981 -10.514  0.00  0.00    +0.115 C 
ATOM      8  S   UNL     1       3.373   5.556 -11.783  0.00  0.00    -0.138 S 
ATOM      9  C   UNL     1       2.762   3.946 -12.386  0.00  0.00    +0.166 C 
ATOM     10  C   UNL     1       1.273   3.964 -12.542  0.00  0.00    +0.231 C 
ATOM     11  O   UNL     1       0.783   4.239 -13.617  0.00  0.00    -0.274 OA
ENDROOT
BRANCH   6  12
ATOM     12  C   UNL     1       0.232   1.565  -9.322  0.00  0.00    +0.068 A 
ATOM     13  C   UNL     1       0.296   0.803 -10.480  0.00  0.00    +0.030 A 
ATOM     14  C   UNL     1      -0.393  -0.392 -10.559  0.00  0.00    +0.040 A 
ATOM     15  C   UNL     1      -1.149  -0.829  -9.484  0.00  0.00    +0.124 A 
ATOM     16  C   UNL     1      -1.215  -0.069  -8.328  0.00  0.00    +0.040 A 
ATOM     17  C   UNL     1      -0.522   1.122  -8.243  0.00  0.00    +0.030 A 
ATOM     18  F   UNL     1      -1.822  -1.997  -9.564  0.00  0.00    -0.205 F 
ENDBRANCH   6  12
BRANCH   7  19
ATOM     19  C   UNL     1       2.687   7.019  -9.576  0.00  0.00    +0.005 A 
ATOM     20  C   UNL     1       4.050   7.086  -9.354  0.00  0.00    +0.008 A 
ATOM     21  C   UNL     1       4.564   8.039  -8.495  0.00  0.00    +0.000 A 
ATOM     22  C   UNL     1       3.717   8.925  -7.856  0.00  0.00    +0.003 A 
ATOM     23  C   UNL     1       2.355   8.861  -8.077  0.00  0.00    +0.038 A 
ATOM     24  C   UNL     1       1.838   7.910  -8.942  0.00  0.00    +0.128 A 
ATOM     25  F   UNL     1       0.507   7.849  -9.162  0.00  0.00    -0.205 F 
ENDBRANCH   7  19
BRANCH   4  26
ATOM     26  C   UNL     1       3.011   5.273  -7.529  0.00  0.00    +0.007 C 
ATOM     27  C   UNL     1       2.337   6.633  -7.334  0.00  0.00    +0.017 C 
ATOM     28  C   UNL     1       3.167   4.582  -6.173  0.00  0.00    +0.017 C 
ATOM     29  C   UNL     1       4.390   5.473  -8.161  0.00  0.00    +0.017 C 
ENDBRANCH   4  26
BRANCH   1  30
ATOM     30  C   UNL     1      -0.930   3.342 -11.706  0.00  0.00    +0.210 C 
BRANCH  30  32
ATOM     31  N   UNL     1      -3.088   4.538 -11.871  0.00  0.00    -0.311 N 
ATOM     32  C   UNL     1      -1.745   4.607 -11.786  0.00  0.00    +0.231 C 
ATOM     33  O   UNL     1      -1.192   5.686 -11.773  0.00  0.00    -0.274 OA
ATOM     34  H   UNL     1      -3.526   3.677 -11.956  0.00  0.00    +0.149 HD
BRANCH  31  35
ATOM     35  C   UNL     1      -3.888   5.766 -11.835  0.00  0.00    +0.070 C 
ATOM     36  C   UNL     1      -4.061   6.220 -10.384  0.00  0.00    +0.028 C 
BRANCH  35  38
ATOM     37  C   UNL     1      -5.095   5.132 -13.929  0.00  0.00    +0.005 C 
ATOM     38  C   UNL     1      -5.262   5.497 -12.453  0.00  0.00    +0.018 C 
ENDBRANCH  35  38
ENDBRANCH  31  35
ENDBRANCH  30  32
ENDBRANCH   1  30
TORSDOF 7
