REMARK  Name = ZINC39425157
REMARK  14 active torsions:
REMARK  status: ('A' for Active; 'I' for Inactive)
REMARK    1  A    between atoms: C_1  and  C_2
REMARK    2  A    between atoms: C_2  and  C_3
REMARK    3  A    between atoms: C_8  and  C_12
REMARK    4  A    between atoms: C_12  and  C_14
REMARK    5  A    between atoms: C_14  and  S_15
REMARK    6  A    between atoms: S_15  and  C_16
REMARK    7  A    between atoms: C_19  and  C_29
REMARK    8  A    between atoms: N_21  and  C_22
REMARK    9  A    between atoms: C_22  and  C_23
REMARK   10  A    between atoms: C_29  and  C_31
REMARK   11  A    between atoms: C_29  and  N_33
REMARK   12  A    between atoms: C_31  and  C_32
REMARK   13  A    between atoms: N_33  and  C_34
REMARK   14  A    between atoms: N_33  and  C_35
REMARK                            x       y       z     vdW  Elec       q    Type
REMARK                         _______ _______ _______ _____ _____    ______ ____
ROOT
ATOM      1  C   UNL     1      -8.189  -2.662  -6.444  0.00  0.00    +0.176 C 
ATOM      2  N   UNL     1      -7.331  -2.453  -7.385  0.00  0.00    -0.163 NA
ATOM      3  N   UNL     1      -7.933  -2.506  -8.648  0.00  0.00    -0.248 N 
ATOM      4  C   UNL     1      -9.359  -2.789  -8.412  0.00  0.00    +0.164 C 
ATOM      5  N   UNL     1      -9.462  -2.885  -6.946  0.00  0.00    -0.286 N 
ATOM      6  H   UNL     1      -7.498  -2.381  -9.506  0.00  0.00    +0.170 HD
ENDROOT
BRANCH   1   7
ATOM      7  S   UNL     1      -7.789  -2.670  -4.728  0.00  0.00    -0.081 S 
BRANCH   7   8
ATOM      8  C   UNL     1      -6.009  -2.324  -4.691  0.00  0.00    +0.156 C 
BRANCH   8   9
ATOM      9  C   UNL     1      -5.531  -2.303  -3.262  0.00  0.00    +0.172 C 
ATOM     10  O   UNL     1      -6.315  -2.501  -2.356  0.00  0.00    -0.291 OA
BRANCH   9  16
ATOM     11  C   UNL     1      -1.300  -1.608  -0.699  0.00  0.00    -0.024 A 
ATOM     12  C   UNL     1      -1.876  -1.781   0.510  0.00  0.00    +0.005 A 
ATOM     13  C   UNL     1      -3.247  -2.054   0.647  0.00  0.00    +0.001 A 
ATOM     14  C   UNL     1      -4.075  -2.161  -0.415  0.00  0.00    +0.010 A 
ATOM     15  C   UNL     1      -3.576  -1.998  -1.729  0.00  0.00    +0.006 A 
ATOM     16  C   UNL     1      -4.172  -2.052  -2.976  0.00  0.00    +0.024 C 
ATOM     17  C   UNL     1      -3.062  -1.787  -3.969  0.00  0.00    +0.152 C 
ATOM     18  N   UNL     1      -1.845  -1.590  -3.175  0.00  0.00    -0.380 N 
ATOM     19  C   UNL     1      -2.133  -1.702  -1.909  0.00  0.00    +0.046 A 
ATOM     20  H   UNL     1      -0.965  -1.401  -3.535  0.00  0.00    +0.160 HD
BRANCH  11  22
ATOM     21  C   UNL     1       0.390   0.197  -0.891  0.00  0.00    +0.009 C 
ATOM     22  C   UNL     1       0.175  -1.316  -0.808  0.00  0.00    +0.034 C 
ENDBRANCH  11  22
ENDBRANCH   9  16
ENDBRANCH   8   9
ENDBRANCH   7   8
ENDBRANCH   1   7
BRANCH   5  23
ATOM     23  C   UNL     1     -10.674  -3.160  -6.170  0.00  0.00    +0.144 C 
BRANCH  23  24
ATOM     24  C   UNL     1     -10.790  -4.643  -5.929  0.00  0.00    -0.030 A 
ATOM     25  C   UNL     1     -11.362  -5.457  -6.890  0.00  0.00    +0.005 A 
ATOM     26  C   UNL     1     -11.469  -6.817  -6.669  0.00  0.00    +0.000 A 
ATOM     27  C   UNL     1     -11.004  -7.364  -5.488  0.00  0.00    +0.000 A 
ATOM     28  C   UNL     1     -10.431  -6.551  -4.528  0.00  0.00    +0.000 A 
ATOM     29  C   UNL     1     -10.320  -5.191  -4.750  0.00  0.00    +0.005 A 
ENDBRANCH  23  24
ENDBRANCH   5  23
BRANCH   4  30
ATOM     30  C   UNL     1     -10.228  -1.648  -8.945  0.00  0.00    -0.029 C 
BRANCH  30  31
ATOM     31  N   UNL     1      -9.774  -0.376  -8.368  0.00  0.00    +0.380 N 
ATOM     32  C   UNL     1     -10.490   0.736  -9.008  0.00  0.00    -0.096 C 
ATOM     33  C   UNL     1     -10.047  -0.367  -6.925  0.00  0.00    -0.096 C 
ATOM     34  H   UNL     1      -8.783  -0.271  -8.523  0.00  0.00    -0.082 HD
ENDBRANCH  30  31
BRANCH  30  35
ATOM     35  C   UNL     1     -10.111  -1.587 -10.470  0.00  0.00    -0.015 C 
ATOM     36  C   UNL     1     -10.716  -2.853 -11.079  0.00  0.00    +0.002 C 
ENDBRANCH  30  35
ENDBRANCH   4  30
TORSDOF 10
