REMARK  Name = ZINC34945931
REMARK  12 active torsions:
REMARK  status: ('A' for Active; 'I' for Inactive)
REMARK    1  A    between atoms: C_1  and  C_2
REMARK    2  A    between atoms: C_2  and  C_3
REMARK    3  A    between atoms: C_3  and  N_4
REMARK    4  A    between atoms: N_4  and  C_5
REMARK    5  A    between atoms: C_5  and  C_6
REMARK    6  A    between atoms: C_6  and  C_7
REMARK    7  A    between atoms: N_9  and  C_10
REMARK    8  A    between atoms: N_13  and  C_16
REMARK    9  A    between atoms: C_16  and  C_17
REMARK   10  A    between atoms: C_23  and  C_25
REMARK   11  A    between atoms: C_25  and  C_26
REMARK   12  A    between atoms: C_25  and  C_32
REMARK                            x       y       z     vdW  Elec       q    Type
REMARK                         _______ _______ _______ _____ _____    ______ ____
ROOT
ATOM      1  C   UNL     1      -2.136  -3.498   1.418  0.00  0.00    +0.117 C 
ENDROOT
BRANCH   1   2
ATOM      2  N   UNL     1      -2.083  -2.370   0.485  0.00  0.00    -0.300 N 
ATOM      3  C   UNL     1      -1.564  -2.539  -0.747  0.00  0.00    +0.227 C 
ATOM      4  O   UNL     1      -1.418  -1.583  -1.480  0.00  0.00    -0.275 OA
BRANCH   2   5
ATOM      5  C   UNL     1      -2.592  -1.058   0.892  0.00  0.00    +0.107 C 
BRANCH   5   7
ATOM      6  C   UNL     1      -2.021   1.086   2.040  0.00  0.00    +0.005 C 
ATOM      7  C   UNL     1      -1.489  -0.284   1.615  0.00  0.00    +0.016 C 
ENDBRANCH   5   7
ENDBRANCH   2   5
BRANCH   3   8
ATOM      8  C   UNL     1      -1.166  -3.915  -1.215  0.00  0.00    +0.135 C 
BRANCH   8   9
ATOM      9  C   UNL     1      -1.096  -3.933  -2.720  0.00  0.00    -0.031 A 
ATOM     10  C   UNL     1      -0.161  -3.156  -3.378  0.00  0.00    +0.005 A 
ATOM     11  C   UNL     1      -0.097  -3.172  -4.759  0.00  0.00    +0.000 A 
ATOM     12  C   UNL     1      -0.967  -3.967  -5.482  0.00  0.00    +0.000 A 
ATOM     13  C   UNL     1      -1.901  -4.745  -4.824  0.00  0.00    +0.000 A 
ATOM     14  C   UNL     1      -1.962  -4.732  -3.443  0.00  0.00    +0.005 A 
ENDBRANCH   8   9
BRANCH   8  15
ATOM     15  C   UNL     1       0.184  -4.268  -0.645  0.00  0.00    -0.031 A 
ATOM     16  C   UNL     1       0.411  -5.535  -0.141  0.00  0.00    +0.005 A 
ATOM     17  C   UNL     1       1.649  -5.859   0.382  0.00  0.00    +0.000 A 
ATOM     18  C   UNL     1       2.660  -4.916   0.400  0.00  0.00    +0.000 A 
ATOM     19  C   UNL     1       2.433  -3.650  -0.104  0.00  0.00    +0.000 A 
ATOM     20  C   UNL     1       1.196  -3.327  -0.631  0.00  0.00    +0.005 A 
ENDBRANCH   8  15
ENDBRANCH   3   8
ENDBRANCH   1   2
BRANCH   1  21
ATOM     21  C   UNL     1      -3.514  -4.160   1.339  0.00  0.00    +0.114 C 
BRANCH  21  22
ATOM     22  C   UNL     1      -3.569  -5.321   2.299  0.00  0.00    +0.215 C 
ATOM     23  O   UNL     1      -2.602  -5.591   2.979  0.00  0.00    -0.276 OA
ATOM     24  N   UNL     1      -4.693  -6.058   2.401  0.00  0.00    -0.313 N 
ATOM     25  H   UNL     1      -5.466  -5.841   1.856  0.00  0.00    +0.149 HD
BRANCH  24  26
ATOM     26  C   UNL     1      -4.747  -7.186   3.334  0.00  0.00    +0.069 C 
ATOM     27  C   UNL     1      -5.138  -6.681   4.726  0.00  0.00    +0.003 C 
ATOM     28  C   UNL     1      -5.270  -7.873   5.676  0.00  0.00    -0.077 C 
ATOM     29  N   UNL     1      -6.303  -8.789   5.178  0.00  0.00    +0.382 N 
ATOM     30  C   UNL     1      -5.901  -9.332   3.875  0.00  0.00    -0.077 C 
ATOM     31  C   UNL     1      -5.793  -8.196   2.855  0.00  0.00    +0.003 C 
ATOM     32  H   UNL     1      -7.174  -8.289   5.078  0.00  0.00    -0.081 HD
BRANCH  29  33
ATOM     33  C   UNL     1      -6.481  -9.890   6.133  0.00  0.00    -0.043 C 
BRANCH  33  34
ATOM     34  C   UNL     1      -7.624 -10.764   5.685  0.00  0.00    -0.064 A 
ATOM     35  C   UNL     1      -8.911 -10.489   6.109  0.00  0.00    +0.002 A 
ATOM     36  C   UNL     1      -9.960 -11.290   5.698  0.00  0.00    +0.000 A 
ATOM     37  C   UNL     1      -9.722 -12.366   4.863  0.00  0.00    +0.000 A 
ATOM     38  C   UNL     1      -8.436 -12.640   4.439  0.00  0.00    +0.000 A 
ATOM     39  C   UNL     1      -7.387 -11.837   4.846  0.00  0.00    +0.002 A 
ENDBRANCH  33  34
ENDBRANCH  29  33
ENDBRANCH  24  26
ENDBRANCH  21  22
ENDBRANCH   1  21
TORSDOF 11
