REMARK  Name = ZINC15813827
REMARK  8 active torsions:
REMARK  status: ('A' for Active; 'I' for Inactive)
REMARK    1  A    between atoms: C_1  and  C_2
REMARK    2  A    between atoms: C_5  and  N_9
REMARK    3  A    between atoms: C_6  and  C_8
REMARK    4  A    between atoms: C_10  and  C_12
REMARK    5  A    between atoms: C_12  and  C_14
REMARK    6  A    between atoms: C_12  and  S_15
REMARK    7  A    between atoms: S_15  and  C_16
REMARK    8  A    between atoms: N_26  and  C_27
REMARK                            x       y       z     vdW  Elec       q    Type
REMARK                         _______ _______ _______ _____ _____    ______ ____
ROOT
ATOM      1  C   UNL     1       2.947   4.268   1.186  0.00  0.00    +0.177 A 
ATOM      2  N   UNL     1       4.068   4.943   1.258  0.00  0.00    -0.223 NA
ATOM      3  C   UNL     1       4.716   5.355   0.150  0.00  0.00    +0.079 A 
ATOM      4  C   UNL     1       5.912   6.076   0.227  0.00  0.00    +0.028 A 
ATOM      5  C   UNL     1       6.536   6.474  -0.922  0.00  0.00    +0.002 A 
ATOM      6  C   UNL     1       6.001   6.173  -2.168  0.00  0.00    +0.001 A 
ATOM      7  C   UNL     1       4.833   5.470  -2.275  0.00  0.00    +0.015 A 
ATOM      8  C   UNL     1       4.175   5.051  -1.120  0.00  0.00    +0.065 A 
ATOM      9  C   UNL     1       2.921   4.288  -1.175  0.00  0.00    +0.267 A 
ATOM     10  O   UNL     1       2.408   3.992  -2.239  0.00  0.00    -0.267 OA
ATOM     11  N   UNL     1       2.354   3.931   0.001  0.00  0.00    -0.253 N 
ENDROOT
BRANCH  11  12
ATOM     12  C   UNL     1       1.154   3.205   0.004  0.00  0.00    +0.087 A 
ATOM     13  C   UNL     1      -0.062   3.874   0.025  0.00  0.00    +0.032 A 
ATOM     14  C   UNL     1      -1.243   3.158   0.028  0.00  0.00    +0.040 A 
ATOM     15  C   UNL     1      -1.216   1.774   0.005  0.00  0.00    +0.126 A 
ATOM     16  C   UNL     1      -0.005   1.103  -0.010  0.00  0.00    +0.078 A 
ATOM     17  C   UNL     1       1.181   1.815  -0.013  0.00  0.00    +0.150 A 
ATOM     18  F   UNL     1       2.363   1.162  -0.033  0.00  0.00    -0.203 F 
ATOM     19  F   UNL     1      -2.373   1.076   0.003  0.00  0.00    -0.205 F 
ENDBRANCH  11  12
BRANCH   1  20
ATOM     20  S   UNL     1       2.168   3.771   2.687  0.00  0.00    -0.075 S 
BRANCH  20  21
ATOM     21  C   UNL     1       3.337   4.455   3.888  0.00  0.00    +0.137 C 
ATOM     22  C   UNL     1       3.333   5.982   3.791  0.00  0.00    +0.029 C 
BRANCH  21  24
ATOM     23  N   UNL     1       3.827   4.071   6.282  0.00  0.00    -0.284 N 
ATOM     24  C   UNL     1       2.928   4.039   5.278  0.00  0.00    +0.230 C 
ATOM     25  O   UNL     1       1.791   3.675   5.493  0.00  0.00    -0.274 OA
ATOM     26  H   UNL     1       4.755   4.285   6.096  0.00  0.00    +0.155 HD
BRANCH  23  31
ATOM     27  C   UNL     1       2.182   2.960  11.597  0.00  0.00    +0.044 C 
ATOM     28  C   UNL     1       2.619   3.255  10.185  0.00  0.00    -0.050 A 
ATOM     29  C   UNL     1       1.702   3.726   9.263  0.00  0.00    +0.005 A 
ATOM     30  C   UNL     1       2.099   3.997   7.969  0.00  0.00    +0.024 A 
ATOM     31  C   UNL     1       3.421   3.797   7.593  0.00  0.00    +0.036 A 
ATOM     32  C   UNL     1       4.338   3.319   8.520  0.00  0.00    -0.029 A 
ATOM     33  C   UNL     1       3.935   3.054   9.814  0.00  0.00    +0.008 A 
ATOM     34  C   UNL     1       5.772   3.094   8.115  0.00  0.00    +0.045 C 
ENDBRANCH  23  31
ENDBRANCH  21  24
ENDBRANCH  20  21
ENDBRANCH   1  20
TORSDOF 5
