REMARK  Name = ZINC36875937
REMARK  7 active torsions:
REMARK  status: ('A' for Active; 'I' for Inactive)
REMARK    1  A    between atoms: C_1  and  C_2
REMARK    2  A    between atoms: C_2  and  C_24
REMARK    3  A    between atoms: N_5  and  C_9
REMARK    4  A    between atoms: C_9  and  C_10
REMARK    5  A    between atoms: C_10  and  C_11
REMARK    6  A    between atoms: C_11  and  C_12
REMARK    7  A    between atoms: C_12  and  N_13
REMARK                            x       y       z     vdW  Elec       q    Type
REMARK                         _______ _______ _______ _____ _____    ______ ____
ROOT
ATOM      1  C   UNL     1      -0.019   1.526   0.010  0.00  0.00    +0.047 C 
ATOM      2  C   UNL     1       0.002  -0.004   0.002  0.00  0.00    +0.136 C 
ATOM      3  C   UNL     1      -1.403  -0.557   0.139  0.00  0.00    +0.251 C 
ATOM      4  O   UNL     1      -2.332  -0.392  -0.621  0.00  0.00    -0.272 OA
ATOM      5  N   UNL     1      -1.403  -1.272   1.282  0.00  0.00    -0.224 N 
ATOM      6  C   UNL     1      -0.206  -1.247   1.879  0.00  0.00    +0.310 C 
ATOM      7  O   UNL     1       0.040  -1.819   2.924  0.00  0.00    -0.252 OA
ATOM      8  N   UNL     1       0.695  -0.520   1.195  0.00  0.00    -0.281 N 
ATOM      9  H   UNL     1       1.621  -0.365   1.440  0.00  0.00    +0.152 HD
ENDROOT
BRANCH   2  10
ATOM     10  C   UNL     1       0.657  -0.517  -1.255  0.00  0.00    +0.003 A 
ATOM     11  C   UNL     1       1.795  -1.298  -1.172  0.00  0.00    +0.009 A 
ATOM     12  C   UNL     1       2.396  -1.769  -2.324  0.00  0.00    +0.020 A 
ATOM     13  C   UNL     1       1.859  -1.459  -3.561  0.00  0.00    +0.042 A 
ATOM     14  C   UNL     1       0.720  -0.678  -3.644  0.00  0.00    +0.040 A 
ATOM     15  C   UNL     1       0.116  -0.211  -2.491  0.00  0.00    +0.048 A 
ATOM     16 CL   UNL     1      -1.316   0.764  -2.594  0.00  0.00    -0.083 Cl
ATOM     17 CL   UNL     1       2.615  -2.050  -5.008  0.00  0.00    -0.083 Cl
ENDBRANCH   2  10
BRANCH   5  18
ATOM     18  C   UNL     1      -2.569  -1.986   1.805  0.00  0.00    +0.118 C 
BRANCH  18  19
ATOM     19  C   UNL     1      -2.585  -3.413   1.252  0.00  0.00    +0.021 C 
BRANCH  19  20
ATOM     20  C   UNL     1      -3.803  -4.159   1.798  0.00  0.00    +0.021 C 
BRANCH  20  21
ATOM     21  C   UNL     1      -3.819  -5.585   1.244  0.00  0.00    +0.117 C 
BRANCH  21  22
ATOM     22  N   UNL     1      -4.986  -6.300   1.768  0.00  0.00    -0.234 N 
ATOM     23  C   UNL     1      -4.994  -7.010   2.910  0.00  0.00    +0.254 C 
ATOM     24  O   UNL     1      -4.049  -7.158   3.660  0.00  0.00    -0.270 OA
ATOM     25  C   UNL     1      -6.344  -7.579   3.102  0.00  0.00    +0.049 A 
ATOM     26  C   UNL     1      -6.930  -8.376   4.072  0.00  0.00    +0.014 A 
ATOM     27  C   UNL     1      -8.261  -8.743   3.948  0.00  0.00    +0.001 A 
ATOM     28  C   UNL     1      -9.006  -8.321   2.864  0.00  0.00    +0.001 A 
ATOM     29  C   UNL     1      -8.434  -7.524   1.885  0.00  0.00    +0.014 A 
ATOM     30  C   UNL     1      -7.104  -7.148   1.996  0.00  0.00    +0.049 A 
ATOM     31  C   UNL     1      -6.191  -6.328   1.172  0.00  0.00    +0.254 C 
ATOM     32  O   UNL     1      -6.481  -5.773   0.132  0.00  0.00    -0.270 OA
ENDBRANCH  21  22
ENDBRANCH  20  21
ENDBRANCH  19  20
ENDBRANCH  18  19
ENDBRANCH   5  18
TORSDOF 6
