REMARK  Name = ZINC40075557
REMARK  19 active torsions:
REMARK  status: ('A' for Active; 'I' for Inactive)
REMARK    1  A    between atoms: C_1  and  C_2
REMARK    2  A    between atoms: C_5  and  C_7
REMARK    3  A    between atoms: C_7  and  C_9
REMARK    4  A    between atoms: N_13  and  C_31
REMARK    5  A    between atoms: C_14  and  C_16
REMARK    6  A    between atoms: C_18  and  C_27
REMARK    7  A    between atoms: C_19  and  O_26
REMARK    8  A    between atoms: C_20  and  C_22
REMARK    9  A    between atoms: C_22  and  C_23
REMARK   10  A    between atoms: C_22  and  C_24
REMARK   11  A    between atoms: C_22  and  C_25
REMARK   12  A    between atoms: C_27  and  C_28
REMARK   13  A    between atoms: C_27  and  C_29
REMARK   14  A    between atoms: C_27  and  C_30
REMARK   15  A    between atoms: C_31  and  C_32
REMARK   16  A    between atoms: C_32  and  O_33
REMARK   17  A    between atoms: O_33  and  C_34
REMARK   18  A    between atoms: C_34  and  C_35
REMARK   19  A    between atoms: C_35  and  O_36
REMARK                            x       y       z     vdW  Elec       q    Type
REMARK                         _______ _______ _______ _____ _____    ______ ____
ROOT
ATOM      1  C   UNL     1       4.107  -3.115   0.356  0.00  0.00    +0.079 C 
ATOM      2  C   UNL     1       5.441  -3.040   0.143  0.00  0.00    +0.249 C 
ATOM      3  C   UNL     1       5.930  -1.718   0.584  0.00  0.00    +0.288 C 
ATOM      4  O   UNL     1       7.085  -1.347   0.523  0.00  0.00    -0.266 OA
ATOM      5  N   UNL     1       4.907  -0.986   1.063  0.00  0.00    -0.281 N 
ATOM      6  C   UNL     1       3.686  -1.793   0.955  0.00  0.00    +0.145 C 
ATOM      7  O   UNL     1       6.206  -4.022  -0.389  0.00  0.00    -0.282 OA
ENDROOT
BRANCH   6   8
ATOM      8  C   UNL     1       2.688  -1.110   0.055  0.00  0.00    -0.022 A 
ATOM      9  C   UNL     1       2.595  -1.476  -1.275  0.00  0.00    +0.013 A 
ATOM     10  C   UNL     1       1.682  -0.851  -2.102  0.00  0.00    +0.000 A 
ATOM     11  C   UNL     1       0.858   0.143  -1.597  0.00  0.00    +0.124 A 
ATOM     12  C   UNL     1       0.953   0.508  -0.262  0.00  0.00    +0.000 A 
ATOM     13  C   UNL     1       1.864  -0.123   0.562  0.00  0.00    +0.013 A 
BRANCH  12  14
ATOM     14  C   UNL     1       0.059   1.589   0.290  0.00  0.00    -0.009 C 
ATOM     15  C   UNL     1       0.390   1.821   1.766  0.00  0.00    +0.015 C 
ATOM     16  C   UNL     1       0.281   2.884  -0.492  0.00  0.00    +0.015 C 
ATOM     17  C   UNL     1      -1.403   1.158   0.158  0.00  0.00    +0.015 C 
ENDBRANCH  12  14
BRANCH  10  18
ATOM     18  C   UNL     1       1.581  -1.250  -3.552  0.00  0.00    -0.009 C 
ATOM     19  C   UNL     1       2.626  -2.325  -3.859  0.00  0.00    +0.015 C 
ATOM     20  C   UNL     1       0.183  -1.803  -3.833  0.00  0.00    +0.015 C 
ATOM     21  C   UNL     1       1.834  -0.027  -4.436  0.00  0.00    +0.015 C 
ENDBRANCH  10  18
BRANCH  11  22
ATOM     22  O   UNL     1      -0.042   0.760  -2.409  0.00  0.00    -0.506 OA
ATOM     23  H   UNL     1      -0.907   0.330  -2.434  0.00  0.00    +0.292 HD
ENDBRANCH  11  22
ENDBRANCH   6   8
BRANCH   1  24
ATOM     24  C   UNL     1       3.235  -4.257   0.056  0.00  0.00    +0.230 C 
ATOM     25  O   UNL     1       3.680  -5.223  -0.539  0.00  0.00    -0.283 OA
BRANCH  24  30
ATOM     26  C   UNL     1      -1.094  -2.697   2.030  0.00  0.00    +0.086 C 
ATOM     27  C   UNL     1      -0.071  -3.560   1.336  0.00  0.00    +0.103 A 
ATOM     28  C   UNL     1      -0.297  -4.795   0.832  0.00  0.00    +0.045 A 
ATOM     29  C   UNL     1       0.910  -5.243   0.276  0.00  0.00    +0.053 A 
ATOM     30  C   UNL     1       1.830  -4.236   0.473  0.00  0.00    +0.175 A 
ATOM     31  O   UNL     1       1.206  -3.225   1.113  0.00  0.00    -0.457 OA
ENDBRANCH  24  30
ENDBRANCH   1  24
BRANCH   5  32
ATOM     32  C   UNL     1       4.997   0.376   1.593  0.00  0.00    +0.137 C 
BRANCH  32  33
ATOM     33  C   UNL     1       5.567   1.305   0.519  0.00  0.00    +0.179 C 
BRANCH  33  34
ATOM     34  O   UNL     1       4.712   1.292  -0.625  0.00  0.00    -0.376 OA
BRANCH  34  35
ATOM     35  C   UNL     1       5.104   2.204  -1.654  0.00  0.00    +0.187 C 
BRANCH  35  36
ATOM     36  C   UNL     1       4.168   2.050  -2.855  0.00  0.00    +0.184 C 
BRANCH  36  37
ATOM     37  O   UNL     1       2.847   2.446  -2.483  0.00  0.00    -0.393 OA
ATOM     38  H   UNL     1       2.212   2.433  -3.213  0.00  0.00    +0.209 HD
ENDBRANCH  36  37
ENDBRANCH  35  36
ENDBRANCH  34  35
ENDBRANCH  33  34
ENDBRANCH  32  33
ENDBRANCH   5  32
TORSDOF 12
