REMARK  Name = ZINC42443215
REMARK  3 active torsions:
REMARK  status: ('A' for Active; 'I' for Inactive)
REMARK    1  A    between atoms: C_2  and  C_9
REMARK    2  A    between atoms: C_4  and  N_8
REMARK    3  A    between atoms: C_6  and  N_7
REMARK                            x       y       z     vdW  Elec       q    Type
REMARK                         _______ _______ _______ _____ _____    ______ ____
ROOT
ATOM      1  C   UNL     1      -1.146   3.905   0.871  0.00  0.00    +0.036 A 
ATOM      2  C   UNL     1      -0.123   4.298   0.008  0.00  0.00    +0.040 A 
ATOM      3  C   UNL     1      -0.319   5.375  -0.857  0.00  0.00    +0.036 A 
ATOM      4  C   UNL     1      -1.530   6.052  -0.855  0.00  0.00    +0.027 A 
ATOM      5  C   UNL     1      -2.546   5.659   0.005  0.00  0.00    +0.045 A 
ATOM      6  C   UNL     1      -2.354   4.587   0.867  0.00  0.00    +0.027 A 
ENDROOT
BRANCH   2   7
ATOM      7  C   UNL     1       1.166   3.574   0.010  0.00  0.00    +0.247 C 
ATOM      8  O   UNL     1       1.183   2.363   0.110  0.00  0.00    -0.270 OA
ATOM      9  N   UNL     1       2.323   4.257  -0.100  0.00  0.00    -0.297 N 
ATOM     10  C   UNL     1       2.284   5.729  -0.084  0.00  0.00    +0.109 C 
ATOM     11  C   UNL     1       3.369   6.431   0.772  0.00  0.00    +0.030 C 
ATOM     12  C   UNL     1       3.572   5.801   2.115  0.00  0.00    +0.071 C 
ATOM     13  S   UNL     1       4.825   4.471   2.001  0.00  0.00    -0.159 S 
ATOM     14  C   UNL     1       4.024   3.147   1.188  0.00  0.00    +0.088 C 
ATOM     15  C   UNL     1       3.546   3.529  -0.221  0.00  0.00    +0.118 C 
ENDBRANCH   2   7
BRANCH   6  16
ATOM     16  N   UNL     1      -3.380   4.195   1.731  0.00  0.00    -0.358 N 
ATOM     17  H   UNL     1      -3.246   3.446   2.333  0.00  0.00    +0.142 HD
ATOM     18  H   UNL     1      -4.225   4.671   1.729  0.00  0.00    +0.142 HD
ENDBRANCH   6  16
BRANCH   4  19
ATOM     19  N   UNL     1      -1.726   7.131  -1.721  0.00  0.00    -0.358 N 
ATOM     20  H   UNL     1      -1.017   7.406  -2.322  0.00  0.00    +0.142 HD
ATOM     21  H   UNL     1      -2.573   7.605  -1.720  0.00  0.00    +0.142 HD
ENDBRANCH   4  19
TORSDOF 3
