REMARK  Name = ZINC39350650
REMARK  8 active torsions:
REMARK  status: ('A' for Active; 'I' for Inactive)
REMARK    1  A    between atoms: C_10  and  C_11
REMARK    2  A    between atoms: C_11  and  O_12
REMARK    3  A    between atoms: O_12  and  C_13
REMARK    4  A    between atoms: C_18  and  C_19
REMARK    5  A    between atoms: C_21  and  C_25
REMARK    6  A    between atoms: N_27  and  N_28
REMARK    7  A    between atoms: C_29  and  C_30
REMARK    8  A    between atoms: C_34  and  O_36
REMARK                            x       y       z     vdW  Elec       q    Type
REMARK                         _______ _______ _______ _____ _____    ______ ____
ROOT
ATOM      1  C   UNL     1       9.032  -1.655  -0.872  0.00  0.00    +0.095 C 
ATOM      2  C   UNL     1      10.009  -2.579  -0.957  0.00  0.00    +0.041 C 
ATOM      3  C   UNL     1       9.336  -3.863  -0.505  0.00  0.00    +0.240 C 
ATOM      4  N   UNL     1       7.960  -3.433  -0.207  0.00  0.00    -0.170 NA
ATOM      5  N   UNL     1       7.880  -2.223  -0.427  0.00  0.00    -0.153 NA
ENDROOT
BRANCH   1  11
ATOM      6  C   UNL     1       8.084   0.632  -1.201  0.00  0.00    +0.130 A 
ATOM      7  C   UNL     1       8.244   1.972  -1.513  0.00  0.00    +0.046 A 
ATOM      8  C   UNL     1       9.495   2.463  -1.837  0.00  0.00    +0.004 A 
ATOM      9  C   UNL     1      10.593   1.621  -1.852  0.00  0.00    +0.001 A 
ATOM     10  C   UNL     1      10.448   0.284  -1.543  0.00  0.00    +0.014 A 
ATOM     11  C   UNL     1       9.193  -0.220  -1.210  0.00  0.00    +0.044 A 
BRANCH   6  12
ATOM     12  O   UNL     1       6.855   0.148  -0.882  0.00  0.00    -0.487 OA
BRANCH  12  13
ATOM     13  C   UNL     1       5.753   1.051  -0.995  0.00  0.00    +0.265 C 
BRANCH  13  23
ATOM     14  C   UNL     1       0.898   2.478  -0.227  0.00  0.00    +0.001 A 
ATOM     15  C   UNL     1       2.050   3.121  -0.676  0.00  0.00    +0.001 A 
ATOM     16  C   UNL     1       3.231   2.454  -0.776  0.00  0.00    +0.009 A 
ATOM     17  C   UNL     1       3.295   1.095  -0.421  0.00  0.00    -0.011 A 
ATOM     18  C   UNL     1       2.124   0.441   0.036  0.00  0.00    -0.018 A 
ATOM     19  C   UNL     1       0.921   1.163   0.125  0.00  0.00    +0.008 A 
ATOM     20  C   UNL     1       2.188  -0.917   0.391  0.00  0.00    +0.008 A 
ATOM     21  C   UNL     1       3.370  -1.584   0.291  0.00  0.00    +0.001 A 
ATOM     22  C   UNL     1       4.521  -0.941  -0.158  0.00  0.00    +0.007 A 
ATOM     23  C   UNL     1       4.497   0.373  -0.511  0.00  0.00    -0.003 A 
ENDBRANCH  13  23
ENDBRANCH  12  13
ENDBRANCH   6  12
ENDBRANCH   1  11
BRANCH   3  24
ATOM     24  C   UNL     1       9.349  -4.888  -1.610  0.00  0.00    +0.263 C 
ATOM     25  O   UNL     1       8.393  -4.996  -2.349  0.00  0.00    -0.271 OA
ATOM     26  N   UNL     1      10.424  -5.685  -1.777  0.00  0.00    -0.205 N 
ATOM     27  H   UNL     1      11.158  -5.647  -1.144  0.00  0.00    +0.177 HD
BRANCH  26  28
ATOM     28  N   UNL     1      10.479  -6.567  -2.864  0.00  0.00    -0.188 NA
ATOM     29  C   UNL     1      11.455  -7.417  -2.960  0.00  0.00    +0.138 C 
BRANCH  29  30
ATOM     30  C   UNL     1      12.199  -7.825  -1.754  0.00  0.00    -0.002 A 
ATOM     31  C   UNL     1      11.729  -7.471  -0.487  0.00  0.00    +0.010 A 
ATOM     32  C   UNL     1      12.428  -7.854   0.639  0.00  0.00    +0.004 A 
ATOM     33  C   UNL     1      13.594  -8.589   0.518  0.00  0.00    +0.045 A 
ATOM     34  C   UNL     1      14.069  -8.945  -0.737  0.00  0.00    +0.117 A 
ATOM     35  C   UNL     1      13.372  -8.572  -1.874  0.00  0.00    +0.054 A 
BRANCH  34  36
ATOM     36  O   UNL     1      15.215  -9.667  -0.849  0.00  0.00    -0.507 OA
ATOM     37  H   UNL     1      15.079 -10.624  -0.846  0.00  0.00    +0.292 HD
ENDBRANCH  34  36
ENDBRANCH  29  30
ENDBRANCH  26  28
ENDBRANCH   3  24
TORSDOF 8
