REMARK  Name = ZINC37570689
REMARK  6 active torsions:
REMARK  status: ('A' for Active; 'I' for Inactive)
REMARK    1  A    between atoms: C_5  and  C_7
REMARK    2  A    between atoms: C_7  and  N_8
REMARK    3  A    between atoms: C_11  and  N_14
REMARK    4  A    between atoms: N_14  and  C_15
REMARK    5  A    between atoms: N_14  and  S_22
REMARK    6  A    between atoms: S_22  and  C_25
REMARK                            x       y       z     vdW  Elec       q    Type
REMARK                         _______ _______ _______ _____ _____    ______ ____
ROOT
ATOM      1  N   UNL     1       1.228  -4.686   5.035  0.00  0.00    -0.200 N 
ENDROOT
BRANCH   1   5
ATOM      2  N   UNL     1       1.097  -1.983   1.804  0.00  0.00    +0.383 N 
ATOM      3  C   UNL     1       0.006  -1.896   2.781  0.00  0.00    -0.077 C 
ATOM      4  C   UNL     1       0.429  -2.576   4.085  0.00  0.00    +0.006 C 
ATOM      5  C   UNL     1       0.750  -4.047   3.806  0.00  0.00    +0.095 C 
ATOM      6  C   UNL     1       1.838  -4.127   2.731  0.00  0.00    +0.006 C 
ATOM      7  C   UNL     1       1.363  -3.389   1.477  0.00  0.00    -0.077 C 
ATOM      8  H   UNL     1       1.929  -1.566   2.193  0.00  0.00    -0.081 HD
BRANCH   2   9
ATOM      9  C   UNL     1       0.717  -1.261   0.582  0.00  0.00    -0.040 C 
BRANCH   9  14
ATOM     10  C   UNL     1      -0.836   2.088   1.371  0.00  0.00    +0.000 A 
ATOM     11  C   UNL     1       0.281   2.898   1.460  0.00  0.00    +0.003 A 
ATOM     12  C   UNL     1       1.540   2.363   1.264  0.00  0.00    +0.038 A 
ATOM     13  C   UNL     1       1.683   1.016   0.980  0.00  0.00    +0.125 A 
ATOM     14  C   UNL     1       0.564   0.206   0.892  0.00  0.00    -0.029 A 
ATOM     15  C   UNL     1      -0.695   0.743   1.088  0.00  0.00    +0.004 A 
ATOM     16  F   UNL     1       2.913   0.491   0.788  0.00  0.00    -0.205 F 
ENDBRANCH   9  14
ENDBRANCH   2   9
ENDBRANCH   1   5
BRANCH   1  17
ATOM     17  C   UNL     1       2.321  -4.148   5.722  0.00  0.00    +0.052 A 
ATOM     18  C   UNL     1       3.602  -4.274   5.200  0.00  0.00    +0.027 A 
ATOM     19  C   UNL     1       4.679  -3.742   5.881  0.00  0.00    +0.040 A 
ATOM     20  C   UNL     1       4.483  -3.083   7.083  0.00  0.00    +0.124 A 
ATOM     21  C   UNL     1       3.207  -2.956   7.606  0.00  0.00    +0.040 A 
ATOM     22  C   UNL     1       2.126  -3.482   6.926  0.00  0.00    +0.027 A 
ATOM     23  F   UNL     1       5.538  -2.564   7.748  0.00  0.00    -0.205 F 
ENDBRANCH   1  17
BRANCH   1  24
ATOM     24  S   UNL     1       0.475  -6.044   5.609  0.00  0.00    +0.075 S 
ATOM     25  O   UNL     1       0.851  -6.170   6.974  0.00  0.00    -0.150 OA
ATOM     26  O   UNL     1      -0.882  -5.961   5.197  0.00  0.00    -0.150 OA
BRANCH  24  27
ATOM     27  C   UNL     1       1.174  -7.423   4.765  0.00  0.00    +0.109 A 
ATOM     28  C   UNL     1       0.619  -7.860   3.577  0.00  0.00    +0.030 A 
ATOM     29  C   UNL     1       1.167  -8.942   2.914  0.00  0.00    +0.022 A 
ATOM     30  C   UNL     1       2.272  -9.588   3.440  0.00  0.00    +0.041 A 
ATOM     31  C   UNL     1       2.827  -9.151   4.629  0.00  0.00    +0.022 A 
ATOM     32  C   UNL     1       2.282  -8.065   5.288  0.00  0.00    +0.030 A 
ATOM     33 CL   UNL     1       2.960 -10.948   2.608  0.00  0.00    -0.084 Cl
ENDBRANCH  24  27
ENDBRANCH   1  24
TORSDOF 6
