REMARK  Name = ZINC13126808
REMARK  3 active torsions:
REMARK  status: ('A' for Active; 'I' for Inactive)
REMARK    1  A    between atoms: C_9  and  C_12
REMARK    2  A    between atoms: C_10  and  O_11
REMARK    3  A    between atoms: C_14  and  C_18
REMARK                            x       y       z     vdW  Elec       q    Type
REMARK                         _______ _______ _______ _____ _____    ______ ____
ROOT
ATOM      1  C   UNL     1      -0.016   1.357   0.009  0.00  0.00    +0.001 A 
ATOM      2  C   UNL     1       1.168   2.091   0.002  0.00  0.00    +0.001 A 
ATOM      3  C   UNL     1       2.378   1.467  -0.013  0.00  0.00    +0.012 A 
ATOM      4  C   UNL     1       2.437   0.063  -0.021  0.00  0.00    +0.024 A 
ATOM      5  C   UNL     1       1.232  -0.684  -0.013  0.00  0.00    -0.014 A 
ATOM      6  C   UNL     1       0.002  -0.004   0.002  0.00  0.00    +0.008 A 
ATOM      7  C   UNL     1       1.284  -2.089  -0.021  0.00  0.00    +0.009 A 
ATOM      8  C   UNL     1       2.484  -2.726  -0.035  0.00  0.00    +0.014 A 
ATOM      9  C   UNL     1       3.685  -2.002  -0.042  0.00  0.00    +0.044 A 
ATOM     10  C   UNL     1       3.671  -0.614  -0.036  0.00  0.00    +0.134 A 
ENDROOT
BRANCH   9  11
ATOM     11  C   UNL     1       4.981  -2.725  -0.058  0.00  0.00    +0.097 A 
ATOM     12  C   UNL     1       5.143  -4.120  -0.071  0.00  0.00    +0.061 A 
ATOM     13  C   UNL     1       6.495  -4.382  -0.083  0.00  0.00    +0.101 A 
ATOM     14  N   UNL     1       7.142  -3.179  -0.076  0.00  0.00    -0.273 N 
ATOM     15  H   UNL     1       8.103  -3.048  -0.081  0.00  0.00    +0.189 HD
ATOM     16  N   UNL     1       6.174  -2.167  -0.066  0.00  0.00    -0.173 NA
BRANCH  13  17
ATOM     17  C   UNL     1       7.127  -5.712  -0.099  0.00  0.00    +0.152 A 
ATOM     18  C   UNL     1       8.465  -5.962  -0.104  0.00  0.00    +0.051 A 
ATOM     19  C   UNL     1       8.617  -7.362  -0.119  0.00  0.00    +0.042 A 
ATOM     20  C   UNL     1       7.378  -7.894  -0.121  0.00  0.00    +0.196 A 
ATOM     21  O   UNL     1       6.481  -6.895  -0.104  0.00  0.00    -0.461 OA
ENDBRANCH  13  17
ENDBRANCH   9  11
BRANCH  10  22
ATOM     22  O   UNL     1       4.836   0.083  -0.043  0.00  0.00    -0.505 OA
ATOM     23  H   UNL     1       5.181   0.281   0.838  0.00  0.00    +0.292 HD
ENDBRANCH  10  22
TORSDOF 3
