REMARK  Name = ZINC13816674
REMARK  5 active torsions:
REMARK  status: ('A' for Active; 'I' for Inactive)
REMARK    1  A    between atoms: C_1  and  C_2
REMARK    2  A    between atoms: C_2  and  C_3
REMARK    3  A    between atoms: C_3  and  C_4
REMARK    4  A    between atoms: C_4  and  N_5
REMARK    5  A    between atoms: C_14  and  C_21
REMARK                            x       y       z     vdW  Elec       q    Type
REMARK                         _______ _______ _______ _____ _____    ______ ____
ROOT
ATOM      1  N   UNL     1      -2.787  -2.571   0.015  0.00  0.00    -0.225 N 
ATOM      2  C   UNL     1      -3.388  -2.797   1.191  0.00  0.00    +0.240 C 
ATOM      3  O   UNL     1      -2.776  -2.580   2.215  0.00  0.00    -0.274 OA
ATOM      4  C   UNL     1      -4.798  -3.310   1.278  0.00  0.00    +0.146 C 
ATOM      5  C   UNL     1      -4.814  -4.624   2.064  0.00  0.00    +0.071 C 
ATOM      6  C   UNL     1      -4.463  -4.365   3.504  0.00  0.00    +0.057 A 
ATOM      7  C   UNL     1      -4.627  -3.112   4.079  0.00  0.00    +0.109 A 
ATOM      8  N   UNL     1      -4.305  -2.920   5.357  0.00  0.00    -0.329 N 
ATOM      9  C   UNL     1      -3.825  -3.912   6.103  0.00  0.00    +0.122 A 
ATOM     10  C   UNL     1      -3.492  -3.668   7.449  0.00  0.00    -0.009 A 
ATOM     11  C   UNL     1      -2.998  -4.683   8.211  0.00  0.00    +0.008 A 
ATOM     12  C   UNL     1      -2.829  -5.955   7.645  0.00  0.00    +0.019 A 
ATOM     13  C   UNL     1      -3.155  -6.171   6.351  0.00  0.00    +0.096 A 
ATOM     14  N   UNL     1      -3.648  -5.162   5.578  0.00  0.00    -0.269 N 
ATOM     15  C   UNL     1      -3.961  -5.404   4.288  0.00  0.00    +0.263 A 
ATOM     16  O   UNL     1      -3.805  -6.519   3.812  0.00  0.00    -0.267 OA
ATOM     17  C   UNL     1      -3.681  -2.296   8.041  0.00  0.00    +0.047 C 
ATOM     18  N   UNL     1      -5.125  -2.048   3.337  0.00  0.00    -0.312 N 
ATOM     19  C   UNL     1      -5.663  -2.282   2.018  0.00  0.00    +0.099 C 
ATOM     20  C   UNL     1      -7.086  -2.888   2.198  0.00  0.00    +0.024 C 
ATOM     21  C   UNL     1      -7.928  -1.852   2.843  0.00  0.00    +0.002 C 
ATOM     22  C   UNL     1      -7.444  -1.388   4.202  0.00  0.00    +0.002 C 
ATOM     23  C   UNL     1      -6.545  -0.204   3.986  0.00  0.00    +0.019 C 
ATOM     24  C   UNL     1      -5.064  -0.703   3.991  0.00  0.00    +0.107 C 
ATOM     25  C   UNL     1      -5.363  -3.539  -0.095  0.00  0.00    +0.238 C 
ATOM     26  O   UNL     1      -6.488  -3.978  -0.203  0.00  0.00    -0.274 OA
ATOM     27  N   UNL     1      -4.660  -3.271  -1.204  0.00  0.00    -0.239 N 
ATOM     28  C   UNL     1      -3.409  -2.790  -1.153  0.00  0.00    +0.315 C 
ATOM     29  O   UNL     1      -2.823  -2.550  -2.191  0.00  0.00    -0.252 OA
ATOM     30  H   UNL     1      -5.069  -3.427  -2.070  0.00  0.00    +0.159 HD
ATOM     31  H   UNL     1      -4.423  -2.042   5.751  0.00  0.00    +0.168 HD
ENDROOT
BRANCH   1  32
ATOM     32  C   UNL     1      -1.413  -2.063   0.004  0.00  0.00    +0.118 C 
BRANCH  32  33
ATOM     33  C   UNL     1      -1.433  -0.534   0.013  0.00  0.00    +0.019 C 
BRANCH  33  35
ATOM     34  C   UNL     1      -0.019   1.526   0.010  0.00  0.00    +0.004 C 
ATOM     35  C   UNL     1       0.002  -0.004   0.002  0.00  0.00    -0.002 C 
ENDBRANCH  33  35
ENDBRANCH  32  33
ENDBRANCH   1  32
TORSDOF 3
