REMARK  Name = ZINC04127730
REMARK  8 active torsions:
REMARK  status: ('A' for Active; 'I' for Inactive)
REMARK    1  A    between atoms: C_1  and  C_2
REMARK    2  A    between atoms: C_5  and  S_8
REMARK    3  A    between atoms: S_8  and  N_11
REMARK    4  A    between atoms: N_11  and  N_12
REMARK    5  A    between atoms: C_15  and  C_31
REMARK    6  A    between atoms: C_20  and  O_30
REMARK    7  A    between atoms: C_22  and  C_29
REMARK    8  A    between atoms: C_25  and  C_28
REMARK                            x       y       z     vdW  Elec       q    Type
REMARK                         _______ _______ _______ _____ _____    ______ ____
ROOT
ATOM      1  N   UNL     1       3.328  -0.579   1.068  0.00  0.00    -0.171 NA
ATOM      2  C   UNL     1       2.222   0.050   0.802  0.00  0.00    +0.067 C 
ATOM      3  C   UNL     1       2.142   1.554   0.929  0.00  0.00    +0.061 C 
ATOM      4  C   UNL     1       1.330   2.055  -0.274  0.00  0.00    -0.004 C 
ATOM      5  C   UNL     1      -0.070   1.459  -0.195  0.00  0.00    +0.034 C 
ATOM      6  C   UNL     1      -0.033  -0.052  -0.110  0.00  0.00    -0.061 C 
ATOM      7  C   UNL     1       1.019  -0.691   0.371  0.00  0.00    +0.006 C 
ATOM      8  C   UNL     1       1.063  -2.193   0.537  0.00  0.00    +0.093 C 
ATOM      9  C   UNL     1       0.613  -2.515   1.971  0.00  0.00    +0.043 C 
ATOM     10  C   UNL     1      -0.770  -1.853   2.178  0.00  0.00    -0.011 C 
ATOM     11  C   UNL     1      -1.772  -2.423   1.175  0.00  0.00    +0.010 C 
ATOM     12  C   UNL     1      -1.282  -2.233  -0.252  0.00  0.00    -0.025 C 
ATOM     13  C   UNL     1      -1.258  -0.770  -0.627  0.00  0.00    +0.038 C 
ATOM     14  C   UNL     1       0.100  -2.858  -0.448  0.00  0.00    +0.046 C 
ATOM     15  C   UNL     1      -2.260  -2.945  -1.189  0.00  0.00    +0.011 C 
ATOM     16  C   UNL     1      -1.257  -2.132   3.601  0.00  0.00    +0.007 C 
ATOM     17  C   UNL     1       1.241   3.582  -0.235  0.00  0.00    +0.008 C 
ENDROOT
BRANCH   1  18
ATOM     18  N   UNL     1       4.461   0.138   1.476  0.00  0.00    -0.136 N 
ATOM     19  H   UNL     1       4.420   1.103   1.560  0.00  0.00    +0.197 HD
BRANCH  18  20
ATOM     20  S   UNL     1       5.870  -0.664   1.814  0.00  0.00    +0.086 S 
ATOM     21  O   UNL     1       6.856   0.331   2.054  0.00  0.00    -0.149 OA
ATOM     22  O   UNL     1       5.549  -1.664   2.771  0.00  0.00    -0.149 OA
BRANCH  20  27
ATOM     23  C   UNL     1       7.529  -3.558  -3.213  0.00  0.00    +0.044 C 
ATOM     24  C   UNL     1       7.114  -2.835  -1.958  0.00  0.00    -0.050 A 
ATOM     25  C   UNL     1       7.552  -1.544  -1.727  0.00  0.00    +0.005 A 
ATOM     26  C   UNL     1       7.172  -0.881  -0.575  0.00  0.00    +0.029 A 
ATOM     27  C   UNL     1       6.354  -1.509   0.346  0.00  0.00    +0.110 A 
ATOM     28  C   UNL     1       5.920  -2.801   0.117  0.00  0.00    +0.029 A 
ATOM     29  C   UNL     1       6.296  -3.463  -1.037  0.00  0.00    +0.005 A 
ENDBRANCH  20  27
ENDBRANCH  18  20
ENDBRANCH   1  18
BRANCH   8  30
ATOM     30  O   UNL     1       2.392  -2.672   0.322  0.00  0.00    -0.384 OA
ATOM     31  H   UNL     1       2.489  -3.628   0.431  0.00  0.00    +0.211 HD
ENDBRANCH   8  30
TORSDOF 4
