REMARK  Name = ZINC12978707
REMARK  10 active torsions:
REMARK  status: ('A' for Active; 'I' for Inactive)
REMARK    1  A    between atoms: C_1  and  C_2
REMARK    2  A    between atoms: C_6  and  N_8
REMARK    3  A    between atoms: C_11  and  C_14
REMARK    4  A    between atoms: C_14  and  N_59
REMARK    5  A    between atoms: C_15  and  C_17
REMARK    6  A    between atoms: C_15  and  C_23
REMARK    7  A    between atoms: C_15  and  N_59
REMARK    8  A    between atoms: C_26  and  O_29
REMARK    9  A    between atoms: O_29  and  C_30
REMARK   10  A    between atoms: C_31  and  C_33
REMARK                            x       y       z     vdW  Elec       q    Type
REMARK                         _______ _______ _______ _____ _____    ______ ____
ROOT
ATOM      1  N   UNL     1       2.733   9.872  -0.895  0.00  0.00    +0.390 N 
ATOM      2  H   UNL     1       1.815   9.705  -1.323  0.00  0.00    -0.084 HD
ATOM      3  H   UNL     1       3.467   9.473  -1.492  0.00  0.00    -0.084 HD
ENDROOT
BRANCH   1   4
ATOM      4  C   UNL     1       2.777   9.222   0.429  0.00  0.00    -0.024 C 
BRANCH   4   8
ATOM      5  N   UNL     1      -0.082   5.265  -0.031  0.00  0.00    -0.219 N 
ATOM      6  C   UNL     1       1.125   5.953   0.052  0.00  0.00    +0.172 A 
ATOM      7  N   UNL     1       1.331   7.247   0.200  0.00  0.00    -0.231 NA
ATOM      8  C   UNL     1       2.552   7.742   0.260  0.00  0.00    +0.034 A 
ATOM      9  C   UNL     1       3.601   6.887   0.166  0.00  0.00    +0.070 A 
ATOM     10  S   UNL     1       2.744   5.329  -0.006  0.00  0.00    -0.060 S 
ATOM     11  C   UNL     1      -1.245   5.945  -0.066  0.00  0.00    +0.223 C 
ATOM     12  O   UNL     1      -1.238   7.157  -0.107  0.00  0.00    -0.275 OA
ATOM     13  C   UNL     1      -2.554   5.199  -0.056  0.00  0.00    +0.110 C 
BRANCH   5  19
ATOM     14  C   UNL     1      -0.881   1.115  -2.545  0.00  0.00    +0.044 C 
ATOM     15  C   UNL     1      -0.470   1.828  -1.283  0.00  0.00    -0.049 A 
ATOM     16  C   UNL     1      -0.097   1.100  -0.168  0.00  0.00    +0.003 A 
ATOM     17  C   UNL     1       0.286   1.750   0.991  0.00  0.00    +0.002 A 
ATOM     18  C   UNL     1       0.292   3.131   1.039  0.00  0.00    +0.024 A 
ATOM     19  C   UNL     1      -0.087   3.865  -0.077  0.00  0.00    +0.043 A 
ATOM     20  C   UNL     1      -0.472   3.208  -1.238  0.00  0.00    +0.027 A 
ENDBRANCH   5  19
ENDBRANCH   4   8
ENDBRANCH   1   4
BRANCH   1  21
ATOM     21  C   UNL     1       2.951  11.325  -0.759  0.00  0.00    -0.010 C 
BRANCH  21  22
ATOM     22  C   UNL     1       4.430  11.612  -0.736  0.00  0.00    -0.057 A 
ATOM     23  C   UNL     1       5.284  10.909  -1.566  0.00  0.00    +0.002 A 
ATOM     24  C   UNL     1       6.640  11.176  -1.547  0.00  0.00    +0.000 A 
ATOM     25  C   UNL     1       7.144  12.138  -0.692  0.00  0.00    +0.000 A 
ATOM     26  C   UNL     1       6.291  12.837   0.141  0.00  0.00    +0.000 A 
ATOM     27  C   UNL     1       4.934  12.573   0.120  0.00  0.00    +0.002 A 
ENDBRANCH  21  22
BRANCH  21  28
ATOM     28  C   UNL     1       2.321  12.030  -1.933  0.00  0.00    -0.057 A 
ATOM     29  C   UNL     1       2.418  11.485  -3.199  0.00  0.00    +0.006 A 
ATOM     30  C   UNL     1       1.836  12.127  -4.276  0.00  0.00    +0.046 A 
ATOM     31  C   UNL     1       1.165  13.326  -4.086  0.00  0.00    +0.120 A 
ATOM     32  C   UNL     1       1.074  13.874  -2.815  0.00  0.00    +0.046 A 
ATOM     33  C   UNL     1       1.652  13.225  -1.741  0.00  0.00    +0.006 A 
BRANCH  31  34
ATOM     34  O   UNL     1       0.597  13.963  -5.144  0.00  0.00    -0.495 OA
ATOM     35  C   UNL     1       0.731  13.340  -6.423  0.00  0.00    +0.277 C 
ENDBRANCH  31  34
ENDBRANCH  21  28
ENDBRANCH   1  21
TORSDOF 7
