REMARK  Name = ZINC59286549
REMARK  9 active torsions:
REMARK  status: ('A' for Active; 'I' for Inactive)
REMARK    1  A    between atoms: C_1  and  C_2
REMARK    2  A    between atoms: C_5  and  C_34
REMARK    3  A    between atoms: N_8  and  C_10
REMARK    4  A    between atoms: C_10  and  C_11
REMARK    5  A    between atoms: C_16  and  C_17
REMARK    6  A    between atoms: C_17  and  N_18
REMARK    7  A    between atoms: C_19  and  C_21
REMARK    8  A    between atoms: C_21  and  C_22
REMARK    9  A    between atoms: C_22  and  N_23
REMARK                            x       y       z     vdW  Elec       q    Type
REMARK                         _______ _______ _______ _____ _____    ______ ____
ROOT
ATOM      1  C   UNL     1       2.126   0.235   3.241  0.00  0.00    +0.139 C 
ENDROOT
BRANCH   1   7
ATOM      2  C   UNL     1       2.517  -2.035   2.263  0.00  0.00    -0.059 A 
ATOM      3  C   UNL     1       3.338  -2.980   1.678  0.00  0.00    +0.002 A 
ATOM      4  C   UNL     1       4.669  -2.688   1.442  0.00  0.00    +0.000 A 
ATOM      5  C   UNL     1       5.177  -1.451   1.792  0.00  0.00    +0.000 A 
ATOM      6  C   UNL     1       4.356  -0.506   2.377  0.00  0.00    +0.005 A 
ATOM      7  C   UNL     1       3.024  -0.797   2.608  0.00  0.00    -0.029 A 
BRANCH   2   8
ATOM      8  C   UNL     1       1.066  -2.353   2.520  0.00  0.00    -0.043 C 
BRANCH   8  14
ATOM      9  C   UNL     1       2.235  -5.715   5.881  0.00  0.00    +0.005 C 
ATOM     10  C   UNL     1       1.496  -4.398   5.637  0.00  0.00    -0.031 C 
ATOM     11  C   UNL     1       0.019  -4.564   6.009  0.00  0.00    +0.003 C 
ATOM     12  C   UNL     1      -0.727  -3.266   5.688  0.00  0.00    -0.031 C 
ATOM     13  C   UNL     1      -0.536  -2.927   4.208  0.00  0.00    -0.075 C 
ATOM     14  N   UNL     1       0.893  -2.755   3.922  0.00  0.00    +0.383 N 
ATOM     15  C   UNL     1       1.605  -4.016   4.160  0.00  0.00    -0.075 C 
ATOM     16  C   UNL     1      -2.217  -3.447   5.984  0.00  0.00    +0.005 C 
ATOM     17  H   UNL     1       1.272  -2.039   4.524  0.00  0.00    -0.081 HD
ENDBRANCH   8  14
ENDBRANCH   2   8
ENDBRANCH   1   7
BRANCH   1  18
ATOM     18  N   UNL     1       2.001  -0.039   4.675  0.00  0.00    -0.311 N 
ATOM     19  C   UNL     1       1.155   0.690   5.429  0.00  0.00    +0.215 C 
ATOM     20  O   UNL     1       0.498   1.574   4.921  0.00  0.00    -0.276 OA
ATOM     21  H   UNL     1       2.526  -0.746   5.081  0.00  0.00    +0.149 HD
BRANCH  19  22
ATOM     22  C   UNL     1       1.026   0.407   6.904  0.00  0.00    +0.115 C 
BRANCH  22  23
ATOM     23  C   UNL     1       0.009   1.369   7.520  0.00  0.00    +0.126 C 
BRANCH  23  24
ATOM     24  N   UNL     1      -0.117   1.094   8.954  0.00  0.00    -0.234 N 
ATOM     25  C   UNL     1      -0.991   0.222   9.488  0.00  0.00    +0.254 C 
ATOM     26  O   UNL     1      -1.789  -0.451   8.868  0.00  0.00    -0.270 OA
ATOM     27  C   UNL     1      -0.818   0.221  10.956  0.00  0.00    +0.049 A 
ATOM     28  C   UNL     1      -1.423  -0.458  12.001  0.00  0.00    +0.014 A 
ATOM     29  C   UNL     1      -1.012  -0.221  13.304  0.00  0.00    +0.001 A 
ATOM     30  C   UNL     1      -0.004   0.687  13.566  0.00  0.00    +0.001 A 
ATOM     31  C   UNL     1       0.611   1.373  12.531  0.00  0.00    +0.014 A 
ATOM     32  C   UNL     1       0.211   1.147  11.223  0.00  0.00    +0.049 A 
ATOM     33  C   UNL     1       0.630   1.676   9.909  0.00  0.00    +0.254 C 
ATOM     34  O   UNL     1       1.503   2.500   9.722  0.00  0.00    -0.270 OA
ENDBRANCH  23  24
ENDBRANCH  22  23
ENDBRANCH  19  22
ENDBRANCH   1  18
TORSDOF 7
