REMARK  Name = ZINC47155540
REMARK  4 active torsions:
REMARK  status: ('A' for Active; 'I' for Inactive)
REMARK    1  A    between atoms: C_1  and  C_2
REMARK    2  A    between atoms: C_2  and  C_4
REMARK    3  A    between atoms: C_2  and  N_14
REMARK    4  A    between atoms: N_17  and  C_18
REMARK                            x       y       z     vdW  Elec       q    Type
REMARK                         _______ _______ _______ _____ _____    ______ ____
ROOT
ATOM      1  N   UNL     1       0.709  -0.504   1.184  0.00  0.00    -0.293 N 
ATOM      2  C   UNL     1       2.053  -0.603   1.173  0.00  0.00    +0.304 C 
ATOM      3  O   UNL     1       2.677  -0.291   0.177  0.00  0.00    -0.252 OA
ATOM      4  N   UNL     1       2.706  -1.046   2.266  0.00  0.00    -0.269 N 
ATOM      5  H   UNL     1       0.211  -0.752   1.979  0.00  0.00    +0.151 HD
ATOM      6  H   UNL     1       2.217  -1.217   3.086  0.00  0.00    +0.156 HD
ENDROOT
BRANCH   4   7
ATOM      7  C   UNL     1       4.085  -1.260   2.217  0.00  0.00    +0.042 A 
ATOM      8  C   UNL     1       4.705  -1.524   1.015  0.00  0.00    +0.024 A 
ATOM      9  C   UNL     1       6.079  -1.739   0.955  0.00  0.00    +0.002 A 
ATOM     10  C   UNL     1       6.847  -1.695   2.079  0.00  0.00    +0.008 A 
ATOM     11  C   UNL     1       6.253  -1.429   3.324  0.00  0.00    -0.016 A 
ATOM     12  C   UNL     1       4.856  -1.202   3.397  0.00  0.00    +0.003 A 
ATOM     13  C   UNL     1       4.265  -0.931   4.641  0.00  0.00    +0.010 A 
ATOM     14  C   UNL     1       5.041  -0.883   5.759  0.00  0.00    +0.001 A 
ATOM     15  C   UNL     1       6.416  -1.099   5.688  0.00  0.00    +0.001 A 
ATOM     16  C   UNL     1       7.021  -1.377   4.501  0.00  0.00    +0.008 A 
ENDBRANCH   4   7
BRANCH   1  18
ATOM     17  C   UNL     1      -0.034   1.508   0.009  0.00  0.00    +0.033 C 
ATOM     18  C   UNL     1       0.000  -0.022  -0.004  0.00  0.00    +0.102 C 
BRANCH  18  19
ATOM     19  C   UNL     1      -1.409  -0.556   0.001  0.00  0.00    -0.027 A 
ATOM     20  C   UNL     1      -2.125  -0.611   1.183  0.00  0.00    +0.007 A 
ATOM     21  C   UNL     1      -3.416  -1.099   1.194  0.00  0.00    +0.024 A 
ATOM     22  C   UNL     1      -4.007  -1.540   0.011  0.00  0.00    +0.037 A 
ATOM     23  C   UNL     1      -3.278  -1.478  -1.169  0.00  0.00    -0.017 A 
ATOM     24  C   UNL     1      -1.992  -0.987  -1.178  0.00  0.00    +0.011 A 
ATOM     25  C   UNL     1      -4.179  -2.019  -2.255  0.00  0.00    +0.133 C 
ATOM     26  C   UNL     1      -5.459  -2.372  -1.528  0.00  0.00    +0.222 C 
ATOM     27  O   UNL     1      -6.462  -2.843  -2.022  0.00  0.00    -0.275 OA
ATOM     28  N   UNL     1      -5.276  -2.066  -0.233  0.00  0.00    -0.285 N 
ATOM     29  H   UNL     1      -5.949  -2.196   0.454  0.00  0.00    +0.155 HD
ENDBRANCH  18  19
ENDBRANCH   1  18
TORSDOF 3
