REMARK  Name = ZINC00754323
REMARK  4 active torsions:
REMARK  status: ('A' for Active; 'I' for Inactive)
REMARK    1  A    between atoms: C_4  and  C_7
REMARK    2  A    between atoms: C_7  and  N_8
REMARK    3  A    between atoms: C_11  and  C_22
REMARK    4  A    between atoms: C_14  and  C_16
REMARK                            x       y       z     vdW  Elec       q    Type
REMARK                         _______ _______ _______ _____ _____    ______ ____
ROOT
ATOM      1  N   UNL     1       4.123  -0.938  -1.426  0.00  0.00    -0.188 N 
ATOM      2  C   UNL     1       4.882  -0.022  -2.058  0.00  0.00    +0.243 C 
ATOM      3  O   UNL     1       5.287   0.953  -1.460  0.00  0.00    -0.273 OA
ATOM      4  C   UNL     1       5.226  -0.216  -3.514  0.00  0.00    +0.115 C 
ATOM      5  C   UNL     1       5.423  -1.708  -3.789  0.00  0.00    +0.075 C 
ATOM      6  C   UNL     1       4.289  -2.490  -3.179  0.00  0.00    +0.068 C 
ATOM      7  N   UNL     1       3.731  -2.108  -2.080  0.00  0.00    -0.181 NA
ENDROOT
BRANCH   4   8
ATOM      8  C   UNL     1       6.496   0.528  -3.835  0.00  0.00    -0.010 A 
ATOM      9  C   UNL     1       7.699   0.336  -3.270  0.00  0.00    +0.088 A 
ATOM     10  N   UNL     1       8.614   1.194  -3.818  0.00  0.00    -0.360 N 
ATOM     11  H   UNL     1       9.551   1.240  -3.572  0.00  0.00    +0.165 HD
ATOM     12  C   UNL     1       8.005   1.985  -4.766  0.00  0.00    +0.047 A 
ATOM     13  C   UNL     1       6.652   1.603  -4.818  0.00  0.00    +0.004 A 
ATOM     14  C   UNL     1       5.781   2.244  -5.702  0.00  0.00    +0.010 A 
ATOM     15  C   UNL     1       6.248   3.240  -6.512  0.00  0.00    +0.001 A 
ATOM     16  C   UNL     1       7.582   3.620  -6.464  0.00  0.00    +0.002 A 
ATOM     17  C   UNL     1       8.459   3.002  -5.599  0.00  0.00    +0.026 A 
ENDBRANCH   4   8
BRANCH   6  18
ATOM     18  C   UNL     1       3.813  -3.716  -3.847  0.00  0.00    -0.002 A 
ATOM     19  C   UNL     1       4.407  -4.142  -5.038  0.00  0.00    +0.010 A 
ATOM     20  C   UNL     1       3.960  -5.293  -5.654  0.00  0.00    +0.001 A 
ATOM     21  C   UNL     1       2.919  -6.018  -5.102  0.00  0.00    +0.000 A 
ATOM     22  C   UNL     1       2.323  -5.598  -3.926  0.00  0.00    +0.001 A 
ATOM     23  C   UNL     1       2.763  -4.453  -3.295  0.00  0.00    +0.010 A 
ENDBRANCH   6  18
BRANCH   1  24
ATOM     24  C   UNL     1       3.711  -0.707  -0.039  0.00  0.00    +0.170 C 
BRANCH  24  28
ATOM     25  C   UNL     1      -0.017   1.378   0.010  0.00  0.00    +0.000 A 
ATOM     26  C   UNL     1       1.171   2.086   0.002  0.00  0.00    +0.000 A 
ATOM     27  C   UNL     1       2.377   1.411  -0.014  0.00  0.00    +0.005 A 
ATOM     28  C   UNL     1       2.396   0.029  -0.022  0.00  0.00    -0.028 A 
ATOM     29  C   UNL     1       1.208  -0.679  -0.014  0.00  0.00    +0.005 A 
ATOM     30  C   UNL     1       0.002  -0.004   0.002  0.00  0.00    +0.000 A 
ENDBRANCH  24  28
ENDBRANCH   1  24
TORSDOF 4
