REMARK  Name = ZINC09078632
REMARK  14 active torsions:
REMARK  status: ('A' for Active; 'I' for Inactive)
REMARK    1  A    between atoms: C_1  and  C_2
REMARK    2  A    between atoms: C_2  and  C_3
REMARK    3  A    between atoms: C_3  and  C_4
REMARK    4  A    between atoms: C_4  and  N_5
REMARK    5  A    between atoms: N_5  and  C_6
REMARK    6  A    between atoms: N_5  and  S_7
REMARK    7  A    between atoms: S_7  and  C_10
REMARK    8  A    between atoms: C_13  and  C_16
REMARK    9  A    between atoms: C_16  and  N_18
REMARK   10  A    between atoms: N_20  and  C_30
REMARK   11  A    between atoms: C_30  and  C_31
REMARK   12  A    between atoms: C_31  and  O_32
REMARK   13  A    between atoms: O_32  and  C_33
REMARK   14  A    between atoms: C_33  and  C_34
REMARK                            x       y       z     vdW  Elec       q    Type
REMARK                         _______ _______ _______ _____ _____    ______ ____
ROOT
ATOM      1  C   UNL     1      -4.234   1.651   0.068  0.00  0.00    +0.269 C 
ATOM      2  O   UNL     1      -4.721   2.116   1.083  0.00  0.00    -0.268 OA
ENDROOT
BRANCH   1   3
ATOM      3  N   UNL     1      -2.914   1.452  -0.009  0.00  0.00    -0.152 NA
ATOM      4  C   UNL     1      -2.134   1.761   1.022  0.00  0.00    +0.167 A 
ATOM      5  N   UNL     1      -0.785   1.630   1.128  0.00  0.00    -0.317 N 
ATOM      6  C   UNL     1      -0.142   2.004   2.295  0.00  0.00    +0.093 A 
ATOM      7  C   UNL     1       1.231   1.940   2.593  0.00  0.00    +0.151 A 
ATOM      8  C   UNL     1       1.706   2.359   3.814  0.00  0.00    +0.078 A 
ATOM      9  C   UNL     1       0.850   2.855   4.786  0.00  0.00    +0.127 A 
ATOM     10  C   UNL     1      -0.506   2.938   4.513  0.00  0.00    +0.055 A 
ATOM     11  C   UNL     1      -0.981   2.515   3.294  0.00  0.00    +0.044 A 
ATOM     12  S   UNL     1      -2.593   2.428   2.555  0.00  0.00    -0.052 S 
ATOM     13  F   UNL     1       1.333   3.262   5.980  0.00  0.00    -0.205 F 
ATOM     14  F   UNL     1       2.093   1.461   1.669  0.00  0.00    -0.203 F 
BRANCH   5  15
ATOM     15  C   UNL     1      -0.013   1.086   0.008  0.00  0.00    +0.152 C 
BRANCH  15  16
ATOM     16  C   UNL     1      -0.620   1.567  -1.312  0.00  0.00    +0.181 C 
BRANCH  16  17
ATOM     17  O   UNL     1       0.210   1.149  -2.398  0.00  0.00    -0.378 OA
BRANCH  17  18
ATOM     18  C   UNL     1      -0.270   1.549  -3.683  0.00  0.00    +0.156 C 
ATOM     19  C   UNL     1       0.691   1.050  -4.764  0.00  0.00    +0.034 C 
ENDBRANCH  17  18
ENDBRANCH  16  17
ENDBRANCH  15  16
ENDBRANCH   5  15
ENDBRANCH   1   3
BRANCH   1  23
ATOM     20  C   UNL     1      -6.727   0.663  -3.229  0.00  0.00    +0.106 A 
ATOM     21  C   UNL     1      -7.284   1.191  -2.078  0.00  0.00    +0.029 A 
ATOM     22  C   UNL     1      -6.480   1.514  -1.004  0.00  0.00    +0.015 A 
ATOM     23  C   UNL     1      -5.103   1.307  -1.081  0.00  0.00    +0.039 A 
ATOM     24  C   UNL     1      -4.546   0.779  -2.246  0.00  0.00    +0.015 A 
ATOM     25  C   UNL     1      -5.362   0.456  -3.312  0.00  0.00    +0.029 A 
BRANCH  20  26
ATOM     26  S   UNL     1      -7.761   0.254  -4.596  0.00  0.00    +0.061 S 
ATOM     27  O   UNL     1      -7.067  -0.731  -5.350  0.00  0.00    -0.153 OA
ATOM     28  O   UNL     1      -9.062   0.033  -4.069  0.00  0.00    -0.153 OA
BRANCH  26  29
ATOM     29  N   UNL     1      -7.861   1.601  -5.554  0.00  0.00    -0.180 NA
ATOM     30  C   UNL     1      -6.889   1.807  -6.631  0.00  0.00    +0.131 C 
BRANCH  29  31
ATOM     31  C   UNL     1      -8.922   2.585  -5.326  0.00  0.00    +0.109 C 
BRANCH  31  32
ATOM     32  C   UNL     1      -8.392   3.708  -4.433  0.00  0.00    +0.017 C 
BRANCH  32  34
ATOM     33  C   UNL     1      -8.969   5.859  -3.301  0.00  0.00    +0.004 C 
ATOM     34  C   UNL     1      -9.499   4.736  -4.194  0.00  0.00    -0.002 C 
ENDBRANCH  32  34
ENDBRANCH  31  32
ENDBRANCH  29  31
ENDBRANCH  26  29
ENDBRANCH  20  26
ENDBRANCH   1  23
TORSDOF 11
