REMARK  Name = ZINC47258130
REMARK  8 active torsions:
REMARK  status: ('A' for Active; 'I' for Inactive)
REMARK    1  A    between atoms: C_1  and  C_2
REMARK    2  A    between atoms: C_2  and  C_3
REMARK    3  A    between atoms: C_2  and  C_4
REMARK    4  A    between atoms: C_2  and  N_11
REMARK    5  A    between atoms: N_11  and  C_12
REMARK    6  A    between atoms: C_12  and  C_13
REMARK    7  A    between atoms: N_15  and  C_16
REMARK    8  A    between atoms: C_17  and  C_21
REMARK                            x       y       z     vdW  Elec       q    Type
REMARK                         _______ _______ _______ _____ _____    ______ ____
ROOT
ATOM      1  C   UNL     1       2.068   0.031  -1.217  0.00  0.00    +0.016 C 
ENDROOT
BRANCH   1   2
ATOM      2  C   UNL     1       2.773  -0.455  -2.457  0.00  0.00    +0.201 C 
ATOM      3  O   UNL     1       2.186  -1.156  -3.253  0.00  0.00    -0.278 OA
ATOM      4  N   UNL     1       4.057  -0.111  -2.681  0.00  0.00    -0.281 N 
ATOM      5  H   UNL     1       4.527   0.450  -2.043  0.00  0.00    +0.155 HD
BRANCH   4   6
ATOM      6  C   UNL     1       4.706  -0.558  -3.821  0.00  0.00    +0.084 A 
ATOM      7  C   UNL     1       6.014  -0.311  -4.210  0.00  0.00    +0.065 A 
ATOM      8  C   UNL     1       6.441  -0.904  -5.457  0.00  0.00    +0.022 A 
ATOM      9  C   UNL     1       5.515  -1.634  -6.106  0.00  0.00    +0.048 A 
ATOM     10  S   UNL     1       4.091  -1.528  -5.045  0.00  0.00    -0.081 S 
BRANCH   7  11
ATOM     11  C   UNL     1       6.918   0.509  -3.398  0.00  0.00    +0.244 C 
ATOM     12  O   UNL     1       6.526   0.994  -2.353  0.00  0.00    -0.270 OA
ATOM     13  N   UNL     1       8.183   0.727  -3.809  0.00  0.00    -0.325 N 
ATOM     14  H   UNL     1       8.496   0.340  -4.642  0.00  0.00    +0.145 HD
ATOM     15  H   UNL     1       8.781   1.269  -3.272  0.00  0.00    +0.145 HD
ENDBRANCH   7  11
ENDBRANCH   4   6
ENDBRANCH   1   2
BRANCH   1  16
ATOM     16  N   UNL     1       0.690  -0.478  -1.207  0.00  0.00    +0.391 N 
ATOM     17  H   UNL     1       0.703  -1.487  -1.212  0.00  0.00    -0.084 HD
ATOM     18  H   UNL     1       0.202  -0.144  -2.024  0.00  0.00    -0.084 HD
BRANCH  16  20
ATOM     19  C   UNL     1      -0.019   1.526   0.010  0.00  0.00    -0.006 C 
ATOM     20  C   UNL     1       0.002  -0.004   0.002  0.00  0.00    -0.047 C 
ATOM     21  C   UNL     1       0.742  -0.511   1.242  0.00  0.00    -0.006 C 
BRANCH  20  22
ATOM     22  C   UNL     1      -1.412  -0.526   0.013  0.00  0.00    -0.059 A 
ATOM     23  C   UNL     1      -1.861  -1.326  -1.021  0.00  0.00    +0.003 A 
ATOM     24  C   UNL     1      -3.157  -1.805  -1.012  0.00  0.00    +0.015 A 
ATOM     25  C   UNL     1      -4.005  -1.484   0.033  0.00  0.00    +0.018 A 
ATOM     26  C   UNL     1      -3.555  -0.683   1.067  0.00  0.00    +0.015 A 
ATOM     27  C   UNL     1      -2.257  -0.209   1.060  0.00  0.00    +0.003 A 
ATOM     28 BR   UNL     1      -5.779  -2.138   0.046  0.00  0.00    -0.050 Br
ENDBRANCH  20  22
ENDBRANCH  16  20
ENDBRANCH   1  16
TORSDOF 6
