REMARK  Name = ZINC35528556
REMARK  10 active torsions:
REMARK  status: ('A' for Active; 'I' for Inactive)
REMARK    1  A    between atoms: C_1  and  C_2
REMARK    2  A    between atoms: C_2  and  C_3
REMARK    3  A    between atoms: C_2  and  C_4
REMARK    4  A    between atoms: C_4  and  N_5
REMARK    5  A    between atoms: C_17  and  C_18
REMARK    6  A    between atoms: C_18  and  C_19
REMARK    7  A    between atoms: C_19  and  C_20
REMARK    8  A    between atoms: N_22  and  C_23
REMARK    9  A    between atoms: N_26  and  C_29
REMARK   10  A    between atoms: C_29  and  C_30
REMARK                            x       y       z     vdW  Elec       q    Type
REMARK                         _______ _______ _______ _____ _____    ______ ____
ROOT
ATOM      1  C   UNL     1       0.188  -6.530   2.718  0.00  0.00    +0.103 C 
ENDROOT
BRANCH   1   2
ATOM      2  C   UNL     1       0.223  -7.976   3.141  0.00  0.00    +0.214 C 
ATOM      3  O   UNL     1      -0.812  -8.573   3.346  0.00  0.00    -0.276 OA
ATOM      4  N   UNL     1       1.405  -8.606   3.291  0.00  0.00    -0.313 N 
ATOM      5  H   UNL     1       2.234  -8.128   3.127  0.00  0.00    +0.149 HD
BRANCH   4   6
ATOM      6  C   UNL     1       1.440 -10.011   3.702  0.00  0.00    +0.069 C 
ATOM      7  C   UNL     1       1.376 -10.100   5.230  0.00  0.00    +0.003 C 
ATOM      8  C   UNL     1       1.492 -11.565   5.655  0.00  0.00    -0.077 C 
ATOM      9  N   UNL     1       2.769 -12.116   5.184  0.00  0.00    +0.382 N 
ATOM     10  C   UNL     1       2.807 -12.100   3.717  0.00  0.00    -0.077 C 
ATOM     11  C   UNL     1       2.742 -10.655   3.217  0.00  0.00    +0.003 C 
ATOM     12  H   UNL     1       3.528 -11.558   5.546  0.00  0.00    -0.081 HD
BRANCH   9  13
ATOM     13  C   UNL     1       2.911 -13.498   5.662  0.00  0.00    -0.043 C 
BRANCH  13  14
ATOM     14  C   UNL     1       4.272 -14.023   5.284  0.00  0.00    -0.064 A 
ATOM     15  C   UNL     1       4.454 -14.662   4.072  0.00  0.00    +0.002 A 
ATOM     16  C   UNL     1       5.703 -15.143   3.726  0.00  0.00    +0.000 A 
ATOM     17  C   UNL     1       6.769 -14.985   4.591  0.00  0.00    +0.000 A 
ATOM     18  C   UNL     1       6.587 -14.345   5.803  0.00  0.00    +0.000 A 
ATOM     19  C   UNL     1       5.339 -13.860   6.147  0.00  0.00    +0.002 A 
ENDBRANCH  13  14
ENDBRANCH   9  13
ENDBRANCH   4   6
ENDBRANCH   1   2
BRANCH   1  20
ATOM     20  C   UNL     1      -1.265  -6.061   2.623  0.00  0.00    +0.086 C 
BRANCH  20  33
ATOM     21  N   UNL     1      -1.416  -1.993  -0.116  0.00  0.00    -0.276 N 
ATOM     22  C   UNL     1      -1.449  -2.566  -1.339  0.00  0.00    +0.270 A 
ATOM     23  O   UNL     1      -1.493  -1.873  -2.340  0.00  0.00    -0.266 OA
ATOM     24  C   UNL     1      -1.433  -3.963  -1.449  0.00  0.00    +0.101 A 
ATOM     25  C   UNL     1      -1.383  -4.788  -0.324  0.00  0.00    +0.071 A 
ATOM     26  C   UNL     1      -1.373  -6.147  -0.628  0.00  0.00    +0.034 A 
ATOM     27  C   UNL     1      -1.411  -6.546  -1.917  0.00  0.00    +0.048 A 
ATOM     28  S   UNL     1      -1.462  -5.114  -2.796  0.00  0.00    -0.090 S 
ATOM     29  N   UNL     1      -1.350  -4.146   0.922  0.00  0.00    -0.264 N 
ATOM     30  C   UNL     1      -1.361  -2.787   1.014  0.00  0.00    +0.239 A 
ATOM     31  N   UNL     1      -1.316  -2.494   2.295  0.00  0.00    -0.110 NA
ATOM     32  N   UNL     1      -1.274  -3.575   2.989  0.00  0.00    -0.132 NA
ATOM     33  C   UNL     1      -1.300  -4.615   2.201  0.00  0.00    +0.140 A 
BRANCH  21  34
ATOM     34  C   UNL     1      -1.433  -0.534   0.013  0.00  0.00    +0.131 C 
BRANCH  34  36
ATOM     35  C   UNL     1      -0.019   1.526   0.010  0.00  0.00    +0.009 C 
ATOM     36  C   UNL     1       0.002  -0.004   0.002  0.00  0.00    +0.003 C 
ATOM     37  C   UNL     1       0.742  -0.511   1.242  0.00  0.00    +0.009 C 
ENDBRANCH  34  36
ENDBRANCH  21  34
ENDBRANCH  20  33
ENDBRANCH   1  20
TORSDOF 8
