REMARK  Name = ZINC06830113
REMARK  8 active torsions:
REMARK  status: ('A' for Active; 'I' for Inactive)
REMARK    1  A    between atoms: C_1  and  C_2
REMARK    2  A    between atoms: C_2  and  C_3
REMARK    3  A    between atoms: N_9  and  S_10
REMARK    4  A    between atoms: S_10  and  C_13
REMARK    5  A    between atoms: C_16  and  N_19
REMARK    6  A    between atoms: C_20  and  C_22
REMARK    7  A    between atoms: C_23  and  C_24
REMARK    8  A    between atoms: C_27  and  C_30
REMARK                            x       y       z     vdW  Elec       q    Type
REMARK                         _______ _______ _______ _____ _____    ______ ____
ROOT
ATOM      1  C   UNL     1      -3.365   0.325  -1.304  0.00  0.00    +0.106 A 
ATOM      2  C   UNL     1      -3.564  -0.544  -0.247  0.00  0.00    +0.030 A 
ATOM      3  C   UNL     1      -4.824  -0.694   0.298  0.00  0.00    +0.025 A 
ATOM      4  C   UNL     1      -5.894   0.023  -0.223  0.00  0.00    +0.034 A 
ATOM      5  C   UNL     1      -5.692   0.891  -1.288  0.00  0.00    +0.025 A 
ATOM      6  C   UNL     1      -4.428   1.040  -1.825  0.00  0.00    +0.030 A 
ENDROOT
BRANCH   4   7
ATOM      7  N   UNL     1      -7.172  -0.130   0.323  0.00  0.00    -0.282 N 
ATOM      8  C   UNL     1      -7.320  -0.328   1.648  0.00  0.00    +0.241 C 
ATOM      9  O   UNL     1      -6.339  -0.457   2.357  0.00  0.00    -0.270 OA
ATOM     10  H   UNL     1      -7.953  -0.095  -0.252  0.00  0.00    +0.155 HD
BRANCH   8  11
ATOM     11  C   UNL     1      -8.660  -0.387   2.234  0.00  0.00    +0.068 C 
ATOM     12  C   UNL     1      -8.808  -0.584   3.560  0.00  0.00    +0.013 C 
BRANCH  12  13
ATOM     13  C   UNL     1     -10.155  -0.643   4.149  0.00  0.00    -0.025 A 
ATOM     14  C   UNL     1     -11.284  -0.489   3.339  0.00  0.00    +0.008 A 
ATOM     15  C   UNL     1     -12.543  -0.551   3.898  0.00  0.00    +0.004 A 
ATOM     16  C   UNL     1     -12.691  -0.754   5.259  0.00  0.00    -0.050 A 
ATOM     17  C   UNL     1     -11.578  -0.902   6.069  0.00  0.00    +0.004 A 
ATOM     18  C   UNL     1     -10.313  -0.848   5.524  0.00  0.00    +0.008 A 
ATOM     19  C   UNL     1     -14.070  -0.813   5.863  0.00  0.00    +0.044 C 
ENDBRANCH  12  13
ENDBRANCH   8  11
ENDBRANCH   4   7
BRANCH   1  20
ATOM     20  S   UNL     1      -1.755   0.518  -1.992  0.00  0.00    +0.061 S 
ATOM     21  O   UNL     1      -1.925   1.149  -3.254  0.00  0.00    -0.153 OA
ATOM     22  O   UNL     1      -1.100  -0.735  -1.849  0.00  0.00    -0.153 OA
BRANCH  20  28
ATOM     23  C   UNL     1      -1.142   3.038  -1.185  0.00  0.00    +0.080 C 
ATOM     24  C   UNL     1      -1.512   3.630   0.179  0.00  0.00    +0.021 C 
ATOM     25  C   UNL     1      -0.439   3.252   1.202  0.00  0.00    +0.003 C 
ATOM     26  C   UNL     1      -0.372   1.729   1.339  0.00  0.00    +0.017 C 
ATOM     27  C   UNL     1       0.007   1.115  -0.013  0.00  0.00    +0.110 C 
ATOM     28  N   UNL     1      -0.937   1.591  -1.033  0.00  0.00    -0.174 NA
BRANCH  23  30
ATOM     29  C   UNL     1      -2.566   4.794  -2.249  0.00  0.00    +0.005 C 
ATOM     30  C   UNL     1      -2.274   3.294  -2.182  0.00  0.00    +0.017 C 
ENDBRANCH  23  30
ENDBRANCH  20  28
ENDBRANCH   1  20
TORSDOF 6
