REMARK  Name = ZINC37640908
REMARK  5 active torsions:
REMARK  status: ('A' for Active; 'I' for Inactive)
REMARK    1  A    between atoms: C_4  and  C_7
REMARK    2  A    between atoms: C_7  and  N_8
REMARK    3  A    between atoms: N_16  and  C_19
REMARK    4  A    between atoms: C_19  and  C_20
REMARK    5  A    between atoms: N_22  and  C_23
REMARK                            x       y       z     vdW  Elec       q    Type
REMARK                         _______ _______ _______ _____ _____    ______ ____
ROOT
ATOM      1  N   UNL     1       4.147  -0.946   1.341  0.00  0.00    -0.256 N 
ATOM      2  C   UNL     1       4.920  -0.033   1.958  0.00  0.00    +0.265 A 
ATOM      3  O   UNL     1       5.245   0.990   1.383  0.00  0.00    -0.267 OA
ATOM      4  C   UNL     1       5.369  -0.289   3.343  0.00  0.00    +0.074 A 
ATOM      5  C   UNL     1       6.209   0.562   4.199  0.00  0.00    -0.023 A 
ATOM      6  C   UNL     1       6.454   0.063   5.421  0.00  0.00    -0.004 A 
ATOM      7  S   UNL     1       5.597  -1.492   5.449  0.00  0.00    -0.075 S 
ATOM      8  C   UNL     1       4.945  -1.485   3.912  0.00  0.00    +0.097 A 
ATOM      9  N   UNL     1       4.156  -2.362   3.212  0.00  0.00    -0.278 N 
ATOM     10  C   UNL     1       3.770  -2.080   1.953  0.00  0.00    +0.334 A 
ATOM     11  O   UNL     1       3.067  -2.872   1.356  0.00  0.00    -0.246 OA
ATOM     12  C   UNL     1       7.321   0.980   6.240  0.00  0.00    +0.043 C 
ATOM     13  C   UNL     1       7.949   1.945   5.210  0.00  0.00    +0.010 C 
ATOM     14  C   UNL     1       6.907   1.915   4.074  0.00  0.00    +0.037 C 
ENDROOT
BRANCH   1  15
ATOM     15  C   UNL     1       3.701  -0.693  -0.031  0.00  0.00    +0.165 C 
BRANCH  15  19
ATOM     16  C   UNL     1      -0.018   1.407   0.042  0.00  0.00    +0.000 A 
ATOM     17  C   UNL     1       1.172   2.110   0.032  0.00  0.00    +0.000 A 
ATOM     18  C   UNL     1       2.376   1.430   0.009  0.00  0.00    +0.005 A 
ATOM     19  C   UNL     1       2.389   0.048  -0.004  0.00  0.00    -0.028 A 
ATOM     20  C   UNL     1       1.199  -0.655   0.007  0.00  0.00    +0.005 A 
ATOM     21  C   UNL     1      -0.005   0.025   0.029  0.00  0.00    +0.000 A 
ENDBRANCH  15  19
ENDBRANCH   1  15
BRANCH   9  22
ATOM     22  C   UNL     1       3.727  -3.614   3.840  0.00  0.00    +0.223 C 
BRANCH  22  23
ATOM     23  C   UNL     1       2.417  -3.395   4.553  0.00  0.00    +0.237 C 
ATOM     24  O   UNL     1       1.894  -2.301   4.538  0.00  0.00    -0.274 OA
ATOM     25  N   UNL     1       1.828  -4.415   5.208  0.00  0.00    -0.284 N 
ATOM     26  H   UNL     1       2.211  -5.305   5.164  0.00  0.00    +0.155 HD
BRANCH  25  27
ATOM     27  C   UNL     1       0.663  -4.189   5.950  0.00  0.00    +0.033 A 
ATOM     28  C   UNL     1       0.445  -4.887   7.131  0.00  0.00    +0.023 A 
ATOM     29  C   UNL     1      -0.706  -4.662   7.861  0.00  0.00    +0.002 A 
ATOM     30  C   UNL     1      -1.640  -3.744   7.417  0.00  0.00    +0.000 A 
ATOM     31  C   UNL     1      -1.426  -3.049   6.241  0.00  0.00    +0.002 A 
ATOM     32  C   UNL     1      -0.274  -3.264   5.510  0.00  0.00    +0.023 A 
ENDBRANCH  25  27
ENDBRANCH  22  23
ENDBRANCH   9  22
TORSDOF 5
