REMARK  Name = ZINC08954342
REMARK  8 active torsions:
REMARK  status: ('A' for Active; 'I' for Inactive)
REMARK    1  A    between atoms: C_1  and  C_2
REMARK    2  A    between atoms: C_5  and  C_8
REMARK    3  A    between atoms: C_8  and  N_9
REMARK    4  A    between atoms: C_19  and  S_20
REMARK    5  A    between atoms: S_20  and  C_21
REMARK    6  A    between atoms: C_21  and  C_22
REMARK    7  A    between atoms: C_34  and  C_35
REMARK    8  A    between atoms: C_34  and  C_36
REMARK                            x       y       z     vdW  Elec       q    Type
REMARK                         _______ _______ _______ _____ _____    ______ ____
ROOT
ATOM      1  N   UNL     1      -5.343  -2.582  -1.658  0.00  0.00    -0.283 N 
ATOM      2  C   UNL     1      -5.267  -3.807  -2.228  0.00  0.00    +0.263 A 
ATOM      3  O   UNL     1      -6.270  -4.414  -2.556  0.00  0.00    -0.267 OA
ATOM      4  C   UNL     1      -3.929  -4.376  -2.439  0.00  0.00    +0.065 A 
ATOM      5  C   UNL     1      -3.744  -5.630  -3.019  0.00  0.00    +0.015 A 
ATOM      6  C   UNL     1      -2.477  -6.112  -3.192  0.00  0.00    +0.001 A 
ATOM      7  C   UNL     1      -1.373  -5.367  -2.796  0.00  0.00    +0.002 A 
ATOM      8  C   UNL     1      -1.525  -4.135  -2.225  0.00  0.00    +0.028 A 
ATOM      9  C   UNL     1      -2.809  -3.614  -2.035  0.00  0.00    +0.079 A 
ATOM     10  N   UNL     1      -3.004  -2.401  -1.480  0.00  0.00    -0.223 NA
ATOM     11  C   UNL     1      -4.207  -1.915  -1.298  0.00  0.00    +0.173 A 
ENDROOT
BRANCH   1  12
ATOM     12  C   UNL     1      -6.652  -1.968  -1.425  0.00  0.00    +0.162 C 
BRANCH  12  17
ATOM     13  C   UNL     1      -8.168   1.151  -6.048  0.00  0.00    +0.044 C 
ATOM     14  C   UNL     1      -7.773   0.338  -4.842  0.00  0.00    -0.050 A 
ATOM     15  C   UNL     1      -8.126  -0.996  -4.762  0.00  0.00    +0.004 A 
ATOM     16  C   UNL     1      -7.764  -1.742  -3.656  0.00  0.00    +0.005 A 
ATOM     17  C   UNL     1      -7.048  -1.154  -2.630  0.00  0.00    -0.028 A 
ATOM     18  C   UNL     1      -6.699   0.181  -2.708  0.00  0.00    +0.005 A 
ATOM     19  C   UNL     1      -7.058   0.926  -3.815  0.00  0.00    +0.004 A 
ENDBRANCH  12  17
ENDBRANCH   1  12
BRANCH  11  20
ATOM     20  S   UNL     1      -4.366  -0.323  -0.559  0.00  0.00    -0.078 S 
BRANCH  20  21
ATOM     21  C   UNL     1      -2.621   0.079  -0.298  0.00  0.00    +0.173 C 
BRANCH  21  22
ATOM     22  C   UNL     1      -2.509   1.438   0.343  0.00  0.00    +0.231 C 
ATOM     23  O   UNL     1      -3.505   2.008   0.734  0.00  0.00    -0.274 OA
ATOM     24  N   UNL     1      -1.301   2.020   0.482  0.00  0.00    -0.255 N 
ATOM     25  C   UNL     1      -1.182   3.339   0.946  0.00  0.00    +0.059 A 
ATOM     26  C   UNL     1      -2.179   4.270   0.717  0.00  0.00    +0.025 A 
ATOM     27  C   UNL     1      -2.028   5.565   1.178  0.00  0.00    +0.002 A 
ATOM     28  C   UNL     1      -0.885   5.929   1.866  0.00  0.00    +0.002 A 
ATOM     29  C   UNL     1       0.115   5.004   2.100  0.00  0.00    +0.025 A 
ATOM     30  C   UNL     1      -0.029   3.703   1.644  0.00  0.00    +0.055 A 
ATOM     31  N   UNL     1       0.966   2.748   1.879  0.00  0.00    -0.282 N 
ATOM     32  C   UNL     1       0.970   1.579   1.210  0.00  0.00    +0.241 C 
ATOM     33  O   UNL     1       1.816   0.747   1.462  0.00  0.00    -0.273 OA
ATOM     34  C   UNL     1      -0.066   1.292   0.153  0.00  0.00    +0.113 C 
ATOM     35  C   UNL     1       0.452   1.753  -1.210  0.00  0.00    +0.042 C 
ATOM     36  C   UNL     1      -0.353  -0.210   0.113  0.00  0.00    +0.042 C 
ATOM     37  H   UNL     1       1.661   2.930   2.531  0.00  0.00    +0.155 HD
ENDBRANCH  21  22
ENDBRANCH  20  21
ENDBRANCH  11  20
TORSDOF 5
