REMARK  Name = ZINC39631320
REMARK  13 active torsions:
REMARK  status: ('A' for Active; 'I' for Inactive)
REMARK    1  A    between atoms: C_1  and  C_2
REMARK    2  A    between atoms: C_2  and  C_4
REMARK    3  A    between atoms: C_2  and  N_11
REMARK    4  A    between atoms: C_4  and  C_5
REMARK    5  A    between atoms: C_5  and  C_6
REMARK    6  A    between atoms: C_6  and  C_7
REMARK    7  A    between atoms: C_7  and  C_8
REMARK    8  A    between atoms: C_7  and  C_9
REMARK    9  A    between atoms: C_7  and  O_10
REMARK   10  A    between atoms: C_12  and  C_14
REMARK   11  A    between atoms: C_25  and  C_27
REMARK   12  A    between atoms: C_32  and  O_33
REMARK   13  A    between atoms: O_33  and  C_34
REMARK                            x       y       z     vdW  Elec       q    Type
REMARK                         _______ _______ _______ _____ _____    ______ ____
ROOT
ATOM      1  C   UNL     1      -3.466  -1.166  -1.127  0.00  0.00    +0.100 C 
ATOM      2  C   UNL     1      -4.368  -0.272  -0.245  0.00  0.00    +0.121 C 
ATOM      3  N   UNL     1      -4.986   0.686  -1.192  0.00  0.00    -0.296 N 
ATOM      4  C   UNL     1      -5.285  -0.127  -2.396  0.00  0.00    +0.115 C 
ATOM      5  C   UNL     1      -4.074  -1.070  -2.537  0.00  0.00    -0.004 C 
ATOM      6  C   UNL     1      -3.058  -0.481  -3.511  0.00  0.00    -0.010 C 
ATOM      7  C   UNL     1      -3.665  -0.449  -4.916  0.00  0.00    -0.082 C 
ATOM      8  N   UNL     1      -4.031  -1.811  -5.324  0.00  0.00    +0.379 N 
ATOM      9  C   UNL     1      -5.076  -2.336  -4.436  0.00  0.00    -0.082 C 
ATOM     10  C   UNL     1      -4.529  -2.447  -3.010  0.00  0.00    -0.010 C 
ATOM     11  C   UNL     1      -5.224   1.998  -1.002  0.00  0.00    +0.250 C 
ATOM     12  O   UNL     1      -4.831   2.547   0.010  0.00  0.00    -0.270 OA
ATOM     13  H   UNL     1      -4.374  -1.796  -6.273  0.00  0.00    -0.086 HD
ATOM     14  H   UNL     1      -3.218  -2.406  -5.272  0.00  0.00    -0.086 HD
ENDROOT
BRANCH  11  15
ATOM     15  C   UNL     1      -5.959   2.770  -2.021  0.00  0.00    +0.078 A 
ATOM     16  C   UNL     1      -6.991   2.170  -2.748  0.00  0.00    +0.017 A 
ATOM     17  C   UNL     1      -7.675   2.897  -3.698  0.00  0.00    +0.001 A 
ATOM     18  C   UNL     1      -7.344   4.221  -3.938  0.00  0.00    +0.004 A 
ATOM     19  C   UNL     1      -6.327   4.826  -3.227  0.00  0.00    +0.046 A 
ATOM     20  C   UNL     1      -5.631   4.111  -2.263  0.00  0.00    +0.132 A 
BRANCH  20  21
ATOM     21  O   UNL     1      -4.635   4.706  -1.560  0.00  0.00    -0.494 OA
ATOM     22  C   UNL     1      -4.357   6.075  -1.860  0.00  0.00    +0.277 C 
ENDBRANCH  20  21
ENDBRANCH  11  15
BRANCH   1  24
ATOM     23  N   UNL     1      -1.020  -1.500  -1.272  0.00  0.00    -0.312 N 
ATOM     24  C   UNL     1      -2.052  -0.645  -1.128  0.00  0.00    +0.218 C 
ATOM     25  O   UNL     1      -1.843   0.542  -1.000  0.00  0.00    -0.275 OA
ATOM     26  H   UNL     1      -1.187  -2.450  -1.374  0.00  0.00    +0.149 HD
BRANCH  23  28
ATOM     27  C   UNL     1       0.853  -0.865   0.168  0.00  0.00    +0.028 C 
ATOM     28  C   UNL     1       0.355  -0.994  -1.273  0.00  0.00    +0.070 C 
BRANCH  28  29
ATOM     29  C   UNL     1       1.255  -1.966  -2.038  0.00  0.00    +0.022 C 
BRANCH  29  30
ATOM     30  C   UNL     1       0.835  -2.000  -3.509  0.00  0.00    +0.005 C 
BRANCH  30  31
ATOM     31  C   UNL     1       1.735  -2.972  -4.274  0.00  0.00    +0.034 C 
BRANCH  31  32
ATOM     32  C   UNL     1       1.315  -3.006  -5.745  0.00  0.00    +0.061 C 
ATOM     33  C   UNL     1       2.131  -4.068  -6.484  0.00  0.00    +0.041 C 
ATOM     34  C   UNL     1      -0.173  -3.347  -5.843  0.00  0.00    +0.041 C 
BRANCH  32  35
ATOM     35  O   UNL     1       1.550  -1.727  -6.337  0.00  0.00    -0.389 OA
ATOM     36  H   UNL     1       2.475  -1.445  -6.311  0.00  0.00    +0.210 HD
ENDBRANCH  32  35
ENDBRANCH  31  32
ENDBRANCH  30  31
ENDBRANCH  29  30
ENDBRANCH  28  29
ENDBRANCH  23  28
ENDBRANCH   1  24
TORSDOF 9
