REMARK  Name = ZINC39725629
REMARK  7 active torsions:
REMARK  status: ('A' for Active; 'I' for Inactive)
REMARK    1  A    between atoms: C_1  and  C_2
REMARK    2  A    between atoms: C_6  and  N_9
REMARK    3  A    between atoms: C_7  and  C_8
REMARK    4  A    between atoms: C_10  and  C_12
REMARK    5  A    between atoms: C_12  and  S_13
REMARK    6  A    between atoms: S_13  and  C_14
REMARK    7  A    between atoms: N_28  and  C_29
REMARK                            x       y       z     vdW  Elec       q    Type
REMARK                         _______ _______ _______ _____ _____    ______ ____
ROOT
ATOM      1  C   UNL     1      -0.490  -7.428   4.980  0.00  0.00    +0.259 C 
ATOM      2  N   UNL     1       0.758  -7.279   5.732  0.00  0.00    -0.248 NA
ATOM      3  C   UNL     1       0.773  -6.663   6.866  0.00  0.00    +0.101 C 
ATOM      4  C   UNL     1       1.817  -6.338   7.865  0.00  0.00    +0.028 A 
ATOM      5  C   UNL     1       3.176  -6.575   7.953  0.00  0.00    +0.012 A 
ATOM      6  C   UNL     1       3.885  -6.122   9.056  0.00  0.00    +0.001 A 
ATOM      7  C   UNL     1       3.237  -5.434  10.066  0.00  0.00    +0.002 A 
ATOM      8  C   UNL     1       1.880  -5.188   9.993  0.00  0.00    +0.028 A 
ATOM      9  C   UNL     1       1.144  -5.637   8.890  0.00  0.00    +0.074 A 
ATOM     10  N   UNL     1      -0.171  -5.530   8.578  0.00  0.00    -0.240 NA
ATOM     11  C   UNL     1      -0.474  -6.088   7.439  0.00  0.00    +0.152 C 
ATOM     12  C   UNL     1      -1.742  -6.229   6.693  0.00  0.00    +0.274 C 
ATOM     13  O   UNL     1      -2.774  -5.768   7.141  0.00  0.00    -0.268 OA
ATOM     14  N   UNL     1      -1.740  -6.876   5.509  0.00  0.00    -0.232 N 
ENDROOT
BRANCH  14  15
ATOM     15  C   UNL     1      -2.931  -7.019   4.788  0.00  0.00    +0.075 A 
ATOM     16  C   UNL     1      -3.256  -6.106   3.794  0.00  0.00    +0.026 A 
ATOM     17  C   UNL     1      -4.432  -6.250   3.083  0.00  0.00    +0.002 A 
ATOM     18  C   UNL     1      -5.286  -7.301   3.361  0.00  0.00    +0.003 A 
ATOM     19  C   UNL     1      -4.967  -8.213   4.350  0.00  0.00    +0.040 A 
ATOM     20  C   UNL     1      -3.788  -8.079   5.061  0.00  0.00    +0.145 A 
ATOM     21  F   UNL     1      -3.473  -8.974   6.023  0.00  0.00    -0.204 F 
ENDBRANCH  14  15
BRANCH   1  22
ATOM     22  S   UNL     1      -0.225  -6.689   3.345  0.00  0.00    -0.106 S 
BRANCH  22  23
ATOM     23  C   UNL     1      -0.107  -4.910   3.681  0.00  0.00    +0.168 C 
BRANCH  23  25
ATOM     24  N   UNL     1       0.089  -2.814   2.382  0.00  0.00    -0.285 N 
ATOM     25  C   UNL     1      -0.008  -4.159   2.378  0.00  0.00    +0.227 C 
ATOM     26  O   UNL     1      -0.016  -4.763   1.327  0.00  0.00    -0.275 OA
ATOM     27  H   UNL     1       0.179  -2.337   3.222  0.00  0.00    +0.155 HD
BRANCH  24  33
ATOM     28  C   UNL     1       1.263   1.202  -0.199  0.00  0.00    +0.044 C 
ATOM     29  C   UNL     1       0.621  -0.158  -0.104  0.00  0.00    -0.046 A 
ATOM     30  C   UNL     1       0.004  -0.710  -1.212  0.00  0.00    +0.004 A 
ATOM     31  C   UNL     1      -0.585  -1.958  -1.130  0.00  0.00    +0.002 A 
ATOM     32  C   UNL     1      -0.558  -2.658   0.061  0.00  0.00    +0.023 A 
ATOM     33  C   UNL     1       0.061  -2.107   1.175  0.00  0.00    +0.037 A 
ATOM     34  C   UNL     1       0.656  -0.856   1.087  0.00  0.00    -0.026 A 
ATOM     35  C   UNL     1       1.334  -0.257   2.292  0.00  0.00    +0.046 C 
ENDBRANCH  24  33
ENDBRANCH  23  25
ENDBRANCH  22  23
ENDBRANCH   1  22
TORSDOF 5
