REMARK  Name = ZINC63807286
REMARK  6 active torsions:
REMARK  status: ('A' for Active; 'I' for Inactive)
REMARK    1  A    between atoms: C_1  and  N_2
REMARK    2  A    between atoms: C_3  and  C_29
REMARK    3  A    between atoms: C_5  and  C_15
REMARK    4  A    between atoms: N_17  and  C_18
REMARK    5  A    between atoms: C_18  and  C_19
REMARK    6  A    between atoms: C_19  and  C_20
REMARK                            x       y       z     vdW  Elec       q    Type
REMARK                         _______ _______ _______ _____ _____    ______ ____
ROOT
ATOM      1  C   UNL     1      -1.858   1.610   0.278  0.00  0.00    +0.133 C 
ATOM      2  N   UNL     1      -1.159   0.323   0.233  0.00  0.00    -0.292 N 
ATOM      3  C   UNL     1      -1.934  -0.914   0.167  0.00  0.00    +0.122 C 
ATOM      4  C   UNL     1      -1.286  -1.915  -0.787  0.00  0.00    +0.130 C 
ATOM      5  C   UNL     1       0.174  -2.075  -0.455  0.00  0.00    -0.021 A 
ATOM      6  C   UNL     1       0.806  -3.287  -0.631  0.00  0.00    +0.005 A 
ATOM      7  C   UNL     1       2.152  -3.414  -0.334  0.00  0.00    +0.000 A 
ATOM      8  C   UNL     1       2.872  -2.329   0.136  0.00  0.00    +0.001 A 
ATOM      9  C   UNL     1       2.249  -1.111   0.321  0.00  0.00    +0.013 A 
ATOM     10  C   UNL     1       0.892  -0.981   0.032  0.00  0.00    +0.041 A 
ATOM     11  C   UNL     1       0.187   0.299   0.248  0.00  0.00    +0.247 C 
ATOM     12  O   UNL     1       0.817   1.321   0.443  0.00  0.00    -0.270 OA
ENDROOT
BRANCH   3  13
ATOM     13  C   UNL     1      -3.326  -0.600  -0.318  0.00  0.00    -0.022 A 
ATOM     14  C   UNL     1      -3.835  -1.254  -1.425  0.00  0.00    +0.009 A 
ATOM     15  C   UNL     1      -5.112  -0.971  -1.873  0.00  0.00    +0.050 A 
ATOM     16  C   UNL     1      -5.884  -0.028  -1.213  0.00  0.00    +0.166 A 
ATOM     17  C   UNL     1      -5.372   0.631  -0.099  0.00  0.00    +0.167 A 
ATOM     18  C   UNL     1      -4.094   0.337   0.348  0.00  0.00    +0.055 A 
ATOM     19  O   UNL     1      -6.316   1.500   0.367  0.00  0.00    -0.453 OA
ATOM     20  C   UNL     1      -7.254   1.663  -0.713  0.00  0.00    +0.466 C 
ATOM     21  O   UNL     1      -7.150   0.428  -1.446  0.00  0.00    -0.453 OA
ENDBRANCH   3  13
BRANCH   4  22
ATOM     22  C   UNL     1      -1.423  -1.416  -2.203  0.00  0.00    +0.223 C 
ATOM     23  O   UNL     1      -1.396  -0.226  -2.432  0.00  0.00    -0.275 OA
ATOM     24  N   UNL     1      -1.574  -2.294  -3.214  0.00  0.00    -0.314 N 
ATOM     25  H   UNL     1      -1.595  -3.246  -3.031  0.00  0.00    +0.149 HD
BRANCH  24  26
ATOM     26  C   UNL     1      -1.707  -1.810  -4.590  0.00  0.00    +0.108 C 
BRANCH  26  27
ATOM     27  C   UNL     1      -1.865  -3.001  -5.537  0.00  0.00    +0.052 C 
BRANCH  27  28
ATOM     28  C   UNL     1      -2.002  -2.503  -6.953  0.00  0.00    -0.040 C 
ATOM     29  C   UNL     1      -1.014  -2.375  -7.869  0.00  0.00    -0.001 A 
ATOM     30  C   UNL     1       0.427  -2.650  -7.822  0.00  0.00    +0.010 A 
ATOM     31  C   UNL     1       1.175  -2.416  -8.924  0.00  0.00    +0.001 A 
ATOM     32  C   UNL     1       0.610  -1.918 -10.107  0.00  0.00    +0.002 A 
ATOM     33  C   UNL     1      -0.706  -1.642 -10.226  0.00  0.00    +0.026 A 
ATOM     34  C   UNL     1      -1.586  -1.851  -9.129  0.00  0.00    +0.043 A 
ATOM     35  N   UNL     1      -2.877  -1.662  -8.998  0.00  0.00    -0.380 N 
ATOM     36  C   UNL     1      -3.271  -2.051  -7.639  0.00  0.00    +0.144 C 
ATOM     37  H   UNL     1      -3.473  -1.325  -9.685  0.00  0.00    +0.160 HD
ENDBRANCH  27  28
ENDBRANCH  26  27
ENDBRANCH  24  26
ENDBRANCH   4  22
TORSDOF 5
