REMARK  Name = ZINC23358862
REMARK  5 active torsions:
REMARK  status: ('A' for Active; 'I' for Inactive)
REMARK    1  A    between atoms: C_3  and  C_8
REMARK    2  A    between atoms: C_8  and  N_9
REMARK    3  A    between atoms: C_17  and  C_20
REMARK    4  A    between atoms: C_20  and  N_21
REMARK    5  A    between atoms: N_21  and  C_22
REMARK                            x       y       z     vdW  Elec       q    Type
REMARK                         _______ _______ _______ _____ _____    ______ ____
ROOT
ATOM      1  N   UNL     1       4.104   2.429   1.357  0.00  0.00    -0.303 N 
ATOM      2  C   UNL     1       3.684   3.570   2.010  0.00  0.00    +0.056 A 
ATOM      3  C   UNL     1       2.859   4.490   1.376  0.00  0.00    +0.076 A 
ATOM      4  C   UNL     1       2.448   5.628   2.046  0.00  0.00    +0.168 A 
ATOM      5  C   UNL     1       2.857   5.861   3.365  0.00  0.00    +0.167 A 
ATOM      6  C   UNL     1       3.675   4.958   4.007  0.00  0.00    +0.059 A 
ATOM      7  C   UNL     1       4.097   3.804   3.336  0.00  0.00    +0.003 A 
ATOM      8  C   UNL     1       4.968   2.827   3.990  0.00  0.00    +0.020 A 
ATOM      9  C   UNL     1       5.346   1.726   3.292  0.00  0.00    +0.031 A 
ATOM     10  C   UNL     1       4.899   1.535   1.969  0.00  0.00    +0.256 A 
ATOM     11  O   UNL     1       5.247   0.536   1.363  0.00  0.00    -0.267 OA
ATOM     12  O   UNL     1       2.315   7.042   3.785  0.00  0.00    -0.453 OA
ATOM     13  C   UNL     1       1.911   7.728   2.585  0.00  0.00    +0.466 C 
ATOM     14  O   UNL     1       1.652   6.664   1.651  0.00  0.00    -0.453 OA
ENDROOT
BRANCH   1  15
ATOM     15  C   UNL     1       3.672   2.186  -0.021  0.00  0.00    +0.160 C 
BRANCH  15  18
ATOM     16  C   UNL     1      -0.017   1.377   0.010  0.00  0.00    +0.003 A 
ATOM     17  C   UNL     1       1.171   2.086   0.002  0.00  0.00    +0.005 A 
ATOM     18  C   UNL     1       2.378   1.413  -0.013  0.00  0.00    -0.025 A 
ATOM     19  C   UNL     1       2.399   0.030  -0.021  0.00  0.00    +0.043 A 
ATOM     20  C   UNL     1       1.211  -0.679  -0.013  0.00  0.00    +0.124 A 
ATOM     21  C   UNL     1       0.002  -0.004   0.002  0.00  0.00    +0.038 A 
ATOM     22  F   UNL     1       1.230  -2.030  -0.022  0.00  0.00    -0.205 F 
ENDBRANCH  15  18
ENDBRANCH   1  15
BRANCH   9  23
ATOM     23  C   UNL     1       6.243   0.701   3.937  0.00  0.00    +0.122 C 
BRANCH  23  24
ATOM     24  N   UNL     1       5.424  -0.374   4.512  0.00  0.00    -0.311 NA
ATOM     25  H   UNL     1       4.747  -0.005   5.163  0.00  0.00    +0.122 HD
BRANCH  24  26
ATOM     26  C   UNL     1       6.266  -1.394   5.151  0.00  0.00    +0.040 C 
ATOM     27  C   UNL     1       6.586  -0.970   6.586  0.00  0.00    -0.060 C 
ATOM     28  N   UNL     1       6.078  -1.969   7.529  0.00  0.00    +0.381 N 
ATOM     29  C   UNL     1       6.720  -3.266   7.302  0.00  0.00    -0.078 C 
ATOM     30  C   UNL     1       6.404  -3.767   5.890  0.00  0.00    -0.014 C 
ATOM     31  C   UNL     1       5.518  -2.733   5.182  0.00  0.00    +0.001 C 
ATOM     32  C   UNL     1       4.237  -2.552   6.008  0.00  0.00    -0.014 C 
ATOM     33  C   UNL     1       4.622  -2.087   7.420  0.00  0.00    -0.078 C 
ATOM     34  H   UNL     1       6.305  -1.669   8.465  0.00  0.00    -0.082 HD
ENDBRANCH  24  26
ENDBRANCH  23  24
ENDBRANCH   9  23
TORSDOF 5
