REMARK  Name = ZINC11872885
REMARK  4 active torsions:
REMARK  status: ('A' for Active; 'I' for Inactive)
REMARK    1  A    between atoms: C_4  and  C_7
REMARK    2  A    between atoms: C_11  and  N_13
REMARK    3  A    between atoms: C_18  and  C_19
REMARK    4  A    between atoms: C_18  and  N_58
REMARK                            x       y       z     vdW  Elec       q    Type
REMARK                         _______ _______ _______ _____ _____    ______ ____
ROOT
ATOM      1  N   UNL     1       3.595   1.935  -0.022  0.00  0.00    -0.318 N 
ATOM      2  C   UNL     1       3.690   2.862  -1.158  0.00  0.00    +0.088 C 
ATOM      3  C   UNL     1       5.018   3.619  -1.085  0.00  0.00    -0.059 C 
ATOM      4  C   UNL     1       6.034   1.729   0.035  0.00  0.00    -0.059 C 
ATOM      5  C   UNL     1       4.706   0.972  -0.037  0.00  0.00    +0.088 C 
ATOM      6  N   UNL     1       6.126   2.642  -1.124  0.00  0.00    +0.385 N 
ATOM      7  H   UNL     1       6.056   2.092  -1.989  0.00  0.00    -0.081 HD
ENDROOT
BRANCH   1  12
ATOM      8  C   UNL     1       1.148  -0.670  -0.013  0.00  0.00    +0.162 A 
ATOM      9  N   UNL     1       0.002  -0.004   0.002  0.00  0.00    -0.232 NA
ATOM     10  C   UNL     1      -0.016   1.321   0.009  0.00  0.00    +0.050 A 
ATOM     11  C   UNL     1       1.181   2.010   0.002  0.00  0.00    +0.014 A 
ATOM     12  C   UNL     1       2.373   1.282  -0.014  0.00  0.00    +0.128 A 
ATOM     13  N   UNL     1       2.317  -0.045  -0.021  0.00  0.00    -0.212 NA
ATOM     14  C   UNL     1       0.919   3.498   0.012  0.00  0.00    +0.041 C 
ATOM     15  C   UNL     1      -0.551   3.645   0.463  0.00  0.00    +0.011 C 
ATOM     16  C   UNL     1      -1.169   2.300   0.019  0.00  0.00    +0.056 C 
BRANCH   8  20
ATOM     17  C   UNL     1       1.072  -4.921  -0.036  0.00  0.00    +0.000 A 
ATOM     18  C   UNL     1      -0.115  -4.211  -0.021  0.00  0.00    +0.001 A 
ATOM     19  C   UNL     1      -0.096  -2.831  -0.013  0.00  0.00    +0.011 A 
ATOM     20  C   UNL     1       1.121  -2.153  -0.021  0.00  0.00    +0.019 A 
ATOM     21  C   UNL     1       2.314  -2.874  -0.042  0.00  0.00    +0.011 A 
ATOM     22  C   UNL     1       2.283  -4.254  -0.044  0.00  0.00    +0.001 A 
ENDBRANCH   8  20
ENDBRANCH   1  12
BRANCH   6  23
ATOM     23  C   UNL     1       7.425   3.349  -1.109  0.00  0.00    -0.025 C 
BRANCH  23  24
ATOM     24  C   UNL     1       7.586   4.098  -2.407  0.00  0.00    +0.000 A 
ATOM     25  C   UNL     1       8.227   3.633  -3.491  0.00  0.00    +0.029 A 
ATOM     26  C   UNL     1       8.142   4.675  -4.518  0.00  0.00    -0.000 A 
ATOM     27  C   UNL     1       8.603   4.782  -5.831  0.00  0.00    +0.010 A 
ATOM     28  C   UNL     1       8.358   5.921  -6.545  0.00  0.00    +0.001 A 
ATOM     29  C   UNL     1       7.654   6.973  -5.975  0.00  0.00    +0.002 A 
ATOM     30  C   UNL     1       7.191   6.888  -4.680  0.00  0.00    +0.026 A 
ATOM     31  C   UNL     1       7.429   5.738  -3.935  0.00  0.00    +0.047 A 
ATOM     32  N   UNL     1       7.105   5.355  -2.652  0.00  0.00    -0.360 N 
ATOM     33  H   UNL     1       6.611   5.897  -2.018  0.00  0.00    +0.166 HD
ENDBRANCH  23  24
ENDBRANCH   6  23
TORSDOF 4
