REMARK  Name = ZINC11342941
REMARK  7 active torsions:
REMARK  status: ('A' for Active; 'I' for Inactive)
REMARK    1  A    between atoms: C_3  and  N_30
REMARK    2  A    between atoms: C_6  and  N_7
REMARK    3  A    between atoms: C_13  and  C_15
REMARK    4  A    between atoms: C_15  and  O_16
REMARK    5  A    between atoms: O_16  and  C_17
REMARK    6  A    between atoms: C_17  and  C_19
REMARK    7  A    between atoms: C_19  and  C_20
REMARK                            x       y       z     vdW  Elec       q    Type
REMARK                         _______ _______ _______ _____ _____    ______ ____
ROOT
ATOM      1  N   UNL     1       5.261  10.988   1.742  0.00  0.00    -0.327 N 
ATOM      2  C   UNL     1       6.205   9.862   1.746  0.00  0.00    +0.124 C 
ATOM      3  C   UNL     1       5.830   8.883   0.628  0.00  0.00    +0.127 C 
ATOM      4  N   UNL     1       4.416   8.511   0.788  0.00  0.00    -0.296 N 
ATOM      5  C   UNL     1       3.424   9.588   0.924  0.00  0.00    +0.127 C 
ATOM      6  C   UNL     1       3.894  10.539   2.036  0.00  0.00    +0.124 C 
ATOM      7  C   UNL     1       4.039   7.217   0.804  0.00  0.00    +0.253 C 
ATOM      8  O   UNL     1       4.870   6.341   0.686  0.00  0.00    -0.272 OA
ENDROOT
BRANCH   1  14
ATOM      9  C   UNL     1       6.823  11.815   3.387  0.00  0.00    +0.025 A 
ATOM     10  C   UNL     1       7.221  12.801   4.268  0.00  0.00    +0.034 A 
ATOM     11  C   UNL     1       6.463  13.949   4.412  0.00  0.00    +0.126 A 
ATOM     12  C   UNL     1       5.307  14.115   3.672  0.00  0.00    +0.034 A 
ATOM     13  C   UNL     1       4.906  13.135   2.786  0.00  0.00    +0.025 A 
ATOM     14  C   UNL     1       5.665  11.981   2.638  0.00  0.00    +0.030 A 
BRANCH  11  15
ATOM     15  N   UNL     1       6.891  15.001   5.361  0.00  0.00    +0.056 N 
ATOM     16  O   UNL     1       6.224  16.013   5.489  0.00  0.00    -0.126 OA
ATOM     17  O   UNL     1       7.909  14.856   6.014  0.00  0.00    -0.126 OA
ENDBRANCH  11  15
ENDBRANCH   1  14
BRANCH   7  18
ATOM     18  C   UNL     1       2.585   6.857   0.969  0.00  0.00    +0.327 C 
BRANCH  18  19
ATOM     19  O   UNL     1       2.439   5.413   0.954  0.00  0.00    -0.455 OA
BRANCH  19  20
ATOM     20  C   UNL     1       1.196   4.925   1.091  0.00  0.00    +0.308 C 
ATOM     21  O   UNL     1       0.261   5.680   1.219  0.00  0.00    -0.251 OA
BRANCH  20  22
ATOM     22  C   UNL     1       0.966   3.436   1.085  0.00  0.00    +0.124 C 
BRANCH  22  23
ATOM     23  C   UNL     1      -0.527   3.149   1.256  0.00  0.00    +0.003 C 
ATOM     24  C   UNL     1      -1.305   3.543  -0.046  0.00  0.00    +0.008 C 
ATOM     25  C   UNL     1      -1.942   2.200  -0.519  0.00  0.00    -0.010 C 
ATOM     26  C   UNL     1      -0.735   1.354  -1.026  0.00  0.00    +0.004 C 
ATOM     27  C   UNL     1       0.038   0.968   0.256  0.00  0.00    +0.004 C 
ATOM     28  C   UNL     1      -0.772   1.618   1.419  0.00  0.00    -0.007 C 
ATOM     29  C   UNL     1      -2.234   1.496   0.853  0.00  0.00    +0.007 C 
ENDBRANCH  22  23
ENDBRANCH  20  22
ENDBRANCH  19  20
ENDBRANCH  18  19
ENDBRANCH   7  18
TORSDOF 7
