REMARK  Name = ZINC59484192
REMARK  10 active torsions:
REMARK  status: ('A' for Active; 'I' for Inactive)
REMARK    1  A    between atoms: C_1  and  C_2
REMARK    2  A    between atoms: C_2  and  C_37
REMARK    3  A    between atoms: C_6  and  C_17
REMARK    4  A    between atoms: C_11  and  C_15
REMARK    5  A    between atoms: C_11  and  C_16
REMARK    6  A    between atoms: C_20  and  O_23
REMARK    7  A    between atoms: O_23  and  C_24
REMARK    8  A    between atoms: C_24  and  C_26
REMARK    9  A    between atoms: C_29  and  O_32
REMARK   10  A    between atoms: O_32  and  C_33
REMARK                            x       y       z     vdW  Elec       q    Type
REMARK                         _______ _______ _______ _____ _____    ______ ____
ROOT
ATOM      1  C   UNL     1      -0.046   1.510   0.184  0.00  0.00    +0.011 C 
ATOM      2  C   UNL     1      -0.029  -0.018   0.260  0.00  0.00    -0.023 C 
ATOM      3  C   UNL     1       0.632  -0.587  -0.998  0.00  0.00    +0.058 C 
ATOM      4  C   UNL     1       2.057  -0.103  -1.083  0.00  0.00    +0.016 C 
ATOM      5  C   UNL     1       2.774   0.151   0.032  0.00  0.00    +0.024 C 
ATOM      6  C   UNL     1       4.200   0.625  -0.068  0.00  0.00    +0.089 C 
ATOM      7  C   UNL     1       4.486   1.207  -1.427  0.00  0.00    +0.024 C 
ATOM      8  C   UNL     1       3.695   0.909  -2.480  0.00  0.00    +0.016 C 
ATOM      9  N   UNL     1       2.618   0.081  -2.317  0.00  0.00    -0.320 N 
ATOM     10  C   UNL     1       3.976   1.474  -3.849  0.00  0.00    +0.058 C 
ATOM     11  C   UNL     1       4.638   2.847  -3.714  0.00  0.00    -0.023 C 
ATOM     12  C   UNL     1       5.926   2.688  -2.899  0.00  0.00    +0.086 C 
ATOM     13  C   UNL     1       5.591   2.065  -1.571  0.00  0.00    +0.162 C 
ATOM     14  O   UNL     1       6.287   2.308  -0.605  0.00  0.00    -0.292 OA
ATOM     15  C   UNL     1       3.689   3.806  -2.993  0.00  0.00    +0.011 C 
ATOM     16  C   UNL     1       4.973   3.396  -5.102  0.00  0.00    +0.011 C 
ATOM     17  C   UNL     1       2.210  -0.015   1.309  0.00  0.00    +0.162 C 
ATOM     18  O   UNL     1       2.886   0.208   2.294  0.00  0.00    -0.292 OA
ATOM     19  C   UNL     1       0.784  -0.464   1.479  0.00  0.00    +0.086 C 
ATOM     20  C   UNL     1      -1.461  -0.544   0.376  0.00  0.00    +0.011 C 
ATOM     21  H   UNL     1       2.247  -0.380  -3.086  0.00  0.00    +0.152 HD
ENDROOT
BRANCH   6  22
ATOM     22  C   UNL     1       5.126  -0.539   0.176  0.00  0.00    -0.035 A 
ATOM     23  C   UNL     1       5.081  -1.643  -0.655  0.00  0.00    +0.008 A 
ATOM     24  C   UNL     1       5.928  -2.711  -0.434  0.00  0.00    +0.046 A 
ATOM     25  C   UNL     1       6.825  -2.676   0.624  0.00  0.00    +0.132 A 
ATOM     26  C   UNL     1       6.868  -1.567   1.457  0.00  0.00    +0.046 A 
ATOM     27  C   UNL     1       6.023  -0.499   1.228  0.00  0.00    +0.008 A 
BRANCH  25  28
ATOM     28  O   UNL     1       7.660  -3.726   0.844  0.00  0.00    -0.422 OA
BRANCH  28  29
ATOM     29  C   UNL     1       8.646  -3.947  -0.047  0.00  0.00    +0.344 C 
ATOM     30  O   UNL     1       8.834  -3.160  -0.954  0.00  0.00    -0.245 OA
BRANCH  29  31
ATOM     31  C   UNL     1       9.497  -5.145   0.078  0.00  0.00    +0.060 A 
ATOM     32  C   UNL     1       9.278  -6.055   1.117  0.00  0.00    +0.018 A 
ATOM     33  C   UNL     1      10.075  -7.172   1.229  0.00  0.00    +0.046 A 
ATOM     34  C   UNL     1      11.095  -7.396   0.312  0.00  0.00    +0.120 A 
ATOM     35  C   UNL     1      11.316  -6.494  -0.722  0.00  0.00    +0.046 A 
ATOM     36  C   UNL     1      10.521  -5.377  -0.845  0.00  0.00    +0.018 A 
BRANCH  34  37
ATOM     37  O   UNL     1      11.878  -8.499   0.427  0.00  0.00    -0.495 OA
ATOM     38  C   UNL     1      12.908  -8.668  -0.549  0.00  0.00    +0.277 C 
ENDBRANCH  34  37
ENDBRANCH  29  31
ENDBRANCH  28  29
ENDBRANCH  25  28
ENDBRANCH   6  22
TORSDOF 5
