REMARK  Name = ZINC15931470
REMARK  7 active torsions:
REMARK  status: ('A' for Active; 'I' for Inactive)
REMARK    1  A    between atoms: C_1  and  O_2
REMARK    2  A    between atoms: O_2  and  C_3
REMARK    3  A    between atoms: C_8  and  N_9
REMARK    4  A    between atoms: N_9  and  S_10
REMARK    5  A    between atoms: S_10  and  C_13
REMARK    6  A    between atoms: C_16  and  N_19
REMARK    7  A    between atoms: C_20  and  C_22
REMARK                            x       y       z     vdW  Elec       q    Type
REMARK                         _______ _______ _______ _____ _____    ______ ____
ROOT
ATOM      1  C   UNL     1      -1.724   2.232  -1.599  0.00  0.00    +0.109 A 
ATOM      2  C   UNL     1      -1.337   3.523  -1.911  0.00  0.00    +0.030 A 
ATOM      3  C   UNL     1      -1.477   3.995  -3.201  0.00  0.00    +0.025 A 
ATOM      4  C   UNL     1      -2.018   3.176  -4.184  0.00  0.00    +0.034 A 
ATOM      5  C   UNL     1      -2.410   1.882  -3.866  0.00  0.00    +0.025 A 
ATOM      6  C   UNL     1      -2.263   1.414  -2.575  0.00  0.00    +0.030 A 
ENDROOT
BRANCH   4   7
ATOM      7  N   UNL     1      -2.166   3.653  -5.490  0.00  0.00    -0.280 N 
ATOM      8  C   UNL     1      -1.250   4.495  -6.008  0.00  0.00    +0.269 C 
ATOM      9  O   UNL     1      -0.343   4.908  -5.313  0.00  0.00    -0.268 OA
ATOM     10  H   UNL     1      -2.928   3.377  -6.023  0.00  0.00    +0.155 HD
BRANCH   8  11
ATOM     11  C   UNL     1      -1.350   4.916  -7.420  0.00  0.00    +0.160 A 
ATOM     12  C   UNL     1      -0.473   5.795  -8.101  0.00  0.00    +0.063 A 
ATOM     13  C   UNL     1      -0.955   5.880  -9.363  0.00  0.00    +0.120 A 
ATOM     14  N   UNL     1      -2.059   5.104  -9.423  0.00  0.00    -0.283 N 
ATOM     15  H   UNL     1      -2.627   4.979 -10.237  0.00  0.00    +0.188 HD
ATOM     16  N   UNL     1      -2.276   4.550  -8.284  0.00  0.00    -0.168 NA
ATOM     17  I   UNL     1       1.216   6.757  -7.320  0.00  0.00    -0.040 I 
ENDBRANCH   8  11
ENDBRANCH   4   7
BRANCH   1  18
ATOM     18  S   UNL     1      -1.537   1.631   0.046  0.00  0.00    +0.072 S 
ATOM     19  O   UNL     1      -2.481   0.582   0.205  0.00  0.00    -0.150 OA
ATOM     20  O   UNL     1      -1.514   2.771   0.895  0.00  0.00    -0.150 OA
BRANCH  18  21
ATOM     21  N   UNL     1      -0.036   0.937   0.146  0.00  0.00    -0.213 N 
ATOM     22  H   UNL     1       0.049  -0.003   0.371  0.00  0.00    +0.174 HD
BRANCH  21  28
ATOM     23  C   UNL     1       2.207   1.136  -0.739  0.00  0.00    +0.142 A 
ATOM     24  C   UNL     1       3.336   1.900  -0.979  0.00  0.00    +0.047 A 
ATOM     25  C   UNL     1       3.372   3.225  -0.584  0.00  0.00    +0.004 A 
ATOM     26  C   UNL     1       2.282   3.790   0.051  0.00  0.00    +0.002 A 
ATOM     27  C   UNL     1       1.149   3.035   0.290  0.00  0.00    +0.028 A 
ATOM     28  C   UNL     1       1.108   1.705  -0.099  0.00  0.00    +0.090 A 
BRANCH  23  30
ATOM     29  C   UNL     1       3.333  -0.683  -1.780  0.00  0.00    +0.277 C 
ATOM     30  O   UNL     1       2.170  -0.167  -1.129  0.00  0.00    -0.493 OA
ENDBRANCH  23  30
ENDBRANCH  21  28
ENDBRANCH  18  21
ENDBRANCH   1  18
TORSDOF 6
