REMARK  Name = ZINC26441405
REMARK  6 active torsions:
REMARK  status: ('A' for Active; 'I' for Inactive)
REMARK    1  A    between atoms: C_1  and  C_2
REMARK    2  A    between atoms: C_2  and  C_3
REMARK    3  A    between atoms: C_2  and  C_4
REMARK    4  A    between atoms: C_13  and  C_15
REMARK    5  A    between atoms: C_21  and  C_23
REMARK    6  A    between atoms: C_23  and  N_24
REMARK                            x       y       z     vdW  Elec       q    Type
REMARK                         _______ _______ _______ _____ _____    ______ ____
ROOT
ATOM      1  C   UNL     1       2.362  -5.893  -0.652  0.00  0.00    +0.080 A 
ATOM      2  C   UNL     1       3.691  -5.686  -0.408  0.00  0.00    +0.076 A 
ATOM      3  S   UNL     1       4.334  -7.335  -0.661  0.00  0.00    -0.060 S 
ATOM      4  C   UNL     1       2.780  -8.122  -1.062  0.00  0.00    +0.165 A 
ATOM      5  N   UNL     1       1.940  -7.109  -0.968  0.00  0.00    -0.225 NA
ATOM      6  N   UNL     1       2.524  -9.450  -1.383  0.00  0.00    -0.264 N 
ATOM      7  C   UNL     1       3.534 -10.341  -1.419  0.00  0.00    +0.233 C 
ATOM      8  O   UNL     1       4.667  -9.985  -1.173  0.00  0.00    -0.274 OA
ATOM      9  H   UNL     1       1.618  -9.735  -1.580  0.00  0.00    +0.157 HD
ENDROOT
BRANCH   1  19
ATOM     10  C   UNL     1      -1.338  -0.424  -0.119  0.00  0.00    +0.222 C 
ATOM     11  O   UNL     1      -0.234   0.073  -0.046  0.00  0.00    -0.275 OA
ATOM     12  N   UNL     1      -1.469  -1.749  -0.328  0.00  0.00    -0.271 N 
ATOM     13  C   UNL     1      -2.742  -2.445  -0.536  0.00  0.00    +0.118 C 
ATOM     14  C   UNL     1      -2.367  -3.923  -0.727  0.00  0.00    +0.056 C 
ATOM     15  C   UNL     1      -0.860  -3.953  -0.607  0.00  0.00    -0.024 A 
ATOM     16  C   UNL     1      -0.409  -2.660  -0.382  0.00  0.00    +0.040 A 
ATOM     17  C   UNL     1       0.961  -2.430  -0.241  0.00  0.00    +0.024 A 
ATOM     18  C   UNL     1       1.856  -3.472  -0.328  0.00  0.00    +0.012 A 
ATOM     19  C   UNL     1       1.399  -4.768  -0.558  0.00  0.00    +0.001 A 
ATOM     20  C   UNL     1       0.032  -5.002  -0.691  0.00  0.00    +0.015 A 
BRANCH  10  22
ATOM     21  C   UNL     1      -2.260   1.605   0.970  0.00  0.00    +0.017 C 
ATOM     22  C   UNL     1      -2.564   0.441   0.024  0.00  0.00    +0.069 C 
ATOM     23  C   UNL     1      -2.964   0.990  -1.347  0.00  0.00    +0.017 C 
ENDBRANCH  10  22
ENDBRANCH   1  19
BRANCH   7  24
ATOM     24  C   UNL     1       3.256 -11.781  -1.767  0.00  0.00    +0.181 C 
BRANCH  24  25
ATOM     25  N   UNL     1       4.512 -12.543  -1.739  0.00  0.00    -0.290 NA
ATOM     26  C   UNL     1       5.420 -12.101  -2.807  0.00  0.00    +0.113 C 
ATOM     27  C   UNL     1       6.736 -12.877  -2.705  0.00  0.00    +0.175 C 
ATOM     28  O   UNL     1       6.463 -14.280  -2.771  0.00  0.00    -0.377 OA
ATOM     29  C   UNL     1       5.582 -14.744  -1.745  0.00  0.00    +0.175 C 
ATOM     30  C   UNL     1       4.255 -13.987  -1.838  0.00  0.00    +0.113 C 
ENDBRANCH  24  25
ENDBRANCH   7  24
TORSDOF 4
