REMARK  Name = ZINC39738130
REMARK  8 active torsions:
REMARK  status: ('A' for Active; 'I' for Inactive)
REMARK    1  A    between atoms: C_1  and  C_2
REMARK    2  A    between atoms: C_2  and  C_14
REMARK    3  A    between atoms: C_5  and  C_11
REMARK    4  A    between atoms: C_7  and  C_9
REMARK    5  A    between atoms: C_7  and  C_10
REMARK    6  A    between atoms: C_14  and  C_15
REMARK    7  A    between atoms: C_14  and  C_25
REMARK    8  A    between atoms: C_14  and  O_35
REMARK                            x       y       z     vdW  Elec       q    Type
REMARK                         _______ _______ _______ _____ _____    ______ ____
ROOT
ATOM      1  C   UNL     1       0.869  -0.360  -1.196  0.00  0.00    +0.145 C 
ENDROOT
BRANCH   1   2
ATOM      2  C   UNL     1       2.239   0.267  -1.192  0.00  0.00    -0.001 A 
ATOM      3  C   UNL     1       2.913   0.430  -0.020  0.00  0.00    +0.007 A 
ATOM      4  C   UNL     1       4.181   1.008   0.004  0.00  0.00    +0.001 A 
ATOM      5  C   UNL     1       4.782   1.425  -1.143  0.00  0.00    +0.008 A 
ATOM      6  C   UNL     1       4.118   1.273  -2.372  0.00  0.00    -0.018 A 
ATOM      7  C   UNL     1       2.831   0.680  -2.397  0.00  0.00    -0.012 A 
ATOM      8  C   UNL     1       2.169   0.522  -3.627  0.00  0.00    +0.009 A 
ATOM      9  C   UNL     1       2.773   0.934  -4.775  0.00  0.00    +0.001 A 
ATOM     10  C   UNL     1       4.042   1.511  -4.751  0.00  0.00    +0.001 A 
ATOM     11  C   UNL     1       4.707   1.692  -3.577  0.00  0.00    +0.008 A 
ENDBRANCH   1   2
BRANCH   1  12
ATOM     12  C   UNL     1       0.950  -1.741  -1.795  0.00  0.00    -0.001 A 
ATOM     13  C   UNL     1       1.645  -2.723  -1.159  0.00  0.00    +0.007 A 
ATOM     14  C   UNL     1       1.732  -4.005  -1.697  0.00  0.00    +0.001 A 
ATOM     15  C   UNL     1       1.123  -4.313  -2.875  0.00  0.00    +0.008 A 
ATOM     16  C   UNL     1       0.396  -3.325  -3.561  0.00  0.00    -0.018 A 
ATOM     17  C   UNL     1       0.303  -2.022  -3.010  0.00  0.00    -0.012 A 
ATOM     18  C   UNL     1      -0.429  -1.036  -3.693  0.00  0.00    +0.009 A 
ATOM     19  C   UNL     1      -1.042  -1.346  -4.868  0.00  0.00    +0.001 A 
ATOM     20  C   UNL     1      -0.957  -2.628  -5.407  0.00  0.00    +0.001 A 
ATOM     21  C   UNL     1      -0.245  -3.605  -4.780  0.00  0.00    +0.008 A 
ENDBRANCH   1  12
BRANCH   1  23
ATOM     22  C   UNL     1       0.245   0.971   0.801  0.00  0.00    +0.045 C 
ATOM     23  C   UNL     1       0.343  -0.457   0.252  0.00  0.00    +0.104 C 
ATOM     24  C   UNL     1      -1.053  -1.077   0.198  0.00  0.00    +0.039 C 
ATOM     25  C   UNL     1      -1.493  -1.503   1.599  0.00  0.00    +0.020 C 
ATOM     26  C   UNL     1      -0.488  -2.525   2.132  0.00  0.00    +0.133 C 
ATOM     27  C   UNL     1       0.908  -1.907   2.188  0.00  0.00    +0.078 C 
ATOM     28  O   UNL     1       1.251  -1.227   1.003  0.00  0.00    -0.363 OA
ATOM     29  C   UNL     1       1.007  -0.978   3.404  0.00  0.00    +0.042 C 
ATOM     30  C   UNL     1       1.920  -3.054   2.400  0.00  0.00    +0.042 C 
BRANCH  26  31
ATOM     31  C   UNL     1      -0.901  -2.960   3.516  0.00  0.00    +0.362 C 
ATOM     32  O   UNL     1      -0.722  -4.113   3.871  0.00  0.00    -0.246 OA
ATOM     33  O   UNL     1      -1.414  -2.160   4.280  0.00  0.00    -0.246 OA
ENDBRANCH  26  31
ENDBRANCH   1  23
BRANCH   1  34
ATOM     34  O   UNL     1      -0.020   0.445  -1.973  0.00  0.00    -0.376 OA
ATOM     35  H   UNL     1      -0.121   1.349  -1.645  0.00  0.00    +0.211 HD
ENDBRANCH   1  34
TORSDOF 5
