REMARK  Name = ZINC22795344
REMARK  7 active torsions:
REMARK  status: ('A' for Active; 'I' for Inactive)
REMARK    1  A    between atoms: C_4  and  C_7
REMARK    2  A    between atoms: C_7  and  N_8
REMARK    3  A    between atoms: N_11  and  C_14
REMARK    4  A    between atoms: C_14  and  C_16
REMARK    5  A    between atoms: C_14  and  C_23
REMARK    6  A    between atoms: C_24  and  O_36
REMARK    7  A    between atoms: C_29  and  C_31
REMARK                            x       y       z     vdW  Elec       q    Type
REMARK                         _______ _______ _______ _____ _____    ______ ____
ROOT
ATOM      1  C   UNL     1       5.450  -2.988   4.812  0.00  0.00    +0.132 C 
ENDROOT
BRANCH   1   2
ATOM      2  C   UNL     1       5.787  -1.775   5.642  0.00  0.00    +0.076 A 
ATOM      3  C   UNL     1       5.382  -1.459   6.877  0.00  0.00    +0.228 A 
ATOM      4  N   UNL     1       5.801  -0.296   7.476  0.00  0.00    -0.173 N 
ATOM      5  C   UNL     1       6.641   0.508   6.756  0.00  0.00    +0.200 A 
ATOM      6  S   UNL     1       6.838  -0.389   5.235  0.00  0.00    -0.047 S 
ATOM      7  N   UNL     1       6.947   1.565   7.456  0.00  0.00    -0.197 NA
ATOM      8  C   UNL     1       6.332   1.501   8.645  0.00  0.00    +0.218 A 
ATOM      9  N   UNL     1       5.627   0.392   8.705  0.00  0.00    -0.138 NA
BRANCH   8  10
ATOM     10  C   UNL     1       6.432   2.513   9.717  0.00  0.00    +0.173 A 
ATOM     11  C   UNL     1       7.153   3.664   9.663  0.00  0.00    +0.053 A 
ATOM     12  C   UNL     1       6.960   4.322  10.895  0.00  0.00    +0.042 A 
ATOM     13  C   UNL     1       6.140   3.548  11.632  0.00  0.00    +0.196 A 
ATOM     14  O   UNL     1       5.818   2.459  10.915  0.00  0.00    -0.460 OA
ENDBRANCH   8  10
BRANCH   3  15
ATOM     15  O   UNL     1       4.546  -2.297   7.547  0.00  0.00    -0.492 OA
ATOM     16  H   UNL     1       4.305  -1.989   8.431  0.00  0.00    +0.294 HD
ENDBRANCH   3  15
ENDBRANCH   1   2
BRANCH   1  20
ATOM     17  N   UNL     1       2.714  -2.307   1.663  0.00  0.00    +0.384 N 
ATOM     18  C   UNL     1       3.827  -3.234   1.422  0.00  0.00    -0.063 C 
ATOM     19  C   UNL     1       4.388  -3.717   2.762  0.00  0.00    +0.067 C 
ATOM     20  N   UNL     1       4.851  -2.560   3.541  0.00  0.00    -0.294 NA
ATOM     21  C   UNL     1       3.753  -1.611   3.769  0.00  0.00    +0.067 C 
ATOM     22  C   UNL     1       3.197  -1.145   2.421  0.00  0.00    -0.063 C 
ATOM     23  H   UNL     1       1.993  -2.776   2.191  0.00  0.00    -0.081 HD
BRANCH  17  24
ATOM     24  C   UNL     1       2.164  -1.857   0.377  0.00  0.00    -0.043 C 
BRANCH  24  28
ATOM     25  C   UNL     1       0.444  -5.184  -1.678  0.00  0.00    +0.000 A 
ATOM     26  C   UNL     1      -0.330  -4.428  -0.818  0.00  0.00    +0.000 A 
ATOM     27  C   UNL     1       0.226  -3.351  -0.153  0.00  0.00    +0.002 A 
ATOM     28  C   UNL     1       1.557  -3.031  -0.347  0.00  0.00    -0.064 A 
ATOM     29  C   UNL     1       2.332  -3.788  -1.206  0.00  0.00    +0.002 A 
ATOM     30  C   UNL     1       1.775  -4.864  -1.873  0.00  0.00    +0.000 A 
ENDBRANCH  24  28
ENDBRANCH  17  24
ENDBRANCH   1  20
BRANCH   1  31
ATOM     31  C   UNL     1       6.706  -3.773   4.537  0.00  0.00    +0.010 A 
ATOM     32  C   UNL     1       7.423  -3.547   3.377  0.00  0.00    +0.008 A 
ATOM     33  C   UNL     1       8.575  -4.267   3.124  0.00  0.00    +0.000 A 
ATOM     34  C   UNL     1       9.012  -5.215   4.032  0.00  0.00    +0.003 A 
ATOM     35  C   UNL     1       8.298  -5.443   5.192  0.00  0.00    +0.039 A 
ATOM     36  C   UNL     1       7.146  -4.718   5.449  0.00  0.00    +0.128 A 
ATOM     37  F   UNL     1       6.449  -4.936   6.585  0.00  0.00    -0.205 F 
ENDBRANCH   1  31
TORSDOF 7
