REMARK  Name = ZINC03277903
REMARK  8 active torsions:
REMARK  status: ('A' for Active; 'I' for Inactive)
REMARK    1  A    between atoms: C_1  and  C_2
REMARK    2  A    between atoms: C_2  and  C_3
REMARK    3  A    between atoms: C_2  and  C_4
REMARK    4  A    between atoms: C_9  and  N_10
REMARK    5  A    between atoms: C_11  and  C_24
REMARK    6  A    between atoms: N_13  and  C_16
REMARK    7  A    between atoms: C_16  and  N_57
REMARK    8  A    between atoms: C_20  and  O_23
REMARK                            x       y       z     vdW  Elec       q    Type
REMARK                         _______ _______ _______ _____ _____    ______ ____
ROOT
ATOM      1  N   UNL     1      -1.033  -0.697   1.792  0.00  0.00    -0.271 N 
ATOM      2  C   UNL     1      -2.030  -1.535   1.328  0.00  0.00    +0.169 A 
ATOM      3  N   UNL     1      -1.608  -2.766   1.412  0.00  0.00    -0.152 NA
ATOM      4  N   UNL     1      -0.311  -2.745   1.941  0.00  0.00    -0.257 N 
ATOM      5  C   UNL     1       0.018  -1.456   2.161  0.00  0.00    +0.181 A 
ATOM      6  S   UNL     1       1.502  -0.885   2.796  0.00  0.00    -0.011 S 
ENDROOT
BRANCH   2   7
ATOM      7  C   UNL     1      -3.352  -1.108   0.820  0.00  0.00    +0.038 A 
ATOM      8  C   UNL     1      -4.114  -0.186   1.539  0.00  0.00    +0.014 A 
ATOM      9  C   UNL     1      -5.346   0.209   1.061  0.00  0.00    +0.021 A 
ATOM     10  C   UNL     1      -5.827  -0.306  -0.131  0.00  0.00    +0.042 A 
ATOM     11  C   UNL     1      -5.077  -1.221  -0.850  0.00  0.00    +0.040 A 
ATOM     12  C   UNL     1      -3.839  -1.620  -0.384  0.00  0.00    +0.053 A 
ATOM     13 CL   UNL     1      -2.895  -2.761  -1.290  0.00  0.00    -0.083 Cl
ATOM     14 CL   UNL     1      -7.378   0.197  -0.727  0.00  0.00    -0.083 Cl
ENDBRANCH   2   7
BRANCH   1  20
ATOM     15  C   UNL     1      -0.762   1.470   0.757  0.00  0.00    -0.021 A 
ATOM     16  C   UNL     1      -0.837   2.847   0.828  0.00  0.00    +0.006 A 
ATOM     17  C   UNL     1      -1.245   3.460   1.998  0.00  0.00    +0.000 A 
ATOM     18  C   UNL     1      -1.579   2.696   3.102  0.00  0.00    +0.002 A 
ATOM     19  C   UNL     1      -1.506   1.319   3.038  0.00  0.00    +0.026 A 
ATOM     20  C   UNL     1      -1.102   0.700   1.862  0.00  0.00    +0.054 A 
BRANCH  15  22
ATOM     21  C   UNL     1       1.096   1.267  -0.872  0.00  0.00    +0.012 C 
ATOM     22  C   UNL     1      -0.319   0.802  -0.519  0.00  0.00    +0.015 C 
ATOM     23  C   UNL     1      -1.277   1.178  -1.651  0.00  0.00    +0.012 C 
ENDBRANCH  15  22
ENDBRANCH   1  20
BRANCH   4  24
ATOM     24  C   UNL     1       0.537  -3.911   2.203  0.00  0.00    +0.072 C 
BRANCH  24  30
ATOM     25  C   UNL     1       1.938  -2.988   0.458  0.00  0.00    -0.076 C 
ATOM     26  C   UNL     1       2.644  -3.313  -0.860  0.00  0.00    -0.016 C 
ATOM     27  C   UNL     1       3.728  -4.364  -0.606  0.00  0.00    +0.027 C 
ATOM     28  C   UNL     1       3.087  -5.609   0.013  0.00  0.00    +0.098 C 
ATOM     29  C   UNL     1       2.368  -5.217   1.306  0.00  0.00    -0.045 C 
ATOM     30  N   UNL     1       1.321  -4.221   0.990  0.00  0.00    +0.394 N 
ATOM     31  H   UNL     1       0.693  -4.613   0.278  0.00  0.00    -0.079 HD
BRANCH  28  32
ATOM     32  O   UNL     1       4.100  -6.574   0.305  0.00  0.00    -0.394 OA
ATOM     33  H   UNL     1       4.598  -6.868  -0.470  0.00  0.00    +0.210 HD
ENDBRANCH  28  32
ENDBRANCH  24  30
ENDBRANCH   4  24
TORSDOF 6
