REMARK  Name = ZINC09720470
REMARK  8 active torsions:
REMARK  status: ('A' for Active; 'I' for Inactive)
REMARK    1  A    between atoms: C_1  and  C_2
REMARK    2  A    between atoms: C_2  and  C_4
REMARK    3  A    between atoms: C_2  and  N_10
REMARK    4  A    between atoms: N_10  and  C_11
REMARK    5  A    between atoms: C_13  and  N_20
REMARK    6  A    between atoms: C_16  and  N_17
REMARK    7  A    between atoms: C_26  and  C_28
REMARK    8  A    between atoms: C_29  and  C_30
REMARK                            x       y       z     vdW  Elec       q    Type
REMARK                         _______ _______ _______ _____ _____    ______ ____
ROOT
ATOM      1  C   UNL     1       0.863   1.728  -0.101  0.00  0.00    +0.060 A 
ATOM      2  C   UNL     1       0.914   3.112  -0.185  0.00  0.00    +0.048 A 
ATOM      3  C   UNL     1       2.142   3.759  -0.198  0.00  0.00    +0.032 A 
ATOM      4  C   UNL     1       3.316   3.017  -0.140  0.00  0.00    +0.025 A 
ATOM      5  C   UNL     1       3.261   1.639  -0.062  0.00  0.00    +0.036 A 
ATOM      6  C   UNL     1       2.040   0.993  -0.043  0.00  0.00    +0.147 A 
ENDROOT
BRANCH   3   7
ATOM      7  N   UNL     1       2.198   5.152  -0.277  0.00  0.00    -0.327 N 
ATOM      8  C   UNL     1       1.463   5.643  -1.450  0.00  0.00    +0.124 C 
ATOM      9  C   UNL     1       1.394   7.173  -1.402  0.00  0.00    +0.127 C 
ATOM     10  N   UNL     1       2.761   7.698  -1.260  0.00  0.00    -0.295 N 
ATOM     11  C   UNL     1       3.608   7.152  -0.188  0.00  0.00    +0.127 C 
ATOM     12  C   UNL     1       3.590   5.623  -0.284  0.00  0.00    +0.124 C 
ATOM     13  C   UNL     1       3.224   8.654  -2.089  0.00  0.00    +0.240 C 
ATOM     14  O   UNL     1       2.482   9.158  -2.911  0.00  0.00    -0.271 OA
BRANCH  13  15
ATOM     15  C   UNL     1       4.621   9.085  -2.001  0.00  0.00    +0.068 C 
ATOM     16  C   UNL     1       5.113   9.962  -2.899  0.00  0.00    +0.013 C 
BRANCH  16  17
ATOM     17  C   UNL     1       6.517  10.395  -2.811  0.00  0.00    -0.025 A 
ATOM     18  C   UNL     1       7.341   9.904  -1.793  0.00  0.00    +0.009 A 
ATOM     19  C   UNL     1       8.656  10.310  -1.720  0.00  0.00    +0.020 A 
ATOM     20  C   UNL     1       9.159  11.211  -2.644  0.00  0.00    +0.041 A 
ATOM     21  C   UNL     1       8.347  11.707  -3.651  0.00  0.00    +0.020 A 
ATOM     22  C   UNL     1       7.031  11.305  -3.740  0.00  0.00    +0.009 A 
ATOM     23 CL   UNL     1      10.815  11.723  -2.540  0.00  0.00    -0.084 Cl
ENDBRANCH  16  17
ENDBRANCH  13  15
ENDBRANCH   3   7
BRANCH   6  24
ATOM     24  N   UNL     1       1.986  -0.484   0.041  0.00  0.00    +0.058 N 
ATOM     25  O   UNL     1       3.010  -1.122   0.204  0.00  0.00    -0.126 OA
ATOM     26  O   UNL     1       0.918  -1.061  -0.054  0.00  0.00    -0.126 OA
ENDBRANCH   6  24
BRANCH   1  27
ATOM     27  N   UNL     1      -0.371   1.074  -0.081  0.00  0.00    -0.335 N 
ATOM     28  H   UNL     1      -0.407   0.105  -0.107  0.00  0.00    +0.147 HD
BRANCH  27  30
ATOM     29  C   UNL     1      -1.939   2.189   1.430  0.00  0.00    +0.033 C 
ATOM     30  C   UNL     1      -1.612   1.852  -0.026  0.00  0.00    +0.098 C 
BRANCH  30  31
ATOM     31  C   UNL     1      -2.737   1.045  -0.620  0.00  0.00    -0.028 A 
ATOM     32  C   UNL     1      -2.824  -0.311  -0.367  0.00  0.00    +0.005 A 
ATOM     33  C   UNL     1      -3.859  -1.050  -0.908  0.00  0.00    +0.000 A 
ATOM     34  C   UNL     1      -4.802  -0.435  -1.710  0.00  0.00    +0.000 A 
ATOM     35  C   UNL     1      -4.713   0.920  -1.967  0.00  0.00    +0.000 A 
ATOM     36  C   UNL     1      -3.681   1.660  -1.422  0.00  0.00    +0.005 A 
ENDBRANCH  30  31
ENDBRANCH  27  30
ENDBRANCH   1  27
TORSDOF 7
