REMARK  Name = ZINC35271374
REMARK  15 active torsions:
REMARK  status: ('A' for Active; 'I' for Inactive)
REMARK    1  A    between atoms: C_1  and  O_2
REMARK    2  A    between atoms: O_2  and  C_3
REMARK    3  A    between atoms: C_5  and  C_10
REMARK    4  A    between atoms: C_8  and  O_9
REMARK    5  A    between atoms: C_12  and  C_38
REMARK    6  A    between atoms: C_16  and  C_23
REMARK    7  A    between atoms: C_18  and  O_21
REMARK    8  A    between atoms: O_21  and  C_22
REMARK    9  A    between atoms: C_24  and  C_25
REMARK   10  A    between atoms: N_27  and  CA_28
REMARK   11  A    between atoms: CA_28  and  CB_30
REMARK   12  A    between atoms: CA_28  and  C_35
REMARK   13  A    between atoms: CB_30  and  CG_31
REMARK   14  A    between atoms: CG_31  and  CD_32
REMARK   15  A    between atoms: C_38  and  O_39
REMARK                            x       y       z     vdW  Elec       q    Type
REMARK                         _______ _______ _______ _____ _____    ______ ____
ROOT
ATOM      1  C   UNK A   0      -4.774  -0.737   0.806  0.00  0.00    +0.214 C 
ATOM      2  C   UNK A   0      -5.553  -0.746   2.142  0.00  0.00    +0.093 C 
ATOM      3  C   UNK A   0      -6.953  -0.377   1.691  0.00  0.00    +0.008 A 
ATOM      4  C   UNK A   0      -8.058   0.053   2.385  0.00  0.00    +0.016 A 
ATOM      5  C   UNK A   0      -9.246   0.335   1.700  0.00  0.00    -0.021 A 
ATOM      6  C   UNK A   0      -9.295   0.175   0.310  0.00  0.00    +0.057 A 
ATOM      7  C   UNK A   0      -8.181  -0.261  -0.375  0.00  0.00    +0.162 A 
ATOM      8  C   UNK A   0      -6.994  -0.546   0.312  0.00  0.00    +0.166 A 
ATOM      9  O   UNK A   0      -5.799  -0.996  -0.167  0.00  0.00    -0.480 OA
ENDROOT
BRANCH   1  12
ATOM     10  C   UNK A   0      -1.460  -2.530   1.086  0.00  0.00    +0.162 A 
ATOM     11  C   UNK A   0      -2.419  -1.530   1.102  0.00  0.00    +0.056 A 
ATOM     12  C   UNK A   0      -3.732  -1.826   0.787  0.00  0.00    -0.003 A 
ATOM     13  C   UNK A   0      -4.092  -3.119   0.455  0.00  0.00    +0.011 A 
ATOM     14  C   UNK A   0      -3.140  -4.121   0.437  0.00  0.00    +0.049 A 
ATOM     15  C   UNK A   0      -1.821  -3.830   0.746  0.00  0.00    +0.158 A 
BRANCH  10  17
ATOM     16  C   UNK A   0       0.130  -0.884   1.734  0.00  0.00    +0.277 C 
ATOM     17  O   UNK A   0      -0.168  -2.240   1.395  0.00  0.00    -0.491 OA
ENDBRANCH  10  17
BRANCH  15  18
ATOM     18  O   UNK A   0      -0.883  -4.814   0.723  0.00  0.00    -0.503 OA
ATOM     19  H   UNK A   0      -0.775  -5.275   1.566  0.00  0.00    +0.292 HD
ENDBRANCH  15  18
ENDBRANCH   1  12
BRANCH   7  20
ATOM     20  O   UNK A   0      -8.235  -0.416  -1.725  0.00  0.00    -0.491 OA
ATOM     21  C   UNK A   0      -9.475  -0.108  -2.364  0.00  0.00    +0.277 C 
ENDBRANCH   7  20
BRANCH   5  22
ATOM     22  C   UNK A   0     -10.433   0.797   2.434  0.00  0.00    +0.013 C 
ATOM     23  C   UNK A   0     -10.309   1.734   3.398  0.00  0.00    +0.068 C 
BRANCH  23  24
ATOM     24  C   UNK A   0      -9.044   2.450   3.563  0.00  0.00    +0.238 C 
ATOM     25  O   UNK A   0      -8.150   2.300   2.751  0.00  0.00    -0.271 OA
ATOM     26  N   GLU A   1      -8.869   3.276   4.613  0.00  0.00    -0.299 N 
ATOM     27  H   GLU A   1      -9.582   3.395   5.260  0.00  0.00    +0.150 HD
BRANCH  26  28
ATOM     28  CA  GLU A   1      -7.603   3.993   4.778  0.00  0.00    +0.187 C 
BRANCH  28  29
ATOM     29  C   GLU A   1      -6.614   3.108   5.494  0.00  0.00    +0.376 C 
ATOM     30  O   GLU A   1      -6.938   1.983   5.834  0.00  0.00    -0.244 OA
ATOM     31  OXT GLU A   1      -5.491   3.518   5.732  0.00  0.00    -0.244 OA
ENDBRANCH  28  29
BRANCH  28  32
ATOM     32  CB  GLU A   1      -7.838   5.262   5.599  0.00  0.00    +0.045 C 
BRANCH  32  33
ATOM     33  CG  GLU A   1      -8.744   6.215   4.816  0.00  0.00    +0.127 C 
BRANCH  33  34
ATOM     34  CD  GLU A   1      -8.976   7.465   5.625  0.00  0.00    +0.356 C 
ATOM     35  OE1 GLU A   1      -8.465   7.583   6.725  0.00  0.00    -0.246 OA
ATOM     36  OE2 GLU A   1      -9.676   8.359   5.178  0.00  0.00    -0.246 OA
ENDBRANCH  33  34
ENDBRANCH  32  33
ENDBRANCH  28  32
ENDBRANCH  26  28
ENDBRANCH  23  24
ENDBRANCH   5  22
BRANCH   2  37
ATOM     37  C   UNK A   0      -5.531  -2.138   2.777  0.00  0.00    +0.168 C 
BRANCH  37  38
ATOM     38  O   UNK A   0      -6.157  -2.085   4.061  0.00  0.00    -0.394 OA
ATOM     39  H   UNK A   0      -6.179  -2.935   4.523  0.00  0.00    +0.209 HD
ENDBRANCH  37  38
ENDBRANCH   2  37
TORSDOF 13
