REMARK  Name = ZINC43737209
REMARK  12 active torsions:
REMARK  status: ('A' for Active; 'I' for Inactive)
REMARK    1  A    between atoms: C_1  and  C_2
REMARK    2  A    between atoms: C_6  and  C_9
REMARK    3  A    between atoms: C_9  and  C_11
REMARK    4  A    between atoms: C_9  and  C_12
REMARK    5  A    between atoms: C_14  and  O_41
REMARK    6  A    between atoms: C_19  and  C_40
REMARK    7  A    between atoms: C_29  and  C_39
REMARK    8  A    between atoms: C_32  and  O_35
REMARK    9  A    between atoms: O_35  and  C_36
REMARK   10  A    between atoms: C_36  and  C_38
REMARK   11  A    between atoms: O_41  and  C_42
REMARK   12  A    between atoms: C_42  and  C_44
REMARK                            x       y       z     vdW  Elec       q    Type
REMARK                         _______ _______ _______ _____ _____    ______ ____
ROOT
ATOM      1  C   UNL     1       1.339  -3.938   1.569  0.00  0.00    +0.044 C 
ATOM      2  C   UNL     1       2.530  -3.018   1.898  0.00  0.00    +0.181 C 
ATOM      3  C   UNL     1       3.459  -3.820   2.839  0.00  0.00    +0.049 C 
ATOM      4  C   UNL     1       3.099  -5.286   2.536  0.00  0.00    +0.003 C 
ATOM      5  C   UNL     1       1.571  -5.253   2.360  0.00  0.00    -0.022 C 
ATOM      6  C   UNL     1       0.879  -5.076   3.715  0.00  0.00    +0.007 C 
ATOM      7  C   UNL     1       1.330  -6.160   4.690  0.00  0.00    +0.005 C 
ATOM      8  C   UNL     1       2.837  -6.011   4.933  0.00  0.00    +0.003 C 
ATOM      9  C   UNL     1       3.556  -6.231   3.622  0.00  0.00    +0.000 C 
ATOM     10  C   UNL     1       5.056  -6.037   3.877  0.00  0.00    +0.031 C 
ATOM     11  C   UNL     1       5.492  -6.947   4.987  0.00  0.00    -0.027 C 
ATOM     12  C   UNL     1       4.685  -7.368   5.917  0.00  0.00    -0.064 C 
ATOM     13  C   UNL     1       3.277  -7.029   5.973  0.00  0.00    -0.008 C 
ATOM     14  C   UNL     1       2.966  -6.511   7.380  0.00  0.00    +0.015 C 
ATOM     15  C   UNL     1       3.423  -7.544   8.412  0.00  0.00    +0.046 C 
ATOM     16  C   UNL     1       4.939  -7.727   8.324  0.00  0.00    +0.180 C 
ATOM     17  C   UNL     1       5.243  -8.278   6.998  0.00  0.00    +0.075 C 
ATOM     18  C   UNL     1       2.463  -8.307   5.763  0.00  0.00    +0.016 C 
ATOM     19  C   UNL     1       1.055  -6.478   1.602  0.00  0.00    +0.012 C 
ENDROOT
BRANCH   1  20
ATOM     20  C   UNL     1       1.300  -4.229   0.067  0.00  0.00    +0.035 C 
ATOM     21  C   UNL     1       0.073  -5.085  -0.255  0.00  0.00    +0.014 C 
BRANCH  20  26
ATOM     22  C   UNL     1       0.849   0.786  -2.717  0.00  0.00    +0.009 C 
ATOM     23  C   UNL     1       0.664  -0.593  -2.081  0.00  0.00    +0.005 C 
ATOM     24  C   UNL     1       1.597  -1.605  -2.759  0.00  0.00    +0.011 C 
ATOM     25  C   UNL     1       1.286  -2.993  -2.192  0.00  0.00    +0.049 C 
ATOM     26  C   UNL     1       1.219  -2.930  -0.694  0.00  0.00    -0.008 C 
ATOM     27  N   UNL     1       1.100  -1.866  -0.028  0.00  0.00    -0.390 N 
ATOM     28  C   UNL     1       1.021  -0.526  -0.595  0.00  0.00    +0.115 C 
ATOM     29  H   UNL     1       1.058  -1.946   0.937  0.00  0.00    +0.159 HD
ENDBRANCH  20  26
ENDBRANCH   1  20
BRANCH  16  30
ATOM     30  O   UNL     1       5.583  -6.464   8.502  0.00  0.00    -0.461 OA
BRANCH  30  31
ATOM     31  C   UNL     1       6.804  -6.475   9.059  0.00  0.00    +0.304 C 
ATOM     32  O   UNL     1       7.310  -7.523   9.384  0.00  0.00    -0.251 OA
ATOM     33  C   UNL     1       7.544  -5.181   9.278  0.00  0.00    +0.136 C 
ENDBRANCH  30  31
ENDBRANCH  16  30
BRANCH   2  34
ATOM     34  O   UNL     1       3.227  -2.671   0.700  0.00  0.00    -0.461 OA
BRANCH  34  35
ATOM     35  C   UNL     1       3.840  -1.478   0.675  0.00  0.00    +0.304 C 
ATOM     36  O   UNL     1       3.787  -0.752   1.640  0.00  0.00    -0.251 OA
ATOM     37  C   UNL     1       4.595  -1.043  -0.555  0.00  0.00    +0.136 C 
ENDBRANCH  34  35
ENDBRANCH   2  34
TORSDOF 6
