REMARK  Name = ZINC40322006
REMARK  10 active torsions:
REMARK  status: ('A' for Active; 'I' for Inactive)
REMARK    1  A    between atoms: C_1  and  C_2
REMARK    2  A    between atoms: C_5  and  C_8
REMARK    3  A    between atoms: C_8  and  C_10
REMARK    4  A    between atoms: C_8  and  N_29
REMARK    5  A    between atoms: C_10  and  N_11
REMARK    6  A    between atoms: C_12  and  C_14
REMARK    7  A    between atoms: C_17  and  S_19
REMARK    8  A    between atoms: S_19  and  C_22
REMARK    9  A    between atoms: N_29  and  C_30
REMARK   10  A    between atoms: N_29  and  C_31
REMARK                            x       y       z     vdW  Elec       q    Type
REMARK                         _______ _______ _______ _____ _____    ______ ____
ROOT
ATOM      1  N   UNL     1       0.774  -6.390   0.509  0.00  0.00    -0.310 N 
ATOM      2  C   UNL     1       1.768  -7.243   0.827  0.00  0.00    +0.279 C 
ATOM      3  O   UNL     1       2.917  -6.844   0.883  0.00  0.00    -0.267 OA
ATOM      4  H   UNL     1      -0.141  -6.708   0.465  0.00  0.00    +0.149 HD
ENDROOT
BRANCH   2   5
ATOM      5  C   UNL     1       1.466  -8.651   1.106  0.00  0.00    +0.192 A 
ATOM      6  C   UNL     1       2.373  -9.614   1.443  0.00  0.00    +0.056 A 
ATOM      7  C   UNL     1       1.651 -10.805   1.618  0.00  0.00    +0.070 A 
ATOM      8  C   UNL     1       0.351 -10.520   1.382  0.00  0.00    +0.246 A 
ATOM      9  O   UNL     1       0.243  -9.220   1.079  0.00  0.00    -0.433 OA
BRANCH   8  10
ATOM     10  S   UNL     1      -0.983 -11.668   1.466  0.00  0.00    +0.058 S 
ATOM     11  O   UNL     1      -2.018 -11.148   0.643  0.00  0.00    -0.161 OA
ATOM     12  O   UNL     1      -0.422 -12.957   1.262  0.00  0.00    -0.161 OA
BRANCH  10  13
ATOM     13  C   UNL     1      -1.592 -11.639   3.119  0.00  0.00    +0.097 A 
ATOM     14  C   UNL     1      -1.059 -12.494   4.066  0.00  0.00    +0.029 A 
ATOM     15  C   UNL     1      -1.536 -12.472   5.363  0.00  0.00    +0.022 A 
ATOM     16  C   UNL     1      -2.547 -11.595   5.714  0.00  0.00    +0.041 A 
ATOM     17  C   UNL     1      -3.080 -10.740   4.765  0.00  0.00    +0.022 A 
ATOM     18  C   UNL     1      -2.598 -10.758   3.470  0.00  0.00    +0.029 A 
ATOM     19 CL   UNL     1      -3.147 -11.567   7.342  0.00  0.00    -0.084 Cl
ENDBRANCH  10  13
ENDBRANCH   8  10
ENDBRANCH   2   5
BRANCH   1  20
ATOM     20  C   UNL     1       1.075  -4.984   0.231  0.00  0.00    +0.094 C 
BRANCH  20  21
ATOM     21  C   UNL     1      -0.229  -4.220  -0.007  0.00  0.00    -0.021 C 
BRANCH  21  26
ATOM     22  C   UNL     1      -2.812  -6.249  -4.761  0.00  0.00    +0.044 C 
ATOM     23  C   UNL     1      -2.139  -5.720  -3.521  0.00  0.00    -0.050 A 
ATOM     24  C   UNL     1      -2.566  -6.132  -2.273  0.00  0.00    +0.003 A 
ATOM     25  C   UNL     1      -1.948  -5.647  -1.135  0.00  0.00    +0.002 A 
ATOM     26  C   UNL     1      -0.902  -4.750  -1.247  0.00  0.00    -0.059 A 
ATOM     27  C   UNL     1      -0.474  -4.339  -2.495  0.00  0.00    +0.002 A 
ATOM     28  C   UNL     1      -1.089  -4.827  -3.632  0.00  0.00    +0.003 A 
ENDBRANCH  21  26
BRANCH  21  29
ATOM     29  N   UNL     1       0.065  -2.792  -0.182  0.00  0.00    +0.382 N 
ATOM     30  C   UNL     1      -1.182  -2.065  -0.455  0.00  0.00    -0.096 C 
ATOM     31  C   UNL     1       0.680  -2.265   1.044  0.00  0.00    -0.096 C 
ATOM     32  H   UNL     1       0.701  -2.672  -0.956  0.00  0.00    -0.082 HD
ENDBRANCH  21  29
ENDBRANCH  20  21
ENDBRANCH   1  20
TORSDOF 7
