REMARK  Name = ZINC03275412
REMARK  8 active torsions:
REMARK  status: ('A' for Active; 'I' for Inactive)
REMARK    1  A    between atoms: N_9  and  S_28
REMARK    2  A    between atoms: C_10  and  C_12
REMARK    3  A    between atoms: C_12  and  C_13
REMARK    4  A    between atoms: C_13  and  O_15
REMARK    5  A    between atoms: O_15  and  C_16
REMARK    6  A    between atoms: C_16  and  C_17
REMARK    7  A    between atoms: N_19  and  C_20
REMARK    8  A    between atoms: S_28  and  C_31
REMARK                            x       y       z     vdW  Elec       q    Type
REMARK                         _______ _______ _______ _____ _____    ______ ____
ROOT
ATOM      1  C   UNL     1       1.915   2.641   1.372  0.00  0.00    +0.000 A 
ATOM      2  C   UNL     1       2.203   1.318   1.655  0.00  0.00    +0.000 A 
ATOM      3  C   UNL     1       1.260   0.344   1.403  0.00  0.00    +0.005 A 
ATOM      4  C   UNL     1       0.023   0.682   0.869  0.00  0.00    -0.025 A 
ATOM      5  C   UNL     1      -0.269   2.000   0.598  0.00  0.00    -0.041 A 
ATOM      6  C   UNL     1       0.686   2.978   0.847  0.00  0.00    +0.004 A 
ATOM      7  C   UNL     1      -1.599   2.445   0.050  0.00  0.00    +0.052 C 
ATOM      8  C   UNL     1      -2.330   1.281  -0.617  0.00  0.00    +0.115 C 
ATOM      9  N   UNL     1      -2.275   0.128   0.297  0.00  0.00    -0.168 NA
ATOM     10  C   UNL     1      -0.953  -0.434   0.593  0.00  0.00    +0.121 C 
ENDROOT
BRANCH   9  11
ATOM     11  S   UNL     1      -3.651  -0.509   0.963  0.00  0.00    +0.068 S 
ATOM     12  O   UNL     1      -4.743   0.196   0.390  0.00  0.00    -0.152 OA
ATOM     13  O   UNL     1      -3.526  -1.922   0.877  0.00  0.00    -0.152 OA
BRANCH  11  14
ATOM     14  C   UNL     1      -3.634  -0.105   2.678  0.00  0.00    +0.143 A 
ATOM     15  C   UNL     1      -4.136   0.988   3.302  0.00  0.00    +0.036 A 
ATOM     16  C   UNL     1      -4.010   1.093   4.675  0.00  0.00    +0.010 A 
ATOM     17  C   UNL     1      -3.380   0.105   5.355  0.00  0.00    +0.047 A 
ATOM     18  S   UNL     1      -2.946  -1.026   4.043  0.00  0.00    -0.077 S 
ENDBRANCH  11  14
ENDBRANCH   9  11
BRANCH  10  19
ATOM     19  C   UNL     1      -1.050  -1.341   1.822  0.00  0.00    +0.146 C 
BRANCH  19  20
ATOM     20  C   UNL     1       0.191  -2.190   1.919  0.00  0.00    +0.309 C 
ATOM     21  O   UNL     1       0.998  -2.186   1.019  0.00  0.00    -0.251 OA
BRANCH  20  22
ATOM     22  O   UNL     1       0.401  -2.950   3.005  0.00  0.00    -0.455 OA
BRANCH  22  23
ATOM     23  C   UNL     1       1.617  -3.743   3.030  0.00  0.00    +0.328 C 
BRANCH  23  24
ATOM     24  C   UNL     1       1.681  -4.525   4.316  0.00  0.00    +0.255 C 
ATOM     25  O   UNL     1       0.788  -4.425   5.131  0.00  0.00    -0.272 OA
ATOM     26  N   UNL     1       2.729  -5.336   4.560  0.00  0.00    -0.280 N 
ATOM     27  H   UNL     1       3.476  -5.363   3.942  0.00  0.00    +0.155 HD
BRANCH  26  28
ATOM     28  C   UNL     1       2.740  -6.140   5.707  0.00  0.00    +0.069 A 
ATOM     29  C   UNL     1       1.546  -6.500   6.316  0.00  0.00    +0.027 A 
ATOM     30  C   UNL     1       1.559  -7.298   7.444  0.00  0.00    +0.017 A 
ATOM     31  C   UNL     1       2.761  -7.729   7.974  0.00  0.00    +0.021 A 
ATOM     32  C   UNL     1       3.955  -7.368   7.375  0.00  0.00    +0.055 A 
ATOM     33  C   UNL     1       3.948  -6.574   6.242  0.00  0.00    +0.146 A 
ATOM     34  F   UNL     1       5.113  -6.221   5.657  0.00  0.00    -0.204 F 
ATOM     35 BR   UNL     1       2.774  -8.815   9.523  0.00  0.00    -0.050 Br
ENDBRANCH  26  28
ENDBRANCH  23  24
ENDBRANCH  22  23
ENDBRANCH  20  22
ENDBRANCH  19  20
ENDBRANCH  10  19
TORSDOF 8
