REMARK  Name = ZINC59780353
REMARK  5 active torsions:
REMARK  status: ('A' for Active; 'I' for Inactive)
REMARK    1  A    between atoms: C_1  and  C_2
REMARK    2  A    between atoms: C_2  and  N_3
REMARK    3  A    between atoms: N_3  and  C_4
REMARK    4  A    between atoms: N_3  and  C_11
REMARK    5  A    between atoms: C_16  and  N_17
REMARK                            x       y       z     vdW  Elec       q    Type
REMARK                         _______ _______ _______ _____ _____    ______ ____
ROOT
ATOM      1  C   UNL     1      -2.092  -0.761   1.188  0.00  0.00    +0.057 A 
ATOM      2  C   UNL     1      -2.924   0.212   1.726  0.00  0.00    +0.074 A 
ATOM      3  C   UNL     1      -3.627  -0.045   2.893  0.00  0.00    +0.164 A 
ATOM      4  C   UNL     1      -3.499  -1.278   3.522  0.00  0.00    +0.164 A 
ATOM      5  C   UNL     1      -2.667  -2.247   2.983  0.00  0.00    +0.072 A 
ATOM      6  C   UNL     1      -1.969  -1.993   1.817  0.00  0.00    +0.034 A 
ATOM      7  O   UNL     1      -4.189  -1.552   4.665  0.00  0.00    -0.485 OA
ATOM      8  C   UNL     1      -4.723  -0.431   5.378  0.00  0.00    +0.270 C 
ATOM      9  C   UNL     1      -5.412   0.497   4.368  0.00  0.00    +0.270 C 
ATOM     10  O   UNL     1      -4.436   0.920   3.410  0.00  0.00    -0.485 OA
ENDROOT
BRANCH   6  11
ATOM     11  N   UNL     1      -1.135  -2.974   1.274  0.00  0.00    -0.415 NA
ATOM     12  H   UNL     1      -0.230  -2.930   1.718  0.00  0.00    +0.121 HD
ATOM     13  H   UNL     1      -1.541  -3.885   1.430  0.00  0.00    +0.121 HD
ATOM     14  H   UNL     1      -1.031  -2.817   0.283  0.00  0.00    +0.121 HD
ENDBRANCH   6  11
BRANCH   1  15
ATOM     15  N   UNL     1      -1.383  -0.503   0.010  0.00  0.00    -0.297 N 
BRANCH  15  16
ATOM     16  C   UNL     1      -2.003  -0.674  -1.231  0.00  0.00    +0.070 A 
ATOM     17  C   UNL     1      -1.841  -1.861  -1.933  0.00  0.00    +0.026 A 
ATOM     18  C   UNL     1      -2.456  -2.027  -3.159  0.00  0.00    +0.002 A 
ATOM     19  C   UNL     1      -3.233  -1.013  -3.689  0.00  0.00    +0.003 A 
ATOM     20  C   UNL     1      -3.397   0.172  -2.994  0.00  0.00    +0.040 A 
ATOM     21  C   UNL     1      -2.790   0.343  -1.763  0.00  0.00    +0.145 A 
ATOM     22  F   UNL     1      -2.955   1.498  -1.082  0.00  0.00    -0.204 F 
ENDBRANCH  15  16
BRANCH  15  24
ATOM     23  C   UNL     1       0.051   1.475   0.134  0.00  0.00    +0.024 C 
ATOM     24  C   UNL     1       0.010  -0.053   0.077  0.00  0.00    +0.108 C 
ENDBRANCH  15  24
ENDBRANCH   1  15
TORSDOF 4
