REMARK  Name = ZINC35127600
REMARK  5 active torsions:
REMARK  status: ('A' for Active; 'I' for Inactive)
REMARK    1  A    between atoms: C_1  and  C_2
REMARK    2  A    between atoms: C_2  and  C_4
REMARK    3  A    between atoms: C_2  and  N_9
REMARK    4  A    between atoms: C_10  and  C_12
REMARK    5  A    between atoms: C_14  and  N_20
REMARK                            x       y       z     vdW  Elec       q    Type
REMARK                         _______ _______ _______ _____ _____    ______ ____
ROOT
ATOM      1  N   UNL     1       0.711  -0.489   1.189  0.00  0.00    -0.304 N 
ATOM      2  C   UNL     1       0.051  -0.633   2.355  0.00  0.00    +0.245 C 
ATOM      3  O   UNL     1      -1.131  -0.361   2.423  0.00  0.00    -0.270 OA
ATOM      4  H   UNL     1       1.654  -0.707   1.135  0.00  0.00    +0.150 HD
ENDROOT
BRANCH   2   5
ATOM      5  C   UNL     1       0.766  -1.123   3.553  0.00  0.00    +0.040 A 
ATOM      6  C   UNL     1       0.084  -1.279   4.761  0.00  0.00    +0.047 A 
ATOM      7  C   UNL     1       0.755  -1.736   5.875  0.00  0.00    +0.147 A 
ATOM      8  C   UNL     1       2.104  -2.042   5.798  0.00  0.00    +0.089 A 
ATOM      9  C   UNL     1       2.787  -1.889   4.601  0.00  0.00    +0.062 A 
ATOM     10  C   UNL     1       2.124  -1.437   3.478  0.00  0.00    +0.034 A 
ATOM     11 CL   UNL     1       4.478  -2.273   4.514  0.00  0.00    -0.082 Cl
ATOM     12 CL   UNL     1       2.943  -2.617   7.205  0.00  0.00    -0.080 Cl
BRANCH   7  13
ATOM     13  N   UNL     1       0.034  -1.901   7.157  0.00  0.00    +0.058 N 
ATOM     14  O   UNL     1      -1.144  -1.635   7.226  0.00  0.00    -0.126 OA
ATOM     15  O   UNL     1       0.621  -2.302   8.134  0.00  0.00    -0.126 OA
ENDBRANCH   7  13
ENDBRANCH   2   5
BRANCH   1  17
ATOM     16  C   UNL     1      -0.019   1.526   0.010  0.00  0.00    +0.033 C 
ATOM     17  C   UNL     1       0.002  -0.004   0.002  0.00  0.00    +0.107 C 
BRANCH  17  18
ATOM     18  C   UNL     1       0.707  -0.490  -1.238  0.00  0.00    +0.010 A 
ATOM     19  C   UNL     1       0.176  -0.943  -2.400  0.00  0.00    +0.013 A 
ATOM     20  C   UNL     1       1.026  -1.340  -3.415  0.00  0.00    +0.008 A 
ATOM     21  C   UNL     1       2.365  -1.266  -3.219  0.00  0.00    +0.045 A 
ATOM     22  S   UNL     1       2.459  -0.612  -1.560  0.00  0.00    -0.100 S 
ENDBRANCH  17  18
ENDBRANCH   1  17
TORSDOF 4
