REMARK  Name = ZINC64508015
REMARK  15 active torsions:
REMARK  status: ('A' for Active; 'I' for Inactive)
REMARK    1  A    between atoms: C_1  and  C_2
REMARK    2  A    between atoms: C_2  and  O_3
REMARK    3  A    between atoms: O_3  and  C_4
REMARK    4  A    between atoms: C_4  and  C_6
REMARK    5  A    between atoms: C_8  and  C_39
REMARK    6  A    between atoms: C_10  and  C_14
REMARK    7  A    between atoms: C_11  and  C_13
REMARK    8  A    between atoms: C_14  and  N_15
REMARK    9  A    between atoms: N_15  and  C_16
REMARK   10  A    between atoms: C_16  and  C_17
REMARK   11  A    between atoms: C_20  and  O_23
REMARK   12  A    between atoms: O_23  and  C_24
REMARK   13  A    between atoms: C_25  and  C_27
REMARK   14  A    between atoms: C_33  and  O_37
REMARK   15  A    between atoms: O_37  and  C_38
REMARK                            x       y       z     vdW  Elec       q    Type
REMARK                         _______ _______ _______ _____ _____    ______ ____
ROOT
ATOM      1  N   UNL     1      -5.189  -5.927   3.106  0.00  0.00    -0.295 N 
ATOM      2  C   UNL     1      -6.299  -5.373   2.578  0.00  0.00    +0.242 C 
ATOM      3  O   UNL     1      -6.459  -4.172   2.628  0.00  0.00    -0.273 OA
ENDROOT
BRANCH   2   4
ATOM      4  C   UNL     1      -7.339  -6.246   1.925  0.00  0.00    +0.190 C 
ATOM      5  C   UNL     1      -6.879  -6.664   0.547  0.00  0.00    +0.016 C 
ATOM      6  C   UNL     1      -7.793  -6.173  -0.319  0.00  0.00    -0.003 A 
ATOM      7  C   UNL     1      -7.908  -6.238  -1.782  0.00  0.00    +0.013 A 
ATOM      8  C   UNL     1      -8.957  -5.637  -2.385  0.00  0.00    +0.046 A 
ATOM      9  C   UNL     1      -9.941  -4.953  -1.645  0.00  0.00    +0.122 A 
ATOM     10  C   UNL     1      -9.898  -4.852  -0.292  0.00  0.00    +0.071 A 
ATOM     11  C   UNL     1      -8.839  -5.448   0.437  0.00  0.00    +0.047 A 
ATOM     12  N   UNL     1      -8.580  -5.489   1.725  0.00  0.00    -0.370 N 
ATOM     13  H   UNL     1      -9.118  -5.088   2.425  0.00  0.00    +0.161 HD
BRANCH   9  14
ATOM     14  O   UNL     1     -10.969  -4.371  -2.311  0.00  0.00    -0.495 OA
ATOM     15  C   UNL     1     -10.977  -4.499  -3.734  0.00  0.00    +0.277 C 
ENDBRANCH   9  14
ENDBRANCH   2   4
BRANCH   1  16
ATOM     16  C   UNL     1      -4.250  -5.101   3.869  0.00  0.00    +0.118 C 
BRANCH  16  19
ATOM     17  C   UNL     1      -1.716  -2.695   2.762  0.00  0.00    +0.217 C 
ATOM     18  C   UNL     1      -2.826  -3.011   3.791  0.00  0.00    +0.031 C 
ATOM     19  C   UNL     1      -3.711  -3.984   2.974  0.00  0.00    +0.056 C 
ATOM     20  C   UNL     1      -2.765  -4.544   1.935  0.00  0.00    +0.016 C 
ATOM     21  N   UNL     1      -1.709  -3.837   1.842  0.00  0.00    -0.278 NA
ATOM     22  C   UNL     1      -3.037  -5.779   1.114  0.00  0.00    +0.060 C 
ATOM     23  C   UNL     1      -2.250  -3.697   5.032  0.00  0.00    +0.011 C 
BRANCH  17  24
ATOM     24  C   UNL     1      -0.382  -2.571   3.452  0.00  0.00    +0.332 C 
ATOM     25  O   UNL     1       0.385  -3.504   3.457  0.00  0.00    -0.248 OA
BRANCH  24  26
ATOM     26  O   UNL     1      -0.046  -1.423   4.062  0.00  0.00    -0.463 OA
BRANCH  26  28
ATOM     27  C   UNL     1       1.437   0.001   5.332  0.00  0.00    +0.048 C 
ATOM     28  C   UNL     1       1.234  -1.376   4.696  0.00  0.00    +0.229 C 
ENDBRANCH  26  28
ENDBRANCH  24  26
ENDBRANCH  17  24
ENDBRANCH  16  19
ENDBRANCH   1  16
BRANCH   1  29
ATOM     29  C   UNL     1      -4.923  -7.356   2.918  0.00  0.00    +0.143 C 
BRANCH  29  30
ATOM     30  C   UNL     1      -5.572  -8.138   4.031  0.00  0.00    -0.030 A 
ATOM     31  C   UNL     1      -4.933  -8.262   5.251  0.00  0.00    +0.009 A 
ATOM     32  C   UNL     1      -5.525  -8.979   6.272  0.00  0.00    +0.046 A 
ATOM     33  C   UNL     1      -6.762  -9.575   6.073  0.00  0.00    +0.120 A 
ATOM     34  C   UNL     1      -7.401  -9.450   4.848  0.00  0.00    +0.046 A 
ATOM     35  C   UNL     1      -6.807  -8.727   3.832  0.00  0.00    +0.009 A 
BRANCH  33  36
ATOM     36  O   UNL     1      -7.346 -10.282   7.076  0.00  0.00    -0.495 OA
ATOM     37  C   UNL     1      -8.619 -10.869   6.800  0.00  0.00    +0.277 C 
ENDBRANCH  33  36
ENDBRANCH  29  30
ENDBRANCH   1  29
TORSDOF 10
