REMARK  Name = ZINC25337568
REMARK  5 active torsions:
REMARK  status: ('A' for Active; 'I' for Inactive)
REMARK    1  A    between atoms: C_1  and  S_2
REMARK    2  A    between atoms: S_2  and  C_3
REMARK    3  A    between atoms: C_8  and  N_9
REMARK    4  A    between atoms: C_14  and  N_16
REMARK    5  A    between atoms: C_19  and  N_22
REMARK                            x       y       z     vdW  Elec       q    Type
REMARK                         _______ _______ _______ _____ _____    ______ ____
ROOT
ATOM      1  N   UNL     1      -4.328  -0.736   0.054  0.00  0.00    +0.384 N 
ATOM      2  C   UNL     1      -4.154   0.087  -1.150  0.00  0.00    -0.076 C 
ATOM      3  C   UNL     1      -2.733   0.657  -1.179  0.00  0.00    +0.006 C 
ATOM      4  C   UNL     1      -2.502   1.501   0.078  0.00  0.00    +0.089 C 
ATOM      5  C   UNL     1      -2.737   0.633   1.317  0.00  0.00    +0.006 C 
ATOM      6  C   UNL     1      -4.157   0.064   1.273  0.00  0.00    -0.076 C 
ATOM      7  H   UNL     1      -3.546  -1.509   0.048  0.00  0.00    -0.081 HD
ENDROOT
BRANCH   4   8
ATOM      8  N   UNL     1      -1.125   2.001   0.085  0.00  0.00    -0.289 N 
ATOM      9  C   UNL     1      -0.745   3.341   0.098  0.00  0.00    +0.070 A 
ATOM     10  C   UNL     1      -1.455   4.532   0.109  0.00  0.00    +0.028 A 
ATOM     11  C   UNL     1      -0.779   5.736   0.116  0.00  0.00    +0.002 A 
ATOM     12  C   UNL     1       0.606   5.759   0.113  0.00  0.00    +0.002 A 
ATOM     13  C   UNL     1       1.322   4.578   0.103  0.00  0.00    +0.028 A 
ATOM     14  C   UNL     1       0.651   3.365   0.096  0.00  0.00    +0.067 A 
ATOM     15  N   UNL     1       1.076   2.038   0.085  0.00  0.00    -0.306 N 
ATOM     16  H   UNL     1       2.151   1.804   0.081  0.00  0.00    +0.170 HD
ATOM     17  C   UNL     1      -0.012   1.244   0.082  0.00  0.00    +0.328 A 
ATOM     18  O   UNL     1       0.008   0.028   0.072  0.00  0.00    -0.247 OA
ENDBRANCH   4   8
BRANCH   1  24
ATOM     19  N   UNL     1      -9.565  -1.356   1.509  0.00  0.00    -0.268 N 
ATOM     20  C   UNL     1      -8.469  -2.113   1.717  0.00  0.00    +0.306 C 
ATOM     21  O   UNL     1      -8.564  -3.167   2.316  0.00  0.00    -0.252 OA
ATOM     22  N   UNL     1      -7.269  -1.702   1.260  0.00  0.00    -0.288 N 
ATOM     23  C   UNL     1      -5.902  -2.256   1.304  0.00  0.00    +0.095 C 
ATOM     24  C   UNL     1      -5.633  -1.411   0.045  0.00  0.00    -0.033 C 
ATOM     25  C   UNL     1      -6.796  -0.518   0.514  0.00  0.00    +0.095 C 
ATOM     26  H   UNL     1      -9.469  -0.369   1.032  0.00  0.00    +0.156 HD
BRANCH  19  32
ATOM     27  C   UNL     1     -11.954  -1.518   1.138  0.00  0.00    +0.029 A 
ATOM     28  C   UNL     1     -13.200  -1.987   1.530  0.00  0.00    +0.016 A 
ATOM     29  C   UNL     1     -13.320  -2.756   2.672  0.00  0.00    +0.001 A 
ATOM     30  C   UNL     1     -12.202  -3.060   3.427  0.00  0.00    +0.002 A 
ATOM     31  C   UNL     1     -10.956  -2.602   3.041  0.00  0.00    +0.024 A 
ATOM     32  C   UNL     1     -10.826  -1.826   1.899  0.00  0.00    +0.048 A 
BRANCH  27  34
ATOM     33  C   UNL     1     -13.493  -0.414  -0.949  0.00  0.00    +0.090 C 
ATOM     34  S   UNL     1     -11.797  -0.539  -0.318  0.00  0.00    -0.127 S 
ENDBRANCH  27  34
ENDBRANCH  19  32
ENDBRANCH   1  24
TORSDOF 4
