REMARK  Name = ZINC49514637
REMARK  6 active torsions:
REMARK  status: ('A' for Active; 'I' for Inactive)
REMARK    1  A    between atoms: C_1  and  N_2
REMARK    2  A    between atoms: C_3  and  C_5
REMARK    3  A    between atoms: C_7  and  S_11
REMARK    4  A    between atoms: N_9  and  C_10
REMARK    5  A    between atoms: S_11  and  N_14
REMARK    6  A    between atoms: C_15  and  C_17
REMARK                            x       y       z     vdW  Elec       q    Type
REMARK                         _______ _______ _______ _____ _____    ______ ____
ROOT
ATOM      1  C   UNL     1      -1.135  -2.158   0.292  0.00  0.00    +0.106 A 
ATOM      2  C   UNL     1      -2.233  -2.990   0.236  0.00  0.00    +0.061 A 
ATOM      3  C   UNL     1      -1.752  -4.298   0.121  0.00  0.00    +0.131 A 
ATOM      4  C   UNL     1      -0.399  -4.244   0.109  0.00  0.00    +0.115 A 
ATOM      5  N   UNL     1      -0.011  -2.948   0.207  0.00  0.00    -0.344 N 
ATOM      6  C   UNL     1       1.373  -2.470   0.222  0.00  0.00    +0.149 C 
ENDROOT
BRANCH   1   9
ATOM      7  C   UNL     1      -2.366   1.405   0.671  0.00  0.00    +0.128 C 
ATOM      8  N   UNL     1      -2.337  -0.043   0.445  0.00  0.00    -0.313 N 
ATOM      9  C   UNL     1      -1.159  -0.696   0.413  0.00  0.00    +0.260 C 
ATOM     10  O   UNL     1      -0.116  -0.074   0.484  0.00  0.00    -0.269 OA
ATOM     11  H   UNL     1      -3.166  -0.530   0.318  0.00  0.00    +0.149 HD
ENDBRANCH   1   9
BRANCH   3  12
ATOM     12  S   UNL     1      -2.733  -5.758   0.013  0.00  0.00    +0.103 S 
ATOM     13  O   UNL     1      -1.918  -6.829   0.467  0.00  0.00    -0.146 OA
ATOM     14  O   UNL     1      -3.987  -5.450   0.606  0.00  0.00    -0.146 OA
BRANCH  12  15
ATOM     15  N   UNL     1      -3.024  -6.033  -1.594  0.00  0.00    -0.090 NA
ATOM     16  C   UNL     1      -3.728  -7.052  -1.957  0.00  0.00    +0.268 C 
ATOM     17  O   UNL     1      -4.226  -7.893  -1.027  0.00  0.00    -0.269 OA
BRANCH  16  18
ATOM     18  C   UNL     1      -3.994  -7.302  -3.419  0.00  0.00    +0.081 C 
ATOM     19  C   UNL     1      -3.308  -6.290  -4.352  0.00  0.00    +0.013 C 
ATOM     20  C   UNL     1      -4.595  -6.312  -5.193  0.00  0.00    +0.001 C 
ATOM     21  C   UNL     1      -5.333  -6.727  -3.909  0.00  0.00    +0.013 C 
ENDBRANCH  16  18
ENDBRANCH  12  15
ENDBRANCH   3  12
TORSDOF 4
