REMARK  Name = ZINC25767003
REMARK  7 active torsions:
REMARK  status: ('A' for Active; 'I' for Inactive)
REMARK    1  A    between atoms: C_3  and  N_14
REMARK    2  A    between atoms: C_5  and  S_7
REMARK    3  A    between atoms: S_7  and  N_10
REMARK    4  A    between atoms: N_10  and  C_11
REMARK    5  A    between atoms: N_14  and  S_15
REMARK    6  A    between atoms: S_15  and  C_18
REMARK    7  A    between atoms: C_22  and  C_24
REMARK                            x       y       z     vdW  Elec       q    Type
REMARK                         _______ _______ _______ _____ _____    ______ ____
ROOT
ATOM      1  C   UNL     1      -0.017   1.378   0.010  0.00  0.00    +0.004 A 
ATOM      2  C   UNL     1       1.169   2.087   0.002  0.00  0.00    +0.027 A 
ATOM      3  C   UNL     1       2.381   1.409  -0.013  0.00  0.00    +0.076 A 
ATOM      4  C   UNL     1       2.396   0.020  -0.021  0.00  0.00    +0.055 A 
ATOM      5  C   UNL     1       1.207  -0.682  -0.013  0.00  0.00    +0.107 A 
ATOM      6  C   UNL     1       0.002  -0.004   0.002  0.00  0.00    +0.028 A 
ENDROOT
BRANCH   5   7
ATOM      7  S   UNL     1       1.225  -2.444  -0.023  0.00  0.00    +0.059 S 
ATOM      8  O   UNL     1      -0.021  -2.860  -0.565  0.00  0.00    -0.153 OA
ATOM      9  O   UNL     1       2.469  -2.834  -0.589  0.00  0.00    -0.153 OA
BRANCH   7  10
ATOM     10  N   UNL     1       1.246  -2.943   1.556  0.00  0.00    -0.187 NA
ATOM     11  H   UNL     1       2.016  -3.420   1.904  0.00  0.00    +0.148 HD
BRANCH  10  12
ATOM     12  C   UNL     1       0.102  -2.664   2.427  0.00  0.00    +0.077 C 
ATOM     13  C   UNL     1       0.388  -2.394   3.905  0.00  0.00    +0.022 C 
ATOM     14  C   UNL     1      -0.257  -3.714   3.480  0.00  0.00    +0.022 C 
ENDBRANCH  10  12
ENDBRANCH   7  10
ENDBRANCH   5   7
BRANCH   3  15
ATOM     15  N   UNL     1       3.582   2.122  -0.021  0.00  0.00    -0.098 NA
BRANCH  15  16
ATOM     16  S   UNL     1       3.562   3.778  -0.013  0.00  0.00    +0.092 S 
ATOM     17  O   UNL     1       2.994   4.183  -1.250  0.00  0.00    -0.148 OA
ATOM     18  O   UNL     1       3.018   4.171   1.240  0.00  0.00    -0.148 OA
BRANCH  16  19
ATOM     19  C   UNL     1       5.238   4.319  -0.026  0.00  0.00    +0.111 A 
ATOM     20  C   UNL     1       5.909   4.520   1.168  0.00  0.00    +0.030 A 
ATOM     21  C   UNL     1       7.225   4.945   1.168  0.00  0.00    +0.018 A 
ATOM     22  C   UNL     1       7.880   5.173  -0.026  0.00  0.00    +0.032 A 
ATOM     23  C   UNL     1       7.209   4.971  -1.236  0.00  0.00    +0.079 A 
ATOM     24  C   UNL     1       5.881   4.537  -1.227  0.00  0.00    +0.045 A 
ATOM     25 BR   UNL     1       9.679   5.755  -0.024  0.00  0.00    -0.049 Br
BRANCH  23  26
ATOM     26  C   UNL     1       7.901   5.212  -2.516  0.00  0.00    +0.388 C 
ATOM     27  O   UNL     1       7.311   5.035  -3.572  0.00  0.00    -0.241 OA
ATOM     28  O   UNL     1       9.065   5.588  -2.520  0.00  0.00    -0.241 OA
ENDBRANCH  23  26
ENDBRANCH  16  19
ENDBRANCH  15  16
ENDBRANCH   3  15
TORSDOF 7
