REMARK  Name = ZINC03242815
REMARK  11 active torsions:
REMARK  status: ('A' for Active; 'I' for Inactive)
REMARK    1  A    between atoms: C_1  and  C_2
REMARK    2  A    between atoms: C_3  and  N_15
REMARK    3  A    between atoms: N_6  and  C_9
REMARK    4  A    between atoms: N_7  and  C_8
REMARK    5  A    between atoms: C_16  and  C_18
REMARK    6  A    between atoms: C_18  and  C_20
REMARK    7  A    between atoms: C_18  and  O_21
REMARK    8  A    between atoms: O_21  and  C_22
REMARK    9  A    between atoms: C_22  and  C_24
REMARK   10  A    between atoms: N_26  and  C_35
REMARK   11  A    between atoms: C_28  and  C_29
REMARK                            x       y       z     vdW  Elec       q    Type
REMARK                         _______ _______ _______ _____ _____    ______ ____
ROOT
ATOM      1  C   UNL     1       0.201   0.230  -0.321  0.00  0.00    +0.259 C 
ATOM      2  C   UNL     1       1.631   0.773  -0.289  0.00  0.00    +0.062 C 
ENDROOT
BRANCH   1   4
ATOM      3  N   UNL     1      -0.251   0.821  -2.680  0.00  0.00    -0.277 N 
ATOM      4  C   UNL     1      -0.588   0.954  -1.382  0.00  0.00    +0.258 C 
ATOM      5  O   UNL     1      -1.525   1.657  -1.068  0.00  0.00    -0.271 OA
ATOM      6  H   UNL     1       0.542   0.319  -2.927  0.00  0.00    +0.155 HD
BRANCH   3   9
ATOM      7  C   UNL     1       0.759   2.835  -4.763  0.00  0.00    +0.067 C 
ATOM      8  C   UNL     1      -0.642   2.300  -4.612  0.00  0.00    +0.059 A 
ATOM      9  C   UNL     1      -1.050   1.410  -3.679  0.00  0.00    +0.121 A 
ATOM     10  C   UNL     1      -2.476   1.169  -3.905  0.00  0.00    +0.293 A 
ATOM     11  O   UNL     1      -3.195   0.422  -3.266  0.00  0.00    -0.264 OA
ATOM     12  N   UNL     1      -2.843   1.935  -4.954  0.00  0.00    -0.216 N 
ATOM     13  N   UNL     1      -1.714   2.633  -5.397  0.00  0.00    -0.282 N 
ATOM     14  C   UNL     1      -1.683   3.571  -6.522  0.00  0.00    +0.171 C 
BRANCH  12  15
ATOM     15  C   UNL     1      -4.125   2.013  -5.505  0.00  0.00    +0.067 A 
ATOM     16  C   UNL     1      -4.697   3.252  -5.766  0.00  0.00    +0.028 A 
ATOM     17  C   UNL     1      -5.962   3.325  -6.316  0.00  0.00    +0.002 A 
ATOM     18  C   UNL     1      -6.664   2.166  -6.596  0.00  0.00    +0.000 A 
ATOM     19  C   UNL     1      -6.099   0.932  -6.332  0.00  0.00    +0.002 A 
ATOM     20  C   UNL     1      -4.833   0.852  -5.788  0.00  0.00    +0.028 A 
ENDBRANCH  12  15
ENDBRANCH   3   9
ENDBRANCH   1   4
BRANCH   1  21
ATOM     21  O   UNL     1      -0.425   0.438   0.973  0.00  0.00    -0.449 OA
BRANCH  21  22
ATOM     22  C   UNL     1      -0.289  -0.547   1.883  0.00  0.00    +0.344 C 
ATOM     23  O   UNL     1       0.334  -1.552   1.603  0.00  0.00    -0.245 OA
BRANCH  22  24
ATOM     24  C   UNL     1      -0.897  -0.406   3.216  0.00  0.00    +0.105 A 
ATOM     25  C   UNL     1      -1.624   0.670   3.683  0.00  0.00    +0.130 A 
ATOM     26  N   UNL     1      -1.998   0.398   4.945  0.00  0.00    -0.238 N 
ATOM     27  N   UNL     1      -1.511  -0.858   5.319  0.00  0.00    -0.166 NA
ATOM     28  C   UNL     1      -0.844  -1.377   4.313  0.00  0.00    +0.107 A 
BRANCH  28  29
ATOM     29  C   UNL     1      -0.166  -2.695   4.292  0.00  0.00    +0.003 A 
ATOM     30  C   UNL     1      -0.141  -3.451   3.121  0.00  0.00    +0.010 A 
ATOM     31  C   UNL     1       0.495  -4.675   3.105  0.00  0.00    +0.001 A 
ATOM     32  C   UNL     1       1.099  -5.158   4.252  0.00  0.00    +0.000 A 
ATOM     33  C   UNL     1       1.075  -4.415   5.419  0.00  0.00    +0.001 A 
ATOM     34  C   UNL     1       0.445  -3.187   5.444  0.00  0.00    +0.010 A 
ENDBRANCH  28  29
BRANCH  26  35
ATOM     35  C   UNL     1      -2.756   1.245   5.763  0.00  0.00    +0.065 A 
ATOM     36  C   UNL     1      -3.182   2.477   5.284  0.00  0.00    +0.028 A 
ATOM     37  C   UNL     1      -3.934   3.308   6.091  0.00  0.00    +0.002 A 
ATOM     38  C   UNL     1      -4.253   2.920   7.379  0.00  0.00    +0.000 A 
ATOM     39  C   UNL     1      -3.826   1.696   7.861  0.00  0.00    +0.002 A 
ATOM     40  C   UNL     1      -3.079   0.858   7.057  0.00  0.00    +0.028 A 
ENDBRANCH  26  35
ENDBRANCH  22  24
ENDBRANCH  21  22
ENDBRANCH   1  21
TORSDOF 8
