REMARK  Name = ZINC06780272
REMARK  12 active torsions:
REMARK  status: ('A' for Active; 'I' for Inactive)
REMARK    1  A    between atoms: C_1  and  C_2
REMARK    2  A    between atoms: C_2  and  N_3
REMARK    3  A    between atoms: N_3  and  C_4
REMARK    4  A    between atoms: N_3  and  C_6
REMARK    5  A    between atoms: C_4  and  C_5
REMARK    6  A    between atoms: C_9  and  N_13
REMARK    7  A    between atoms: C_10  and  C_12
REMARK    8  A    between atoms: C_14  and  C_16
REMARK    9  A    between atoms: C_18  and  C_32
REMARK   10  A    between atoms: C_26  and  C_29
REMARK   11  A    between atoms: C_29  and  C_30
REMARK   12  A    between atoms: C_29  and  C_31
REMARK                            x       y       z     vdW  Elec       q    Type
REMARK                         _______ _______ _______ _____ _____    ______ ____
ROOT
ATOM      1  N   UNL     1       1.024  -2.342   1.079  0.00  0.00    -0.285 N 
ATOM      2  C   UNL     1       1.885  -2.845   0.172  0.00  0.00    +0.225 C 
ATOM      3  O   UNL     1       2.587  -2.099  -0.476  0.00  0.00    -0.275 OA
ATOM      4  H   UNL     1       0.518  -2.941   1.651  0.00  0.00    +0.155 HD
ENDROOT
BRANCH   2   5
ATOM      5  C   UNL     1       1.974  -4.335  -0.037  0.00  0.00    +0.132 C 
ATOM      6  C   UNL     1       1.636  -4.709  -1.498  0.00  0.00    +0.110 C 
ATOM      7  C   UNL     1       2.974  -4.992  -2.145  0.00  0.00    +0.311 C 
ATOM      8  O   UNL     1       3.131  -5.357  -3.286  0.00  0.00    -0.251 OA
ATOM      9  O   UNL     1       3.962  -4.779  -1.262  0.00  0.00    -0.457 OA
ATOM     10  C   UNL     1       3.432  -4.822   0.092  0.00  0.00    +0.125 C 
ATOM     11  C   UNL     1       3.458  -6.247   0.633  0.00  0.00    +0.049 C 
ATOM     12  C   UNL     1       2.855  -6.271   2.040  0.00  0.00    +0.008 C 
ATOM     13  C   UNL     1       3.660  -5.346   2.955  0.00  0.00    -0.008 C 
ATOM     14  C   UNL     1       3.608  -3.916   2.411  0.00  0.00    +0.008 C 
ATOM     15  C   UNL     1       4.214  -3.884   1.005  0.00  0.00    +0.049 C 
ATOM     16  C   UNL     1       0.942  -3.540  -2.200  0.00  0.00    +0.020 C 
BRANCH  13  17
ATOM     17  C   UNL     1       3.064  -5.377   4.364  0.00  0.00    -0.014 C 
ATOM     18  C   UNL     1       3.115  -6.806   4.908  0.00  0.00    +0.007 C 
ATOM     19  C   UNL     1       3.870  -4.453   5.279  0.00  0.00    +0.007 C 
ENDBRANCH  13  17
ENDBRANCH   2   5
BRANCH   1  23
ATOM     20  C   UNL     1       0.532   1.785   1.424  0.00  0.00    +0.030 A 
ATOM     21  C   UNL     1       1.086   1.245   0.270  0.00  0.00    +0.025 A 
ATOM     22  C   UNL     1       1.248  -0.121   0.156  0.00  0.00    +0.025 A 
ATOM     23  C   UNL     1       0.859  -0.956   1.195  0.00  0.00    +0.036 A 
ATOM     24  C   UNL     1       0.306  -0.416   2.349  0.00  0.00    -0.028 A 
ATOM     25  C   UNL     1       0.143   0.950   2.463  0.00  0.00    +0.028 A 
ATOM     26  C   UNL     1      -0.117  -1.323   3.476  0.00  0.00    +0.046 C 
BRANCH  20  27
ATOM     27  N   UNL     1       0.367   3.169   1.539  0.00  0.00    -0.330 N 
BRANCH  27  29
ATOM     28  C   UNL     1      -0.396   4.248  -0.519  0.00  0.00    +0.024 C 
ATOM     29  C   UNL     1       0.778   4.050   0.443  0.00  0.00    +0.102 C 
ENDBRANCH  27  29
BRANCH  27  30
ATOM     30  C   UNL     1      -0.216   3.738   2.757  0.00  0.00    +0.102 C 
ATOM     31  C   UNL     1       0.897   4.045   3.761  0.00  0.00    +0.024 C 
ENDBRANCH  27  30
ENDBRANCH  20  27
ENDBRANCH   1  23
TORSDOF 6
