REMARK  Name = ZINC36026169
REMARK  7 active torsions:
REMARK  status: ('A' for Active; 'I' for Inactive)
REMARK    1  A    between atoms: C_1  and  C_2
REMARK    2  A    between atoms: C_6  and  N_8
REMARK    3  A    between atoms: C_22  and  C_24
REMARK    4  A    between atoms: C_24  and  N_25
REMARK    5  A    between atoms: N_28  and  C_31
REMARK    6  A    between atoms: C_36  and  O_37
REMARK    7  A    between atoms: O_37  and  C_38
REMARK                            x       y       z     vdW  Elec       q    Type
REMARK                         _______ _______ _______ _____ _____    ______ ____
ROOT
ATOM      1  N   UNL     1      -0.670  -3.431   2.082  0.00  0.00    -0.286 N 
ATOM      2  C   UNL     1      -0.786  -2.651   3.316  0.00  0.00    +0.117 C 
ATOM      3  C   UNL     1      -0.558  -3.668   4.448  0.00  0.00    +0.060 C 
ATOM      4  C   UNL     1      -0.326  -4.976   3.724  0.00  0.00    +0.014 A 
ATOM      5  C   UNL     1      -0.413  -4.752   2.368  0.00  0.00    +0.109 A 
ATOM      6  N   UNL     1      -0.245  -5.784   1.480  0.00  0.00    -0.342 N 
ATOM      7  C   UNL     1       0.010  -7.071   1.893  0.00  0.00    +0.050 A 
ATOM      8  C   UNL     1       0.177  -8.101   0.969  0.00  0.00    +0.026 A 
ATOM      9  C   UNL     1       0.432  -9.380   1.410  0.00  0.00    +0.002 A 
ATOM     10  C   UNL     1       0.524  -9.658   2.767  0.00  0.00    +0.001 A 
ATOM     11  C   UNL     1       0.363  -8.662   3.691  0.00  0.00    +0.012 A 
ATOM     12  C   UNL     1       0.106  -7.360   3.265  0.00  0.00    +0.020 A 
ATOM     13  C   UNL     1      -0.065  -6.257   4.225  0.00  0.00    +0.049 A 
ATOM     14  N   UNL     1       0.015  -6.476   5.548  0.00  0.00    -0.284 N 
ATOM     15  C   UNL     1      -0.019  -5.456   6.392  0.00  0.00    +0.231 C 
ATOM     16  O   UNL     1      -1.080  -5.090   6.862  0.00  0.00    -0.274 OA
ATOM     17  H   UNL     1      -0.308  -5.600   0.530  0.00  0.00    +0.167 HD
ATOM     18  H   UNL     1       0.097  -7.382   5.886  0.00  0.00    +0.155 HD
ENDROOT
BRANCH   1  24
ATOM     19  C   UNL     1      -2.951  -3.451  -2.272  0.00  0.00    +0.044 C 
ATOM     20  C   UNL     1      -1.905  -2.898  -1.339  0.00  0.00    -0.049 A 
ATOM     21  C   UNL     1      -1.080  -1.870  -1.758  0.00  0.00    +0.003 A 
ATOM     22  C   UNL     1      -0.119  -1.360  -0.904  0.00  0.00    +0.002 A 
ATOM     23  C   UNL     1       0.020  -1.876   0.370  0.00  0.00    +0.023 A 
ATOM     24  C   UNL     1      -0.808  -2.907   0.793  0.00  0.00    +0.035 A 
ATOM     25  C   UNL     1      -1.776  -3.414  -0.064  0.00  0.00    +0.026 A 
ENDBRANCH   1  24
BRANCH  15  26
ATOM     26  C   UNL     1       1.257  -4.749   6.770  0.00  0.00    +0.180 C 
BRANCH  26  27
ATOM     27  N   UNL     1       0.969  -3.731   7.790  0.00  0.00    -0.291 NA
ATOM     28  C   UNL     1       0.522  -4.354   9.043  0.00  0.00    +0.104 C 
ATOM     29  C   UNL     1       0.060  -3.263  10.016  0.00  0.00    +0.120 C 
ATOM     30  N   UNL     1       1.144  -2.280  10.162  0.00  0.00    -0.325 N 
ATOM     31  C   UNL     1       1.738  -1.712   8.943  0.00  0.00    +0.120 C 
ATOM     32  C   UNL     1       2.134  -2.864   8.012  0.00  0.00    +0.104 C 
BRANCH  30  33
ATOM     33  C   UNL     1       1.597  -1.893  11.429  0.00  0.00    +0.072 A 
ATOM     34  C   UNL     1       2.634  -2.585  12.037  0.00  0.00    +0.027 A 
ATOM     35  C   UNL     1       3.080  -2.201  13.288  0.00  0.00    +0.002 A 
ATOM     36  C   UNL     1       2.495  -1.129  13.935  0.00  0.00    +0.004 A 
ATOM     37  C   UNL     1       1.461  -0.434  13.335  0.00  0.00    +0.047 A 
ATOM     38  C   UNL     1       1.011  -0.809  12.080  0.00  0.00    +0.141 A 
BRANCH  38  39
ATOM     39  O   UNL     1      -0.002  -0.124  11.486  0.00  0.00    -0.493 OA
ATOM     40  C   UNL     1      -0.554   0.976  12.211  0.00  0.00    +0.277 C 
ENDBRANCH  38  39
ENDBRANCH  30  33
ENDBRANCH  26  27
ENDBRANCH  15  26
TORSDOF 5
