REMARK  Name = ZINC59303179
REMARK  5 active torsions:
REMARK  status: ('A' for Active; 'I' for Inactive)
REMARK    1  A    between atoms: C_3  and  C_13
REMARK    2  A    between atoms: N_4  and  C_6
REMARK    3  A    between atoms: N_14  and  N_15
REMARK    4  A    between atoms: N_18  and  C_19
REMARK    5  A    between atoms: C_22  and  C_25
REMARK                            x       y       z     vdW  Elec       q    Type
REMARK                         _______ _______ _______ _____ _____    ______ ____
ROOT
ATOM      1  N   UNL     1       5.393   1.933   0.622  0.00  0.00    -0.190 N 
ATOM      2  C   UNL     1       5.980   3.131   0.808  0.00  0.00    +0.323 C 
ATOM      3  O   UNL     1       7.075   3.197   1.333  0.00  0.00    -0.251 OA
ATOM      4  N   UNL     1       5.354   4.258   0.413  0.00  0.00    -0.268 N 
ATOM      5  H   UNL     1       5.843   1.122   0.906  0.00  0.00    +0.179 HD
ATOM      6  H   UNL     1       4.512   4.202  -0.065  0.00  0.00    +0.156 HD
ENDROOT
BRANCH   4   7
ATOM      7  C   UNL     1       5.919   5.507   0.692  0.00  0.00    +0.035 A 
ATOM      8  C   UNL     1       5.101   6.589   0.992  0.00  0.00    +0.023 A 
ATOM      9  C   UNL     1       5.662   7.821   1.267  0.00  0.00    +0.006 A 
ATOM     10  C   UNL     1       7.036   7.977   1.245  0.00  0.00    -0.041 A 
ATOM     11  C   UNL     1       7.852   6.902   0.947  0.00  0.00    +0.006 A 
ATOM     12  C   UNL     1       7.298   5.666   0.676  0.00  0.00    +0.023 A 
BRANCH  10  13
ATOM     13  C   UNL     1       7.644   9.323   1.545  0.00  0.00    -0.003 C 
ATOM     14  C   UNL     1       7.244   9.760   2.956  0.00  0.00    +0.015 C 
ATOM     15  C   UNL     1       7.862  11.126   3.260  0.00  0.00    -0.010 C 
ATOM     16  C   UNL     1       9.386  11.029   3.169  0.00  0.00    +0.007 C 
ATOM     17  C   UNL     1       9.786  10.591   1.759  0.00  0.00    -0.010 C 
ATOM     18  C   UNL     1       9.168   9.225   1.454  0.00  0.00    +0.015 C 
ATOM     19  C   UNL     1       9.279  11.618   0.744  0.00  0.00    +0.007 C 
ATOM     20  C   UNL     1       7.755  11.716   0.835  0.00  0.00    -0.010 C 
ATOM     21  C   UNL     1       7.355  12.153   2.245  0.00  0.00    +0.007 C 
ATOM     22  C   UNL     1       7.137  10.350   0.530  0.00  0.00    +0.015 C 
ENDBRANCH  10  13
ENDBRANCH   4   7
BRANCH   1  24
ATOM     23  C   UNL     1       3.509   0.718  -0.049  0.00  0.00    +0.156 C 
ATOM     24  N   UNL     1       4.131   1.857   0.017  0.00  0.00    -0.185 NA
BRANCH  23  27
ATOM     25  C   UNL     1       4.718  -1.512   2.597  0.00  0.00    +0.020 A 
ATOM     26  C   UNL     1       4.687  -0.255   1.976  0.00  0.00    +0.029 A 
ATOM     27  C   UNL     1       3.843  -0.356   0.892  0.00  0.00    +0.066 A 
ATOM     28  N   UNL     1       3.369  -1.648   0.854  0.00  0.00    -0.315 N 
ATOM     29  C   UNL     1       3.910  -2.340   1.898  0.00  0.00    +0.092 A 
BRANCH  28  30
ATOM     30  C   UNL     1       2.480  -2.165  -0.097  0.00  0.00    +0.047 A 
ATOM     31  C   UNL     1       1.305  -1.486  -0.393  0.00  0.00    +0.027 A 
ATOM     32  C   UNL     1       0.431  -1.997  -1.332  0.00  0.00    +0.022 A 
ATOM     33  C   UNL     1       0.724  -3.186  -1.977  0.00  0.00    +0.041 A 
ATOM     34  C   UNL     1       1.893  -3.865  -1.684  0.00  0.00    +0.022 A 
ATOM     35  C   UNL     1       2.774  -3.354  -0.750  0.00  0.00    +0.027 A 
ATOM     36 CL   UNL     1      -0.378  -3.827  -3.155  0.00  0.00    -0.084 Cl
ENDBRANCH  28  30
ENDBRANCH  23  27
ENDBRANCH   1  24
TORSDOF 5
