REMARK  Name = ZINC24986391
REMARK  8 active torsions:
REMARK  status: ('A' for Active; 'I' for Inactive)
REMARK    1  A    between atoms: C_1  and  C_2
REMARK    2  A    between atoms: C_2  and  C_4
REMARK    3  A    between atoms: C_2  and  N_21
REMARK    4  A    between atoms: C_22  and  C_24
REMARK    5  A    between atoms: C_27  and  C_30
REMARK    6  A    between atoms: C_30  and  C_31
REMARK    7  A    between atoms: C_30  and  C_32
REMARK    8  A    between atoms: C_30  and  C_33
REMARK                            x       y       z     vdW  Elec       q    Type
REMARK                         _______ _______ _______ _____ _____    ______ ____
ROOT
ATOM      1  C   UNL     1       0.835  -0.501   1.155  0.00  0.00    +0.236 C 
ATOM      2  O   UNL     1       2.006  -0.767   0.987  0.00  0.00    -0.274 OA
ATOM      3  N   UNL     1       0.280  -0.644   2.375  0.00  0.00    -0.300 N 
ATOM      4  C   UNL     1      -1.161  -0.431   2.572  0.00  0.00    +0.110 C 
ATOM      5  C   UNL     1      -1.358   0.592   3.696  0.00  0.00    +0.047 C 
ATOM      6  C   UNL     1      -0.614   0.120   4.946  0.00  0.00    +0.064 C 
ATOM      7  C   UNL     1       0.881   0.010   4.647  0.00  0.00    +0.047 C 
ATOM      8  C   UNL     1       1.102  -1.023   3.532  0.00  0.00    +0.110 C 
ATOM      9  C   UNL     1      -0.840   1.095   6.070  0.00  0.00    +0.057 A 
ATOM     10  C   UNL     1      -1.689   0.870   7.099  0.00  0.00    +0.039 A 
ATOM     11  N   UNL     1      -1.645   1.928   7.909  0.00  0.00    -0.349 N 
ATOM     12  C   UNL     1      -0.803   2.804   7.424  0.00  0.00    +0.171 A 
ATOM     13  N   UNL     1      -0.281   2.317   6.274  0.00  0.00    -0.348 N 
ATOM     14  H   UNL     1       0.369   2.757   5.704  0.00  0.00    +0.166 HD
ATOM     15  C   UNL     1      -2.509  -0.390   7.227  0.00  0.00    +0.070 C 
ATOM     16  C   UNL     1      -2.507  -1.096   5.864  0.00  0.00    +0.088 C 
ATOM     17  N   UNL     1      -1.131  -1.195   5.359  0.00  0.00    -0.305 NA
ATOM     18  H   UNL     1      -1.071  -1.861   4.603  0.00  0.00    +0.123 HD
ATOM     19  H   UNL     1      -2.156   2.031   8.727  0.00  0.00    +0.166 HD
ENDROOT
BRANCH   1  21
ATOM     20  C   UNL     1      -0.039   1.518   0.011  0.00  0.00    +0.038 C 
ATOM     21  C   UNL     1       0.000  -0.012   0.000  0.00  0.00    +0.156 C 
BRANCH  21  22
ATOM     22  N   UNL     1       0.588  -0.476  -1.259  0.00  0.00    -0.300 N 
ATOM     23  C   UNL     1      -0.186  -0.617  -2.353  0.00  0.00    +0.245 C 
ATOM     24  O   UNL     1      -1.373  -0.358  -2.295  0.00  0.00    -0.270 OA
ATOM     25  H   UNL     1       1.535  -0.682  -1.305  0.00  0.00    +0.150 HD
BRANCH  23  26
ATOM     26  C   UNL     1       0.407  -1.085  -3.623  0.00  0.00    +0.037 A 
ATOM     27  C   UNL     1       1.768  -1.389  -3.691  0.00  0.00    +0.013 A 
ATOM     28  C   UNL     1       2.315  -1.826  -4.880  0.00  0.00    +0.005 A 
ATOM     29  C   UNL     1       1.519  -1.964  -6.003  0.00  0.00    -0.042 A 
ATOM     30  C   UNL     1       0.169  -1.664  -5.942  0.00  0.00    +0.005 A 
ATOM     31  C   UNL     1      -0.392  -1.232  -4.758  0.00  0.00    +0.013 A 
BRANCH  29  32
ATOM     32  C   UNL     1       2.124  -2.441  -7.298  0.00  0.00    -0.013 C 
ATOM     33  C   UNL     1       2.726  -3.833  -7.096  0.00  0.00    +0.015 C 
ATOM     34  C   UNL     1       1.039  -2.506  -8.374  0.00  0.00    +0.015 C 
ATOM     35  C   UNL     1       3.221  -1.469  -7.737  0.00  0.00    +0.015 C 
ENDBRANCH  29  32
ENDBRANCH  23  26
ENDBRANCH  21  22
ENDBRANCH   1  21
TORSDOF 4
