REMARK  Name = ZINC09303062
REMARK  9 active torsions:
REMARK  status: ('A' for Active; 'I' for Inactive)
REMARK    1  A    between atoms: C_1  and  N_67
REMARK    2  A    between atoms: C_8  and  N_36
REMARK    3  A    between atoms: N_21  and  C_24
REMARK    4  A    between atoms: C_24  and  C_25
REMARK    5  A    between atoms: C_25  and  C_26
REMARK    6  A    between atoms: C_29  and  O_34
REMARK    7  A    between atoms: C_30  and  O_32
REMARK    8  A    between atoms: O_32  and  C_33
REMARK    9  A    between atoms: O_34  and  C_35
REMARK                            x       y       z     vdW  Elec       q    Type
REMARK                         _______ _______ _______ _____ _____    ______ ____
ROOT
ATOM      1  C   UNL     1       5.203   7.235  -2.305  0.00  0.00    -0.096 C 
ATOM      2  C   UNL     1       5.119   8.163  -4.540  0.00  0.00    -0.060 C 
ATOM      3  C   UNL     1       4.438   8.041  -5.906  0.00  0.00    +0.087 C 
ATOM      4  N   UNL     1       2.997   8.275  -5.748  0.00  0.00    -0.329 N 
ATOM      5  C   UNL     1       2.344   8.334  -6.976  0.00  0.00    +0.033 A 
ATOM      6  C   UNL     1       3.040   8.873  -8.059  0.00  0.00    +0.025 A 
ATOM      7  C   UNL     1       2.438   8.973  -9.295  0.00  0.00    +0.034 A 
ATOM      8  C   UNL     1       1.138   8.535  -9.467  0.00  0.00    +0.127 A 
ATOM      9  C   UNL     1       0.446   7.997  -8.400  0.00  0.00    +0.038 A 
ATOM     10  C   UNL     1       1.044   7.891  -7.155  0.00  0.00    -0.023 A 
ATOM     11  C   UNL     1       0.242   7.288  -6.030  0.00  0.00    +0.064 C 
ATOM     12  C   UNL     1       0.907   7.608  -4.688  0.00  0.00    +0.144 C 
ATOM     13  C   UNL     1       2.404   7.308  -4.822  0.00  0.00    +0.081 C 
ATOM     14  C   UNL     1       3.080   7.433  -3.454  0.00  0.00    -0.055 C 
ATOM     15  C   UNL     1       0.713   9.061  -4.362  0.00  0.00    +0.238 C 
ATOM     16  O   UNL     1       1.138   9.899  -5.129  0.00  0.00    -0.274 OA
ATOM     17  N   UNL     1       0.083   9.459  -3.248  0.00  0.00    -0.239 N 
ATOM     18  C   UNL     1      -0.416   8.582  -2.363  0.00  0.00    +0.315 C 
ATOM     19  O   UNL     1      -0.986   8.998  -1.374  0.00  0.00    -0.252 OA
ATOM     20  N   UNL     1      -0.296   7.258  -2.540  0.00  0.00    -0.224 N 
ATOM     21  C   UNL     1       0.316   6.739  -3.615  0.00  0.00    +0.240 C 
ATOM     22  O   UNL     1       0.393   5.534  -3.723  0.00  0.00    -0.274 OA
ATOM     23  H   UNL     1      -0.020  10.409  -3.079  0.00  0.00    +0.159 HD
ATOM     24  N   UNL     1       4.527   7.171  -3.618  0.00  0.00    +0.380 N 
ATOM     25  H   UNL     1       4.653   6.231  -4.012  0.00  0.00    -0.082 HD
ENDROOT
BRANCH   8  26
ATOM     26  N   UNL     1       0.488   8.644 -10.793  0.00  0.00    +0.056 N 
ATOM     27  O   UNL     1      -0.657   8.259 -10.943  0.00  0.00    -0.126 OA
ATOM     28  O   UNL     1       1.100   9.119 -11.733  0.00  0.00    -0.126 OA
ENDBRANCH   8  26
BRANCH  20  29
ATOM     29  C   UNL     1      -0.855   6.352  -1.533  0.00  0.00    +0.122 C 
BRANCH  29  30
ATOM     30  C   UNL     1       0.207   6.050  -0.474  0.00  0.00    +0.055 C 
BRANCH  30  31
ATOM     31  C   UNL     1      -0.368   5.119   0.562  0.00  0.00    -0.042 A 
ATOM     32  C   UNL     1      -1.003   5.634   1.677  0.00  0.00    +0.007 A 
ATOM     33  C   UNL     1      -1.532   4.784   2.629  0.00  0.00    +0.049 A 
ATOM     34  C   UNL     1      -1.432   3.411   2.465  0.00  0.00    +0.161 A 
ATOM     35  C   UNL     1      -0.787   2.893   1.346  0.00  0.00    +0.162 A 
ATOM     36  C   UNL     1      -0.259   3.751   0.395  0.00  0.00    +0.053 A 
BRANCH  35  37
ATOM     37  O   UNL     1      -0.682   1.547   1.184  0.00  0.00    -0.491 OA
ATOM     38  C   UNL     1      -0.013   1.086   0.008  0.00  0.00    +0.277 C 
ENDBRANCH  35  37
BRANCH  34  39
ATOM     39  O   UNL     1      -1.957   2.573   3.399  0.00  0.00    -0.491 OA
ATOM     40  C   UNL     1      -2.603   3.176   4.521  0.00  0.00    +0.277 C 
ENDBRANCH  34  39
ENDBRANCH  30  31
ENDBRANCH  29  30
ENDBRANCH  20  29
TORSDOF 6
