REMARK  Name = ZINC39634357
REMARK  7 active torsions:
REMARK  status: ('A' for Active; 'I' for Inactive)
REMARK    1  A    between atoms: C_1  and  C_2
REMARK    2  A    between atoms: C_5  and  C_8
REMARK    3  A    between atoms: C_8  and  N_9
REMARK    4  A    between atoms: C_10  and  C_12
REMARK    5  A    between atoms: C_23  and  C_25
REMARK    6  A    between atoms: C_27  and  O_32
REMARK    7  A    between atoms: O_32  and  C_33
REMARK                            x       y       z     vdW  Elec       q    Type
REMARK                         _______ _______ _______ _____ _____    ______ ____
ROOT
ATOM      1  C   UNL     1       3.562  -6.675   0.439  0.00  0.00    +0.100 C 
ATOM      2  C   UNL     1       4.022  -6.228  -0.967  0.00  0.00    +0.121 C 
ATOM      3  N   UNL     1       4.786  -7.383  -1.495  0.00  0.00    -0.296 N 
ATOM      4  C   UNL     1       4.021  -8.569  -1.043  0.00  0.00    +0.115 C 
ATOM      5  C   UNL     1       3.562  -8.212   0.384  0.00  0.00    -0.004 C 
ATOM      6  C   UNL     1       4.540  -8.777   1.410  0.00  0.00    -0.010 C 
ATOM      7  C   UNL     1       4.481 -10.307   1.376  0.00  0.00    -0.082 C 
ATOM      8  N   UNL     1       3.115 -10.752   1.676  0.00  0.00    +0.379 N 
ATOM      9  C   UNL     1       2.194 -10.282   0.634  0.00  0.00    -0.082 C 
ATOM     10  C   UNL     1       2.157  -8.751   0.636  0.00  0.00    -0.010 C 
ATOM     11  C   UNL     1       5.921  -7.359  -2.222  0.00  0.00    +0.248 C 
ATOM     12  O   UNL     1       6.380  -8.393  -2.667  0.00  0.00    -0.270 OA
ATOM     13  H   UNL     1       3.092 -11.760   1.713  0.00  0.00    -0.086 HD
ATOM     14  H   UNL     1       2.829 -10.379   2.569  0.00  0.00    -0.086 HD
ENDROOT
BRANCH  11  15
ATOM     15  C   UNL     1       6.607  -6.075  -2.479  0.00  0.00    +0.054 A 
ATOM     16  C   UNL     1       5.864  -4.912  -2.681  0.00  0.00    +0.059 A 
ATOM     17  C   UNL     1       6.514  -3.713  -2.921  0.00  0.00    +0.121 A 
ATOM     18  C   UNL     1       7.901  -3.670  -2.960  0.00  0.00    +0.047 A 
ATOM     19  C   UNL     1       8.640  -4.821  -2.760  0.00  0.00    +0.019 A 
ATOM     20  C   UNL     1       8.002  -6.021  -2.515  0.00  0.00    +0.030 A 
ATOM     21 BR   UNL     1       9.018  -7.592  -2.235  0.00  0.00    -0.050 Br
BRANCH  17  22
ATOM     22  O   UNL     1       5.793  -2.578  -3.119  0.00  0.00    -0.495 OA
ATOM     23  C   UNL     1       6.528  -1.376  -3.361  0.00  0.00    +0.277 C 
ENDBRANCH  17  22
ENDBRANCH  11  15
BRANCH   1  25
ATOM     24  N   UNL     1       1.799  -5.905   1.994  0.00  0.00    -0.311 N 
ATOM     25  C   UNL     1       2.174  -6.161   0.725  0.00  0.00    +0.218 C 
ATOM     26  O   UNL     1       1.396  -5.977  -0.187  0.00  0.00    -0.275 OA
ATOM     27  H   UNL     1       2.422  -6.052   2.723  0.00  0.00    +0.149 HD
BRANCH  24  28
ATOM     28  C   UNL     1       0.450  -5.405   2.272  0.00  0.00    +0.139 C 
BRANCH  28  33
ATOM     29  C   UNL     1      -0.183  -4.625   7.963  0.00  0.00    +0.044 C 
ATOM     30  C   UNL     1      -0.018  -4.828   6.479  0.00  0.00    -0.050 A 
ATOM     31  C   UNL     1       0.454  -3.797   5.688  0.00  0.00    +0.003 A 
ATOM     32  C   UNL     1       0.605  -3.984   4.327  0.00  0.00    +0.005 A 
ATOM     33  C   UNL     1       0.286  -5.202   3.756  0.00  0.00    -0.030 A 
ATOM     34  C   UNL     1      -0.184  -6.233   4.547  0.00  0.00    +0.005 A 
ATOM     35  C   UNL     1      -0.332  -6.048   5.909  0.00  0.00    +0.003 A 
ENDBRANCH  28  33
ENDBRANCH  24  28
ENDBRANCH   1  25
TORSDOF 5
